data_image0
_chemical_formula_structural       Fe2S3C6H4Fe2S3C6H4Fe2S3C6H4Fe2S3C6H4S4Fe2S3C6H4Fe2S3C6H4Fe2S3C6H4Fe2S3C6H4S4Fe2S3C6H4Fe2S3C6H4Fe2S3C6H4Fe2S3C6H4S4Fe2S3C6H4Fe2S3C6H4Fe2S3C6H4Fe2S3C6H4S4Fe2S3C6H4Fe2S3C6H4Fe2S3C6H4Fe2S3C6H4S4Fe2S3C6H4Fe2S3C6H4Fe2S3C6H4Fe2S3C6H4S5Fe2S3C6H4Fe2S3C6H4Fe2S3C6H4Fe2S3C6H4S4Fe2S3C6H4Fe2S3C6H4Fe2S3C6H4Fe2S3C6H4S3Fe2S3C6H4Fe2S3C6H4Fe2S3C6H4Fe2S3C6H4S4Fe2S3C6H4Fe2S3C6H4Fe2S3C6H4Fe2S3C6H4S4Fe2S3C6H4Fe2S3C6H4Fe2S3C6H4Fe2S3C6H4S4Fe2S3C6H4Fe2S3C6H4Fe2S3C6H4Fe2S3C6H4S4Fe2S3C6H4Fe2S3C6H4Fe2S3C6H4Fe2S3C6H4S4Fe2S3C6H4Fe2S3C6H4Fe2S3C6H4Fe2S3C6H4S5Fe2S3C6H4Fe2S3C6H4Fe2S3C6H4Fe2S3C6H4S4Fe2S3C6H4Fe2S3C6H4Fe2S3C6H4Fe2S3C6H4S3Fe2S3C6H4Fe2S3C6H4Fe2S3C6H4Fe2S3C6H4S4Fe2S3C6H4Fe2S3C6H4Fe2S3C6H4Fe2S3C6H4S4NC4H12NC4H12NC4H12NC4H12NC4H12NC4H12NC4H12NC4H12NC4H12NC4H12NC4H12NC4H12NC4H12NC4H12NC4H12NC4H12NC4H12NC4H12NC4H12NC4H12NC4H12NC4H12NC4H12NC4H12NC4H12NC4H12NC4H12NC4H12NC4H12NC4H12NC4H12NC4H12NC4H12NC4H12NC4H12NC4H12NC4H12NC4H12NC4H12NC4H12NC4H12NC4H12NC4H12NC4H12NC4H12NC4H12NC4H12NC4H12NC4H12NC4H12NC4H12NC4H12NC4H12NC4H12NC4H12NC4H12NC4H12NC4H12NC4H12NC4H12NC4H12NC4H12NC4H12NC4H12NC4H12NC4H12NC4H12NC4H12NC4H12NC4H12NC4H12NC4H12
_chemical_formula_sum              "Fe144 S288 C720 H1152 N72"
_cell_length_a       30.94714133883729
_cell_length_b       27.543762122631584
_cell_length_c       39.34276367072765
_cell_angle_alpha    97.90534260910812
_cell_angle_beta     88.25251879608318
_cell_angle_gamma    96.8752555453733

_space_group_name_H-M_alt    "P 1"
_space_group_IT_number       1

loop_
  _space_group_symop_operation_xyz
  'x, y, z'

loop_
  _atom_site_type_symbol
  _atom_site_label
  _atom_site_symmetry_multiplicity
  _atom_site_fract_x
  _atom_site_fract_y
  _atom_site_fract_z
  _atom_site_occupancy
  Fe  Fe1       1.0  0.3460247914236375  0.9721166075135574  0.24529846790204157  1.0000
  Fe  Fe2       1.0  0.4198686427158121  0.9653247779075169  0.036590373815625465  1.0000
  S   S1        1.0  0.34979299247170864  0.9889714545659753  0.3026411867145633  1.0000
  S   S2        1.0  0.38244786303315026  0.910609913166045  0.22095361556126214  1.0000
  S   S3        1.0  0.4570219414308793  0.9286156355823518  0.07159526415207429  1.0000
  C   C1        1.0  0.3998779700612473  0.9140650948977722  0.17842694951946392  1.0000
  C   C2        1.0  0.38262161901340114  0.945134245918382  0.15831644364914288  1.0000
  C   C3        1.0  0.3985488616054591  0.9482205466976996  0.12469065112246458  1.0000
  C   C4        1.0  0.4323491867455669  0.9211258358847036  0.11160854277815657  1.0000
  C   C5        1.0  0.4491850342655754  0.8899547461207771  0.1317044475759972  1.0000
  C   C6        1.0  0.43271480367330956  0.8860536952628166  0.16485379455407756  1.0000
  H   H1        1.0  0.3569476720803347  0.9665285558885426  0.16863873820545194  1.0000
  H   H2        1.0  0.38547726771866847  0.9724887959778634  0.10933307667355763  1.0000
  H   H3        1.0  0.475415364732876  0.8691066761372355  0.12181456437484295  1.0000
  H   H4        1.0  0.446070897889886  0.8618937974269745  0.18025657729907518  1.0000
  Fe  Fe3       1.0  0.3000553098754689  0.061254204614446195  0.23882873741888933  1.0000
  Fe  Fe4       1.0  0.3630706539325305  0.044733119395058196  0.029659615066533362  1.0000
  S   S4        1.0  0.30058894184994606  0.08629806177755306  0.2953198281650371  1.0000
  S   S5        1.0  0.27214025801719205  0.11292834030231447  0.20890831581244163  1.0000
  S   S6        1.0  0.3341032523380348  0.11093305191917047  0.05521311974110077  1.0000
  C   C7        1.0  0.2945356207664316  0.113011309260596  0.16754222109046513  1.0000
  C   C8        1.0  0.3113271744453396  0.07132824356589573  0.1501620133666326  1.0000
  C   C9        1.0  0.32555886576375564  0.07096063047504231  0.1158587573395029  1.0000
  C   C10       1.0  0.3234487135057493  0.11250447271143038  0.09931423905728343  1.0000
  C   C11       1.0  0.3091361468629009  0.1550278471556652  0.11747297812944701  1.0000
  C   C12       1.0  0.2942868011222302  0.15512575684400431  0.1514158389929361  1.0000
  H   H5        1.0  0.3114463850575603  0.03867568313726011  0.16260657127257128  1.0000
  H   H6        1.0  0.3365176967658923  0.03801079534667373  0.10191203394526838  1.0000
  H   H7        1.0  0.3082690466077435  0.18754152692399373  0.10493340516806882  1.0000
  H   H8        1.0  0.2819225270156189  0.1876789400408736  0.1649559676043264  1.0000
  Fe  Fe5       1.0  0.3942060769076803  0.16523257656216472  0.4982730746516717  1.0000
  Fe  Fe6       1.0  0.3685343091583566  0.06678652459184597  0.29273495036873687  1.0000
  S   S7        1.0  0.43511723463768676  0.04549227459752103  0.03238179232345484  1.0000
  S   S8        1.0  0.4396288051294988  0.21166977878562143  0.4673919068501293  1.0000
  S   S9        1.0  0.4279596643945923  0.11499764721580519  0.3124600248755125  1.0000
  C   C13       1.0  0.4340860066045041  0.1876977845539347  0.42388783786693507  1.0000
  C   C14       1.0  0.39421225881379623  0.1638155796308567  0.41083580542005693  1.0000
  C   C15       1.0  0.39146992387300267  0.14116061791852275  0.37650170416602613  1.0000
  C   C16       1.0  0.42880442101089644  0.14222710512061454  0.35550063240132834  1.0000
  C   C17       1.0  0.46830010879043493  0.16598394899546598  0.36875757790026764  1.0000
  C   C18       1.0  0.4708751454339898  0.18957092123227248  0.4025520686727355  1.0000
  H   H9        1.0  0.365397907215504  0.1635560879409823  0.42704523532885164  1.0000
  H   H10       1.0  0.36067736714357546  0.12307285773648324  0.3664004265347054  1.0000
  H   H11       1.0  0.49728168862330496  0.1652373077818705  0.35294824315268647  1.0000
  H   H12       1.0  0.5018189510480155  0.20761223028159215  0.4124659261122261  1.0000
  Fe  Fe7       1.0  0.3024864636335693  0.11577825082956039  0.5036263986509155  1.0000
  Fe  Fe8       1.0  0.28117417326215954  0.0063351979739429964  0.2994441845783742  1.0000
  S   S10       1.0  0.34762695262022486  0.9663176550986261  0.039177905241421396  1.0000
  S   S11       1.0  0.2353082947353442  0.10402608959550541  0.48239565223492065  1.0000
  S   S12       1.0  0.22524172129692008  0.9840679694150989  0.3337303694799476  1.0000
  C   C19       1.0  0.23292316938557572  0.07228585977976465  0.4406135192316203  1.0000
  C   C20       1.0  0.2686461764873775  0.07622520071917727  0.4180543201655782  1.0000
  C   C21       1.0  0.2667641379523658  0.04869800499000121  0.385234466810513  1.0000
  C   C22       1.0  0.22923444110023425  0.0170302206296693  0.37512408448266754  1.0000
  C   C23       1.0  0.1935562750012774  0.013242919269602638  0.3977135012819657  1.0000
  C   C24       1.0  0.19510940891786782  0.0415155318540279  0.4301512124368281  1.0000
  H   H13       1.0  0.29751296519626236  0.1009328935913949  0.4256609468428998  1.0000
  H   H14       1.0  0.2943859103607857  0.05185946076251824  0.36784051802533124  1.0000
  H   H15       1.0  0.1643797331534223  0.9889802533424632  0.3899458769372406  1.0000
  H   H16       1.0  0.16717506146651753  0.03894750628008126  0.44735688135175433  1.0000
  S   S13       1.0  0.3700771824100318  0.04863557231540838  0.23559099938673134  1.0000
  S   S14       1.0  0.2752410047786916  0.9823792626060417  0.24270511228692104  1.0000
  S   S15       1.0  0.3337123374957052  0.1915860045450799  0.5226625659090476  1.0000
  S   S16       1.0  0.3615910069801816  0.09184936326321669  0.47519523970509114  1.0000
  Fe  Fe9       1.0  0.40742109388321013  0.9243846370459572  0.6991424372631392  1.0000
  Fe  Fe10      1.0  0.37760024965384914  0.06592753734267198  0.5242292491419223  1.0000
  S   S17       1.0  0.41725243671570444  0.8876159432780106  0.7455070549886984  1.0000
  S   S18       1.0  0.4173192241583764  0.8831028894867732  0.6467494197192347  1.0000
  S   S19       1.0  0.40345926780019953  0.9927629781082583  0.517360636097913  1.0000
  C   C25       1.0  0.4122910124482957  0.9150143019088084  0.6116635043594316  1.0000
  C   C26       1.0  0.39374345462304056  0.9594747706537969  0.6150788036975054  1.0000
  C   C27       1.0  0.38989956171406326  0.9834892309503456  0.586096779905247  1.0000
  C   C28       1.0  0.40494650117277037  0.9630736188923592  0.5539323088554182  1.0000
  C   C29       1.0  0.4237741249282134  0.919022655011652  0.5507871409499709  1.0000
  C   C30       1.0  0.42752162331970767  0.8951638235038448  0.5795232725419948  1.0000
  H   H17       1.0  0.3820115870896024  0.9750132253084622  0.6399143031403374  1.0000
  H   H18       1.0  0.375625493276329  0.017803548963520655  0.5887142604715403  1.0000
  H   H19       1.0  0.43599440921632876  0.9034732344348395  0.5260815520670152  1.0000
  H   H20       1.0  0.44297470588303284  0.8616251173225518  0.5768215170831663  1.0000
  Fe  Fe11      1.0  0.38953942768025773  0.019534479863107634  0.740999856762401  1.0000
  Fe  Fe12      1.0  0.352590889155052  0.15679354714104932  0.5672916734826026  1.0000
  S   S20       1.0  0.39781377816916796  0.9924034005148652  0.7909908222618207  1.0000
  S   S21       1.0  0.37596580773067123  0.09770434952383944  0.7478025644207773  1.0000
  S   S22       1.0  0.3478277416887876  0.20033846186151294  0.6187346450092837  1.0000
  C   C31       1.0  0.3749439417430199  0.12439868604923632  0.7100484383970063  1.0000
  C   C32       1.0  0.3681641947776415  0.09565639465139064  0.6779437702861597  1.0000
  C   C33       1.0  0.36127186416198326  0.1185424037848346  0.6489784007966399  1.0000
  C   C34       1.0  0.361039952656613  0.16984861477178015  0.6525112642200828  1.0000
  C   C35       1.0  0.3696437424357484  0.1980477165484782  0.6841995344180121  1.0000
  C   C36       1.0  0.37682504585575216  0.17565186257434817  0.7128805870772492  1.0000
  H   H21       1.0  0.3664015731164166  0.05590046953485306  0.6757367566825718  1.0000
  H   H22       1.0  0.35460569315334617  0.09647724553817127  0.6244091439553174  1.0000
  H   H23       1.0  0.37066320686046356  0.23741130186072112  0.6864229163311033  1.0000
  H   H24       1.0  0.383003524783192  0.19822948315631628  0.7374110975315644  1.0000
  Fe  Fe13      1.0  0.4315212228876764  0.022503544261461172  0.9755563626518127  1.0000
  Fe  Fe14      1.0  0.45517985572320335  0.9598087566240707  0.7654664704513099  1.0000
  S   S23       1.0  0.41650309285119197  0.13716990667262685  0.5448210715315351  1.0000
  S   S24       1.0  0.4818042519315206  0.0643365593270353  0.9449133493598012  1.0000
  S   S25       1.0  0.5186780356265933  0.9699147340327574  0.7930961289680116  1.0000
  C   C37       1.0  0.4929834413948602  0.03444593964185749  0.9038460138566506  1.0000
  C   C38       1.0  0.4626261431070047  0.9980737927263146  0.8870008081254124  1.0000
  C   C39       1.0  0.47088708830448783  0.977219157674929  0.8531503885211689  1.0000
  C   C40       1.0  0.509771431835852  0.9922132502009102  0.8363797273486355  1.0000
  C   C41       1.0  0.540944224260218  0.02689349857328338  0.8538218481391855  1.0000
  C   C42       1.0  0.5322758782145502  0.04856991052550086  0.8873188561018659  1.0000
  H   H25       1.0  0.43239133632842486  0.9868169170250791  0.8997586916952893  1.0000
  H   H26       1.0  0.4471791439136506  0.9493924771427427  0.840090459017016  1.0000
  H   H27       1.0  0.5714178619545798  0.03793209074333781  0.8412294339693425  1.0000
  H   H28       1.0  0.5561616837110461  0.07623859176810655  0.9004146292582118  1.0000
  Fe  Fe15      1.0  0.35218445191925063  0.9486954878998066  0.9819197892996261  1.0000
  Fe  Fe16      1.0  0.35909567062924214  0.9234052865661955  0.76717765377373  1.0000
  S   S26       1.0  0.31517522920368196  0.08308047625234671  0.5509832959441114  1.0000
  S   S27       1.0  0.3026976680921672  0.8907913374190422  0.9558845209053963  1.0000
  S   S28       1.0  0.3033899575680133  0.8853443068198921  0.794828460166773  1.0000
  C   C43       1.0  0.30538573135184094  0.8880581166702886  0.9110322861629285  1.0000
  C   C44       1.0  0.33781452368619985  0.9173603989263697  0.8950286535614724  1.0000
  C   C45       1.0  0.3383885486936993  0.9159842363700577  0.859135889280024  1.0000
  C   C46       1.0  0.3063409670399615  0.8854973208099786  0.8393546468558064  1.0000
  C   C47       1.0  0.27419967635472137  0.856103964082445  0.8554716698156843  1.0000
  C   C48       1.0  0.2737993589703235  0.8572709318263012  0.8911559173653285  1.0000
  H   H29       1.0  0.362437775576979  0.9409585959578433  0.9103053755513875  1.0000
  H   H30       1.0  0.3633657086205898  0.9386541130824426  0.8468959888805476  1.0000
  H   H31       1.0  0.2497088525136909  0.8318510689086764  0.8403165614287595  1.0000
  H   H32       1.0  0.2490254070060197  0.8339597521834552  0.903180168315675  1.0000
  S   S29       1.0  0.4507864232205884  0.9936697618502741  0.7172751515872919  1.0000
  S   S30       1.0  0.3453130910975757  0.9533344077742569  0.7188241187140418  1.0000
  S   S31       1.0  0.3601041355695002  0.02753917467575384  0.9723573639006764  1.0000
  S   S32       1.0  0.4236869474101902  0.9416095527214807  0.9797989594096927  1.0000
  Fe  Fe17      1.0  0.27345269799703487  0.3718712807296072  0.23681133462174486  1.0000
  Fe  Fe18      1.0  0.3061367715754178  0.2841654265971769  0.03082814060550554  1.0000
  S   S33       1.0  0.2687391298604407  0.38259017421409425  0.2939644055075883  1.0000
  S   S34       1.0  0.34216222715777683  0.3717625677880694  0.2176198566167291  1.0000
  S   S35       1.0  0.36625885025109145  0.29108687321637916  0.0622203817274114  1.0000
  C   C49       1.0  0.3467874798521746  0.3425446317551195  0.17557896964558672  1.0000
  C   C50       1.0  0.3103535978188716  0.3306580887411297  0.1545376346895968  1.0000
  C   C51       1.0  0.31569679559822283  0.3125851256287717  0.119713880525536  1.0000
  C   C52       1.0  0.35729659163211414  0.3058349536523526  0.10632715706461848  1.0000
  C   C53       1.0  0.3929702321428231  0.3137208489682024  0.12812640320978064  1.0000
  C   C54       1.0  0.387906018061836  0.33294626860731213  0.16261216027374958  1.0000
  H   H33       1.0  0.278429951331637  0.3371720667777023  0.16474211829862595  1.0000
  H   H34       1.0  0.2878841259896473  0.3048618324713228  0.10314559351321906  1.0000
  H   H35       1.0  0.42477666858506025  0.3063662071951345  0.11807140714541609  1.0000
  H   H36       1.0  0.41597680773379153  0.34121380489728637  0.17905250567493436  1.0000
  Fe  Fe19      1.0  0.1758708877656993  0.36159433380208483  0.22840674104038738  1.0000
  Fe  Fe20      1.0  0.20855855185995695  0.2592809067501882  0.02431490946405157  1.0000
  S   S36       1.0  0.16302472123014214  0.36969397518600644  0.28518597672811463  1.0000
  S   S37       1.0  0.11718051049380691  0.35414440346637477  0.19488773403803172  1.0000
  S   S38       1.0  0.14434468159160285  0.23591739996268046  0.048618375085078824  1.0000
  C   C55       1.0  0.12555665949414146  0.32170734449512217  0.154319950119858  1.0000
  C   C56       1.0  0.167657475086302  0.3153340421323687  0.1419685556702901  1.0000
  C   C57       1.0  0.17370157049046675  0.28899897103283045  0.10936296279571733  1.0000
  C   C58       1.0  0.13759877698840378  0.2683015782281899  0.08954974154889284  1.0000
  C   C59       1.0  0.09554529255062362  0.2741574130977966  0.10217842975070512  1.0000
  C   C60       1.0  0.08953694301778001  0.3014551898295057  0.13433318602287114  1.0000
  H   H37       1.0  0.1955065598182616  0.3309664754721826  0.15742077777414698  1.0000
  H   H38       1.0  0.20621078956157307  0.2839784180100029  0.0998478843509143  1.0000
  H   H39       1.0  0.06754418779544583  0.2582986498871733  0.08687054749443224  1.0000
  H   H40       1.0  0.05691106904707634  0.30634077484181965  0.14376421534881567  1.0000
  Fe  Fe21      1.0  0.2953182743357318  0.4777978357624697  0.4859374398260079  1.0000
  Fe  Fe22      1.0  0.21738193302108288  0.4309641164172593  0.2870710785429931  1.0000
  S   S39       1.0  0.25080020763933464  0.32967184276966144  0.04166036917613036  1.0000
  S   S40       1.0  0.2641511520793235  0.540381433803077  0.47025763338057613  1.0000
  S   S41       1.0  0.20470623197003507  0.5033790111019449  0.31652050727922765  1.0000
  C   C61       1.0  0.24618548734472012  0.5279784876506781  0.4279370280742758  1.0000
  C   C62       1.0  0.25928834601301043  0.4880041905306758  0.40589747826143174  1.0000
  C   C63       1.0  0.24590707560135658  0.47947423385174837  0.3716626221220709  1.0000
  C   C64       1.0  0.22012556453131282  0.5115079890344827  0.3594375883406866  1.0000
  C   C65       1.0  0.20696891171012993  0.551429431116425  0.3815413914021262  1.0000
  C   C66       1.0  0.21960654643098715  0.5593436327940413  0.4158668181104406  1.0000
  H   H41       1.0  0.2805750155288726  0.46438890755109696  0.4149835127952701  1.0000
  H   H42       1.0  0.2564669366957394  0.44888496083857277  0.35465609316774804  1.0000
  H   H43       1.0  0.1871395382479807  0.5763707061883121  0.37212156628481186  1.0000
  H   H44       1.0  0.20908218226282957  0.5900391285486801  0.4329115689813472  1.0000
  Fe  Fe23      1.0  0.3400001937859037  0.38592199870287835  0.46482408204587333  1.0000
  Fe  Fe24      1.0  0.21501370047621152  0.32010805543486676  0.2864635783166829  1.0000
  S   S42       1.0  0.2634601817642007  0.21260094296806287  0.018852414284677543  1.0000
  S   S43       1.0  0.3650721248594417  0.33355964754605516  0.42203751417616564  1.0000
  S   S44       1.0  0.2145112736792651  0.2567714828953882  0.3170251073612822  1.0000
  C   C67       1.0  0.3226140584029789  0.31136341194138417  0.3936374743725617  1.0000
  C   C68       1.0  0.29262983428196515  0.3426829564160485  0.38676906938861677  1.0000
  C   C69       1.0  0.25842805804855923  0.32516850164679134  0.3642165736388896  1.0000
  C   C70       1.0  0.2542083112809419  0.27629445030203037  0.3483233975239499  1.0000
  C   C71       1.0  0.28382488243599774  0.24452810532973857  0.3555685961839026  1.0000
  C   C72       1.0  0.31826719796745095  0.2622208413252949  0.37804529302149126  1.0000
  H   H45       1.0  0.29645959454916  0.3809005917846022  0.39814962635418993  1.0000
  H   H46       1.0  0.23541608875430742  0.3497672926750912  0.3589734918128533  1.0000
  H   H47       1.0  0.2810903439759623  0.2068091150001834  0.34316660026947243  1.0000
  H   H48       1.0  0.3414748632488431  0.23790605214597882  0.383449959500076  1.0000
  S   S45       1.0  0.22719645303479044  0.4265086554649198  0.23013614524114212  1.0000
  S   S46       1.0  0.22312984818922887  0.3057747726180562  0.22932281383995967  1.0000
  S   S47       1.0  0.26991347808089816  0.3988417461290261  0.469942709016963  1.0000
  S   S48       1.0  0.3650436517042607  0.46610046524905435  0.475623002525412  1.0000
  Fe  Fe25      1.0  0.3642211091033029  0.4041789766386419  0.7368872529549937  1.0000
  Fe  Fe26      1.0  0.3640478304301558  0.4520409504997005  0.5304420529005234  1.0000
  S   S49       1.0  0.3615978556705943  0.40555596775959835  0.7940228214726908  1.0000
  S   S50       1.0  0.41968695235992615  0.4523641534535585  0.7168363464449685  1.0000
  S   S51       1.0  0.4210826466451538  0.4870844635590341  0.5618415957073433  1.0000
  C   C73       1.0  0.4182317429471394  0.46110956690374394  0.673624916034556  1.0000
  C   C74       1.0  0.3838411895689411  0.4388950455750713  0.6522916197501001  1.0000
  C   C75       1.0  0.3832817641140132  0.44829149755058495  0.6180534066231322  1.0000
  C   C76       1.0  0.41764479944179267  0.4788332829785453  0.6051595608595952  1.0000
  C   C77       1.0  0.4516050837877804  0.5009809506566629  0.6266100721682997  1.0000
  C   C78       1.0  0.4518165485277694  0.49232062388056796  0.6607615328768328  1.0000
  H   H49       1.0  0.35768702102949884  0.4148047072119976  0.6621809671632652  1.0000
  H   H50       1.0  0.3569251162307226  0.43114659962153645  0.6014587539999612  1.0000
  H   H51       1.0  0.47828750075529963  0.5243463881708443  0.6166508845943075  1.0000
  H   H52       1.0  0.4784734781480733  0.509527346047264  0.6770903936983363  1.0000
  Fe  Fe27      1.0  0.28501367648023834  0.3283060957230468  0.725774041675812  1.0000
  Fe  Fe28      1.0  0.27699792665859624  0.39033852669061275  0.5250655584507626  1.0000
  S   S52       1.0  0.27555867273512347  0.32280684847110663  0.7817304338808295  1.0000
  S   S53       1.0  0.23395402856341455  0.28321253243229805  0.692505870032869  1.0000
  S   S54       1.0  0.21955350590972614  0.3466438982950937  0.5462864245535548  1.0000
  C   C79       1.0  0.2308009252328699  0.3047890281058834  0.6530649447498518  1.0000
  C   C80       1.0  0.26691749542804755  0.3304383182617734  0.6384533480763173  1.0000
  C   C81       1.0  0.263769820670861  0.3446938850263237  0.6057120481533604  1.0000
  C   C82       1.0  0.2243815933882678  0.33367047602322053  0.5881205514548915  1.0000
  C   C83       1.0  0.18809293226539517  0.3098629988799839  0.603478652451555  1.0000
  C   C84       1.0  0.19139114291978518  0.29515992212284914  0.6357833887165132  1.0000
  H   H53       1.0  0.2975399789935756  0.3377445888182482  0.6518067516572503  1.0000
  H   H54       1.0  0.2918924592282012  0.36316292715144627  0.5938301919456004  1.0000
  H   H55       1.0  0.1574780921086884  0.30188582776841955  0.5900802673307135  1.0000
  H   H56       1.0  0.16333160505377609  0.27603763462014186  0.6472948247215182  1.0000
  Fe  Fe29      1.0  0.2564697291108381  0.33740399389725795  0.9857728421311975  1.0000
  Fe  Fe30      1.0  0.28998306387239126  0.4047340848182106  0.787587698369498  1.0000
  S   S55       1.0  0.2963362292699787  0.4707228127619576  0.5418777467325055  1.0000
  S   S56       1.0  0.25156398051315926  0.41344229752318107  0.9741040453459  1.0000
  S   S57       1.0  0.24879388638955116  0.4531680070282036  0.8204985060278593  1.0000
  C   C85       1.0  0.25094382036066304  0.4226556425136945  0.9310749350848844  1.0000
  C   C86       1.0  0.2725148486334528  0.3936508240725072  0.9055506609166453  1.0000
  C   C87       1.0  0.27216590886238257  0.4031755169432376  0.8713800920704884  1.0000
  C   C88       1.0  0.2491325735042038  0.44045025889823997  0.8627729912119331  1.0000
  C   C89       1.0  0.22707146385224844  0.4686445412386018  0.8881923933265758  1.0000
  C   C90       1.0  0.2285963228026935  0.46026446996084047  0.9223388331362723  1.0000
  H   H57       1.0  0.2900252446920198  0.36472454869015003  0.9123178874978661  1.0000
  H   H58       1.0  0.28948373442024944  0.38163486095475996  0.8516896581631404  1.0000
  H   H59       1.0  0.20889370750197442  0.49718224230557695  0.8816260337267869  1.0000
  H   H60       1.0  0.21157074482301985  0.48239956859356603  0.941944008573846  1.0000
  Fe  Fe31      1.0  0.26748765164341676  0.2299551546159595  0.9649438678685622  1.0000
  Fe  Fe32      1.0  0.3479212592589962  0.3234299741889046  0.7819237592195383  1.0000
  S   S58       1.0  0.34510411722983225  0.37036801814154074  0.5189682779772564  1.0000
  S   S59       1.0  0.2792796718213833  0.1693331533387461  0.9230443653364997  1.0000
  S   S60       1.0  0.38133764112186896  0.2691438884279389  0.8058118359577495  1.0000
  C   C91       1.0  0.3041659815291676  0.196069100338903  0.8886768405755285  1.0000
  C   C92       1.0  0.2987716156841434  0.2446963116355949  0.8845817313536846  1.0000
  C   C93       1.0  0.3211224465698636  0.2668846827429192  0.8581129878506246  1.0000
  C   C94       1.0  0.34979901284523485  0.2408840126346199  0.8366516692410664  1.0000
  C   C95       1.0  0.35441767056128315  0.19205562926443598  0.8403785546177427  1.0000
  C   C96       1.0  0.3311981654442983  0.1693846830560144  0.8661175712375186  1.0000
  H   H61       1.0  0.2775543594559317  0.2651774399070579  0.9019128459243979  1.0000
  H   H62       1.0  0.31738011668813076  0.3045076096581578  0.855029283295341  1.0000
  H   H63       1.0  0.37550166503407106  0.17157394565040995  0.8230072969215056  1.0000
  H   H64       1.0  0.3351426464640456  0.13170577210899026  0.8690958114463192  1.0000
  S   S61       1.0  0.2933226127190128  0.41071243093954024  0.7315885784329472  1.0000
  S   S62       1.0  0.35637020218488635  0.3221017707817726  0.7251795297092558  1.0000
  S   S63       1.0  0.20894130840859115  0.2710658273133095  0.9690231869719659  1.0000
  S   S64       1.0  0.3153683160109039  0.2977972967138367  0.9760771438068225  1.0000
  Fe  Fe33      1.0  0.10016681486583882  0.6280012370793688  0.25856393806952704  1.0000
  Fe  Fe34      1.0  0.17448147534765637  0.5683185864579574  0.05568471180819401  1.0000
  S   S65       1.0  0.12157356159889049  0.660762757465692  0.31125185451774406  1.0000
  S   S66       1.0  0.1097158201897077  0.5492701104256543  0.24178542217259213  1.0000
  S   S67       1.0  0.190161831211111  0.5181602618036241  0.09277978430426748  1.0000
  C   C97       1.0  0.12893864404098757  0.5401647220744525  0.19942454798010756  1.0000
  C   C98       1.0  0.1266927523787124  0.5756100176167767  0.17741467984936454  1.0000
  C   C99       1.0  0.14413886715835955  0.5684975363790894  0.14398580033326747  1.0000
  C   C100      1.0  0.16315169337573973  0.525536926284051  0.1325663690612564  1.0000
  C   C101      1.0  0.16304251754718965  0.4889543877226554  0.15401819562168395  1.0000
  C   C102      1.0  0.14641271813483026  0.4965066838264143  0.18748619582710457  1.0000
  H   H65       1.0  0.11142466255736318  0.6083657069796153  0.18601352256289516  1.0000
  H   H66       1.0  0.1436833005163447  0.5966019332485057  0.1273493547021336  1.0000
  H   H67       1.0  0.1760303763218317  0.4547681521217477  0.14506696770239635  1.0000
  H   H68       1.0  0.14718184385975422  0.4684818907123116  0.20417780125914975  1.0000
  Fe  Fe35      1.0  0.06397016661072762  0.7192304744842204  0.24386086511341842  1.0000
  Fe  Fe36      1.0  0.11631940644245835  0.638621607113075  0.034003694779370264  1.0000
  S   S68       1.0  0.08124751573769756  0.7613211005865459  0.29566834727944435  1.0000
  S   S69       1.0  0.031038021098436484  0.7554569939187896  0.2057011068096677  1.0000
  S   S70       1.0  0.06715401805038364  0.6921899380736907  0.047245158664191766  1.0000
  C   C103      1.0  0.04191631549104785  0.7367408599532119  0.16191867957488748  1.0000
  C   C104      1.0  0.06947474307207786  0.7005065176761729  0.15124927919876452  1.0000
  C   C105      1.0  0.07770096815185208  0.6867088913027359  0.11604865452678315  1.0000
  C   C106      1.0  0.0582065141190391  0.7090147723911056  0.09148388225060256  1.0000
  C   C107      1.0  0.030274816781433504  0.7446757013981937  0.10218307762628775  1.0000
  C   C108      1.0  0.02224318847653568  0.7585660138009196  0.137235183501613  1.0000
  H   H69       1.0  0.0842189760351343  0.6828865071307479  0.17001599378087118  1.0000
  H   H70       1.0  0.09894256380919571  0.6587238854152613  0.10793143238114933  1.0000
  H   H71       1.0  0.014810919658105836  0.7617550671116291  0.08334684515079038  1.0000
  H   H72       1.0  0.00046179170578530896  0.7861241363962783  0.14519595793395546  1.0000
  Fe  Fe37      1.0  0.22666861749541178  0.7531317635638768  0.48969414507377396  1.0000
  Fe  Fe38      1.0  0.14404114121764724  0.7284318577829154  0.287315273710969  1.0000
  S   S71       1.0  0.18333516809558556  0.6507840935686406  0.05609882601415617  1.0000
  S   S72       1.0  0.26734155330838494  0.7937696197313304  0.45226908137841626  1.0000
  S   S73       1.0  0.20912205552749896  0.7712203249099705  0.2979268757233928  1.0000
  C   C109      1.0  0.2500401194578384  0.7857159429060054  0.4096437421456791  1.0000
  C   C110      1.0  0.20876731077845215  0.7620254211865323  0.40012325048257  1.0000
  C   C111      1.0  0.19569028954815393  0.7579495698153274  0.36581015782705695  1.0000
  C   C112      1.0  0.22402592945972216  0.7769482320438996  0.34111587878817007  1.0000
  C   C113      1.0  0.26515639275672365  0.8005193155553574  0.3508076609174178  1.0000
  C   C114      1.0  0.27807145716089576  0.8050197217611679  0.38498400015518497  1.0000
  H   H73       1.0  0.18690627280092756  0.7472927760171189  0.41915402684789393  1.0000
  H   H74       1.0  0.16366379676947673  0.7405956010721617  0.3585011247467986  1.0000
  H   H75       1.0  0.2870308343577623  0.815544608551928  0.3318622763846353  1.0000
  H   H76       1.0  0.30992457334584406  0.8235510875446526  0.3922828354684156  1.0000
  Fe  Fe39      1.0  0.15903500108357232  0.6694643044366835  0.5039053320361155  1.0000
  Fe  Fe40      1.0  0.0573390049694129  0.6905362367209058  0.3157926839128784  1.0000
  S   S74       1.0  0.10561507253211198  0.5578555108151466  0.03810856008676211  1.0000
  S   S75       1.0  0.10315205967452848  0.6131857436412673  0.4862657775031156  1.0000
  S   S76       1.0  0.016018958225557153  0.6889201759380956  0.36360036977972277  1.0000
  C   C115      1.0  0.07916946952244827  0.6341395929299303  0.4521574601321454  1.0000
  C   C116      1.0  0.10529371212548957  0.6565501963887623  0.4276822765123489  1.0000
  C   C117      1.0  0.08602176084364783  0.673151951749567  0.4002700713345613  1.0000
  C   C118      1.0  0.04069547682368742  0.6678915926176927  0.39749557686804815  1.0000
  C   C119      1.0  0.014625968410714051  0.6460176102506985  0.4222287243540155  1.0000
  C   C120      1.0  0.033831053527700515  0.6287976925881278  0.44939968728456003  1.0000
  H   H77       1.0  0.14039081762219982  0.660838383316074  0.42978924413470976  1.0000
  H   H78       1.0  0.10623858102175814  0.6910950961972215  0.3818298105711584  1.0000
  H   H79       1.0  0.9795094725951763  0.6418301107494866  0.4201914477283615  1.0000
  H   H80       1.0  0.01347311862277271  0.6117461217730309  0.46837118529220145  1.0000
  S   S77       1.0  0.12936286670649524  0.6930637365072734  0.23372777164230207  1.0000
  S   S78       1.0  0.03346309326318214  0.651277457946053  0.2648195724607687  1.0000
  S   S79       1.0  0.15507538458613027  0.7495634891122354  0.5010972211334987  1.0000
  S   S80       1.0  0.22907356530392753  0.6719944435352208  0.4874086729726721  1.0000
  Fe  Fe41      1.0  0.18471188059864713  0.589868460061  0.7233787850047566  1.0000
  Fe  Fe42      1.0  0.2431300111484506  0.6909025831206694  0.5433801959803022  1.0000
  S   S81       1.0  0.19316103177653127  0.5782421566803233  0.7778119664497032  1.0000
  S   S82       1.0  0.2179971684263411  0.5419251070399245  0.6828862240910603  1.0000
  S   S83       1.0  0.29760999178019343  0.659181316094207  0.5650522778703455  1.0000
  C   C121      1.0  0.2390924368042039  0.5741695481821232  0.6496388031119249  1.0000
  C   C122      1.0  0.22549666284291772  0.6197422077807584  0.6459866606703839  1.0000
  C   C123      1.0  0.24373578951461317  0.6461715669987314  0.6200483402579668  1.0000
  C   C124      1.0  0.27605760240840166  0.6273662443742012  0.5982308653300747  1.0000
  C   C125      1.0  0.2902851583952076  0.5823417973592484  0.602323513916494  1.0000
  C   C126      1.0  0.2710654918635939  0.5551320281599565  0.6274996662397094  1.0000
  H   H81       1.0  0.20064514793069435  0.6343895335082603  0.6628619705003804  1.0000
  H   H82       1.0  0.23332189644874002  0.6814777492569295  0.6172595777408496  1.0000
  H   H83       1.0  0.3153950445771712  0.5679362087395248  0.5854602086479681  1.0000
  H   H84       1.0  0.28125330649738844  0.5195026269990723  0.6297652393474009  1.0000
  Fe  Fe43      1.0  0.11686018362463911  0.6600408747978967  0.7421977766838594  1.0000
  Fe  Fe44      1.0  0.17396100124528222  0.7599739247126394  0.5564400695878153  1.0000
  S   S84       1.0  0.1175828458354756  0.6527393345575963  0.7982990462864512  1.0000
  S   S85       1.0  0.07055976046018173  0.70721197111774  0.7240036454451784  1.0000
  S   S86       1.0  0.137118389395027  0.8085109496648677  0.5945940199442186  1.0000
  C   C127      1.0  0.09021717565749789  0.7357001170049013  0.6884804045948019  1.0000
  C   C128      1.0  0.12567072792219156  0.7195392226228705  0.6690397936701595  1.0000
  C   C129      1.0  0.14114666514946728  0.742763332786156  0.6407437557810658  1.0000
  C   C130      1.0  0.12088680932068314  0.7817853957888659  0.6315958433381113  1.0000
  C   C131      1.0  0.08645954468160404  0.7989779185829438  0.6517786309528768  1.0000
  C   C132      1.0  0.0708647849480288  0.775678091844366  0.6799660936966312  1.0000
  H   H85       1.0  0.14094691846045596  0.6889164922523854  0.6756396420186856  1.0000
  H   H86       1.0  0.16895845794611902  0.7307654057051884  0.6262318315171873  1.0000
  H   H87       1.0  0.07131156818575182  0.8297597517703519  0.6452850747883363  1.0000
  H   H88       1.0  0.043728990814320266  0.7885930816448052  0.6951353330293131  1.0000
  Fe  Fe45      1.0  0.20492153238833932  0.6339221756395848  0.0010061189193211195  1.0000
  Fe  Fe46      1.0  0.19008969124497863  0.6593679202618947  0.7905401549064814  1.0000
  S   S87       1.0  0.24547138611154978  0.7724472776913718  0.5449063990225107  1.0000
  S   S88       1.0  0.2607319992231461  0.6786803623699438  0.9776115216617827  1.0000
  S   S89       1.0  0.23884628546954684  0.7101874158261072  0.8231842119662565  1.0000
  C   C133      1.0  0.25334402687032553  0.6865664432923939  0.9346450726306301  1.0000
  C   C134      1.0  0.2201976825869872  0.6580852277163327  0.9147880420709966  1.0000
  C   C135      1.0  0.2142231443856369  0.666221883627717  0.8808010291376744  1.0000
  C   C136      1.0  0.24223210928342112  0.7020043590352802  0.8664151722580744  1.0000
  C   C137      1.0  0.27559548751231433  0.7298829246909193  0.8861635402585311  1.0000
  C   C138      1.0  0.2809209385145432  0.7225236384638709  0.920212544478936  1.0000
  H   H89       1.0  0.19984696938682198  0.629018781158674  0.9252529580367796  1.0000
  H   H90       1.0  0.1889186757209982  0.6438505158347496  0.8654127233416693  1.0000
  H   H91       1.0  0.2979463992671249  0.7568505063472859  0.874927438213839  1.0000
  H   H92       1.0  0.30697397380293967  0.7444249998001187  0.9350233656815305  1.0000
  Fe  Fe47      1.0  0.13568260905229296  0.5472978652736273  0.9854404532214165  1.0000
  Fe  Fe48      1.0  0.12063851001773136  0.5724576308810754  0.779756256712588  1.0000
  S   S90       1.0  0.1731201056491647  0.6793903581998286  0.5598333548801646  1.0000
  S   S91       1.0  0.11432972279480973  0.47928459508860577  0.9491727607746681  1.0000
  S   S92       1.0  0.08379131449097524  0.5048560003844642  0.7955789619913527  1.0000
  C   C139      1.0  0.1073276779269627  0.48782256921315614  0.9065960599811267  1.0000
  C   C140      1.0  0.12266413715382936  0.5322386096047911  0.8943992780678038  1.0000
  C   C141      1.0  0.11611344894708887  0.5376858252317778  0.8600032030030991  1.0000
  C   C142      1.0  0.09407091952708362  0.49872881873864117  0.8381439408807516  1.0000
  C   C143      1.0  0.07949109097359448  0.4543126870162979  0.8503455227635284  1.0000
  C   C144      1.0  0.08585591247233493  0.4489789537461082  0.8845408000830357  1.0000
  H   H93       1.0  0.13970723893731488  0.562033479442194  0.9113472157399602  1.0000
  H   H94       1.0  0.12773608646960108  0.5719623604148456  0.8505102820672619  1.0000
  H   H95       1.0  0.0623467418778273  0.4243157754679885  0.8336381373675428  1.0000
  H   H96       1.0  0.07256711897733618  0.41539735402020916  0.8942306147174195  1.0000
  S   S93       1.0  0.1893839561226366  0.6721907886188667  0.7354797544427374  1.0000
  S   S94       1.0  0.11227195222171633  0.5790322168557882  0.7245443508174296  1.0000
  S   S95       1.0  0.1383398946490251  0.6270462285719134  0.978973717042801  1.0000
  S   S96       1.0  0.20406431269732161  0.5534043467046867  0.0032548586104961252  1.0000
  S   S97       1.0  0.7656505932773139  0.942000805710439  0.9676901358678149  1.0000
  Fe  Fe49      1.0  0.6836470874469764  0.8861117829501168  0.22207487008078086  1.0000
  Fe  Fe50      1.0  0.750457190758301  0.931603869757069  0.022347289530122882  1.0000
  S   S98       1.0  0.6950715330604467  0.8834692735713912  0.27769243307460023  1.0000
  S   S99       1.0  0.7027194427755448  0.822258047505402  0.18574898325147693  1.0000
  S   S100      1.0  0.7570265374446319  0.8566863590650868  0.03519795041137552  1.0000
  C   C145      1.0  0.7203129300583873  0.8353352054708871  0.14504184000937181  1.0000
  C   C146      1.0  0.7107193590765726  0.8779924262554442  0.13259923810203134  1.0000
  C   C147      1.0  0.7231305999134476  0.8858203000480547  0.0989614389841087  1.0000
  C   C148      1.0  0.7449534432040106  0.8508829689873441  0.07808225411813119  1.0000
  C   C149      1.0  0.7555032821768062  0.8091488236716877  0.09092937745178009  1.0000
  C   C150      1.0  0.743158881833237  0.8013791216527935  0.12431517992522645  1.0000
  H   H97       1.0  0.6929217699962212  0.9042144661766649  0.14855220108975065  1.0000
  H   H98       1.0  0.7150346665360406  0.9181899851466913  0.08897755920309658  1.0000
  H   H99       1.0  0.7732003186418415  0.7826158608686349  0.07506534690201816  1.0000
  H   H100      1.0  0.7512016589411821  0.7687209874139054  0.13385084166494243  1.0000
  Fe  Fe51      1.0  0.6438933420914881  0.981879774013926  0.2361104568745449  1.0000
  Fe  Fe52      1.0  0.7244032753823095  0.034116557349980425  0.04144321973375931  1.0000
  S   S101      1.0  0.6525984240939691  0.9886304827057  0.2929599076386231  1.0000
  S   S102      1.0  0.6107294383502644  0.03954472265545128  0.215828550216004  1.0000
  S   S103      1.0  0.6996443078334516  0.09438027677836835  0.07810564439636858  1.0000
  C   C151      1.0  0.6343149589070433  0.05325039701630985  0.17684917453277293  1.0000
  C   C152      1.0  0.6553355229537243  0.018191379948387265  0.15540029067327366  1.0000
  C   C153      1.0  0.6746465905183214  0.030027722271340096  0.12438429811588803  1.0000
  C   C154      1.0  0.6732034372245879  0.07706529204369339  0.115165114345396  1.0000
  C   C155      1.0  0.6518865948542083  0.11188412320344199  0.13649904925578937  1.0000
  C   C156      1.0  0.6325530678337938  0.10003330641500341  0.1673697839075179  1.0000
  H   H101      1.0  0.6563522571579369  0.981839030742174  0.16257756189401373  1.0000
  H   H102      1.0  0.6911690447182615  0.003091766662986828  0.10791752400193655  1.0000
  H   H103      1.0  0.6510976882324357  0.1484681074106824  0.1295281799906749  1.0000
  H   H104      1.0  0.6168599517140773  0.12746164881459343  0.18412874402049884  1.0000
  Fe  Fe53      1.0  0.7366299877103872  0.976562178919508  0.49204617735539813  1.0000
  Fe  Fe54      1.0  0.71791832862576  0.9639332991859515  0.27912563884398267  1.0000
  S   S104      1.0  0.7873727456836142  0.002972918712808692  0.045292329215218974  1.0000
  S   S105      1.0  0.7976411964975147  0.994001647776253  0.4616772519300243  1.0000
  S   S106      1.0  0.780893474121284  0.9978298960191179  0.3030976071083429  1.0000
  C   C157      1.0  0.7909475962531121  0.9885524544796613  0.41716750606175834  1.0000
  C   C158      1.0  0.7498129710835072  0.985787117298182  0.40271350745321044  1.0000
  C   C159      1.0  0.7461200225310252  0.9860355131997096  0.3671672117244751  1.0000
  C   C160      1.0  0.7836831982035561  0.9896537197915265  0.3463743537247499  1.0000
  C   C161      1.0  0.8245542262916753  0.9910168486270585  0.3608409298281692  1.0000
  C   C162      1.0  0.8280542423420988  0.9896777198989604  0.39604970572284515  1.0000
  H   H105      1.0  0.7211019189839066  0.9850429833232788  0.41906084701080637  1.0000
  H   H106      1.0  0.7144515594880825  0.9855519319828243  0.3561587263672399  1.0000
  H   H107      1.0  0.8535983368527525  0.9932119623689832  0.3448004841093102  1.0000
  H   H108      1.0  0.859648614996169  0.9899655892825567  0.4070409317814585  1.0000
  Fe  Fe55      1.0  0.6397888416369133  0.9493769365318698  0.4987292884495904  1.0000
  Fe  Fe56      1.0  0.6287719010191961  0.9079032152659074  0.2858855540008145  1.0000
  S   S107      1.0  0.6862508714928882  0.9611732788668679  0.024711809462417467  1.0000
  S   S108      1.0  0.5739859491603916  0.9461709817440944  0.47579256474196985  1.0000
  S   S109      1.0  0.575134402875083  0.8735902791856294  0.31728687619413787  1.0000
  C   C163      1.0  0.5744263441807164  0.9324186813841369  0.4310282223179316  1.0000
  C   C164      1.0  0.6131735388123348  0.938352966847054  0.41193372492664704  1.0000
  C   C165      1.0  0.6132895287512733  0.9229016665738996  0.3763681399446206  1.0000
  C   C166      1.0  0.5748451167243745  0.9004104958147661  0.36027337446126984  1.0000
  C   C167      1.0  0.5360004598154561  0.8958734159014892  0.3792569916184765  1.0000
  C   C168      1.0  0.5356727662763604  0.9124851772785103  0.4144955001794086  1.0000
  H   H109      1.0  0.6430933396916779  0.9541152301291884  0.42466646632789384  1.0000
  H   H110      1.0  0.6434075964460912  0.9264697311124284  0.3617304380542192  1.0000
  H   H111      1.0  0.5063155501573147  0.8781568551984211  0.36694553273969976  1.0000
  H   H112      1.0  0.5057623694966796  0.907373167951393  0.42926877228116744  1.0000
  S   S110      1.0  0.7119351278767769  0.9649524274843433  0.22260119178333193  1.0000
  S   S111      1.0  0.6148926900668327  0.9029467992358757  0.2299550034071034  1.0000
  S   S112      1.0  0.6817225925364226  0.0217809554298114  0.5070470290121829  1.0000
  S   S113      1.0  0.6939505103169228  0.9052386895768887  0.4790055936964568  1.0000
  Fe  Fe57      1.0  0.8328852526519519  0.9391701993947716  0.7142669264357391  1.0000
  Fe  Fe58      1.0  0.7023867097043065  0.8967687201224326  0.5342416744344041  1.0000
  S   S114      1.0  0.8169142261812204  0.9176255245495639  0.7664529170129439  1.0000
  S   S115      1.0  0.8542868158997287  0.8838604998228341  0.6715494290938446  1.0000
  S   S116      1.0  0.7228953268392463  0.8270976501201321  0.548848673171467  1.0000
  C   C169      1.0  0.8172954824161914  0.8682387935099296  0.6378080655891418  1.0000
  C   C170      1.0  0.7866136704992845  0.8996446039070882  0.6324356819131669  1.0000
  C   C171      1.0  0.756799377717095  0.886342961155723  0.6057146951045493  1.0000
  C   C172      1.0  0.757894913569187  0.8418404018037933  0.5839841657568781  1.0000
  C   C173      1.0  0.7880990187500903  0.8099239283773088  0.5897388680954054  1.0000
  C   C174      1.0  0.818088756370055  0.8233908620120474  0.6163598849953638  1.0000
  H   H113      1.0  0.7863592575443034  0.9347013271797966  0.6483191509560271  1.0000
  H   H114      1.0  0.7327078862702973  0.9104531253100792  0.602152280119197  1.0000
  H   H115      1.0  0.7891271060191196  0.7752509192864121  0.573259899396942  1.0000
  H   H116      1.0  0.8416781281933959  0.7988090705875113  0.6204905777449716  1.0000
  Fe  Fe59      1.0  0.8216074424850534  0.04682640631179247  0.7368819799162862  1.0000
  Fe  Fe60      1.0  0.6889819903467979  0.0028213414894757705  0.5600203847575775  1.0000
  S   S117      1.0  0.8046488237693585  0.03554395328778526  0.7913279121587351  1.0000
  S   S118      1.0  0.8202784787826908  0.1196257454876779  0.7172434783250936  1.0000
  S   S119      1.0  0.6773738027606785  0.06020655580115708  0.6046928556625848  1.0000
  C   C175      1.0  0.7860116385659027  0.10708951163821823  0.6817345141612003  1.0000
  C   C176      1.0  0.7856320356409296  0.06233330113510682  0.660007586015039  1.0000
  C   C177      1.0  0.7526350367000503  0.04777457469379698  0.6358142566085623  1.0000
  C   C178      1.0  0.7208125643842803  0.07882264577723497  0.6327128568558367  1.0000
  C   C179      1.0  0.7230207600110325  0.12510320228204463  0.6527888980468721  1.0000
  C   C180      1.0  0.7556385970169728  0.139275852619539  0.6772936324080017  1.0000
  H   H117      1.0  0.8102729444408641  0.03830954339092152  0.6624091628557554  1.0000
  H   H118      1.0  0.7513299729854042  0.012143809495816171  0.6201781678256202  1.0000
  H   H119      1.0  0.6990526142442782  0.1497452915176254  0.6497329722436822  1.0000
  H   H120      1.0  0.7561161577220511  0.17418208998628515  0.6936500596731059  1.0000
  Fe  Fe61      1.0  0.7975158955670754  0.016254539415021085  0.9905018069501828  1.0000
  Fe  Fe62      1.0  0.8588912570650774  0.9873041116294896  0.7854167497039426  1.0000
  S   S120      1.0  0.7486170286258992  0.9654943195650922  0.5460768679300436  1.0000
  S   S121      1.0  0.8632467564791353  0.05212861110654998  0.9764651451887256  1.0000
  S   S122      1.0  0.913036940479899  0.9874725852659143  0.8218459437380443  1.0000
  C   C181      1.0  0.8762495410641411  0.03385378820045659  0.9333603403708821  1.0000
  C   C182      1.0  0.8434679352705129  0.01623546440948509  0.9095037447027319  1.0000
  C   C183      1.0  0.8544956070287572  0.0019553909143965598  0.8749975383797173  1.0000
  C   C184      1.0  0.8982849815355605  0.004251126961833052  0.8646880112051658  1.0000
  C   C185      1.0  0.9309741643834851  0.021441960839510443  0.8886086580203822  1.0000
  C   C186      1.0  0.9199537507845912  0.036949115957366274  0.9228014184699433  1.0000
  H   H121      1.0  0.809621438582571  0.014256913885441591  0.9175050121900812  1.0000
  H   H122      1.0  0.8291681587364684  0.9886322352871453  0.8565235763122772  1.0000
  H   H123      1.0  0.9648543058714858  0.02322841512823004  0.8806297312121951  1.0000
  H   H124      1.0  0.9454152700922522  0.05053739265509627  0.9410622766854857  1.0000
  Fe  Fe63      1.0  0.703922891865246  0.97731507189242  0.9715524346500244  1.0000
  Fe  Fe64      1.0  0.7640715353685285  0.9666709984348199  0.7678272522720602  1.0000
  S   S123      1.0  0.6433611281044033  0.9328588064553944  0.5527724029118524  1.0000
  S   S124      1.0  0.6470240982272294  0.9605068753684698  0.9365042216581041  1.0000
  S   S125      1.0  0.6936657369321878  0.9443421474787943  0.77879976352652  1.0000
  C   C187      1.0  0.6614406748713261  0.9589119388087521  0.8930804274420177  1.0000
  C   C188      1.0  0.704973025966952  0.9603335310611509  0.8820922486983074  1.0000
  C   C189      1.0  0.7152697167792512  0.9564472859701318  0.8468701050912943  1.0000
  C   C190      1.0  0.6819665318151984  0.9509792763653362  0.8228666450494799  1.0000
  C   C191      1.0  0.6386071712526372  0.950539586201403  0.8340056544915488  1.0000
  C   C192      1.0  0.6284112038127418  0.9547040492947811  0.8690802380036846  1.0000
  H   H125      1.0  0.7306535976895303  0.9639171307926162  0.9005898042569664  1.0000
  H   H126      1.0  0.7488443044032896  0.9568011563377237  0.8383124028111069  1.0000
  H   H127      1.0  0.6128791756779063  0.9474507820779703  0.815579171523408  1.0000
  H   H128      1.0  0.5948932483328659  0.954849321188151  0.8776977110997701  1.0000
  S   S126      1.0  0.8794656798770831  0.004897749068049961  0.7330744819978365  1.0000
  S   S127      1.0  0.7760543366278957  0.9821209430536584  0.7140518455997107  1.0000
  S   S128      1.0  0.7373745467658399  0.05292076322584727  0.9882556675246321  1.0000
  Fe  Fe65      1.0  0.6444445094597377  0.2399928826440778  0.2738554893883167  1.0000
  Fe  Fe66      1.0  0.6831876975877768  0.2762158231383953  0.07372787504744771  1.0000
  S   S129      1.0  0.6372856118729046  0.24376518722016804  0.3305734016211983  1.0000
  S   S130      1.0  0.713496807353652  0.23759504354742944  0.2565426214520179  1.0000
  S   S131      1.0  0.7389104475102097  0.2992359472113346  0.10923898392604903  1.0000
  C   C193      1.0  0.7201101424512112  0.25261519223818674  0.21505077617487878  1.0000
  C   C194      1.0  0.6845150151044056  0.24675355854509995  0.19316610312721672  1.0000
  C   C195      1.0  0.6903049560678088  0.25949976626417204  0.15991633035932473  1.0000
  C   C196      1.0  0.7315108520634358  0.278567471493508  0.14903794478566113  1.0000
  C   C197      1.0  0.7670507567343853  0.2840616716693969  0.17088751139343517  1.0000
  C   C198      1.0  0.7613695915520299  0.2708750484441431  0.20389261470567055  1.0000
  H   H129      1.0  0.6526441862089305  0.23225680500787504  0.20181274501408497  1.0000
  H   H130      1.0  0.6628842386221766  0.2553902816215068  0.14295626058650512  1.0000
  H   H131      1.0  0.7988674819797825  0.2992180592404221  0.16248845697363778  1.0000
  H   H132      1.0  0.7887767526687157  0.27578066720385586  0.22100228465160487  1.0000
  Fe  Fe67      1.0  0.5482840137158761  0.2406095620468598  0.2640100030442518  1.0000
  Fe  Fe68      1.0  0.5907935245518727  0.23111532915673472  0.05768665457219324  1.0000
  S   S132      1.0  0.5331433153910305  0.24288806443414934  0.32010525032886505  1.0000
  S   S133      1.0  0.49010241660935566  0.24287461004121802  0.232102194750615  1.0000
  S   S134      1.0  0.5255209439530767  0.19725082343041045  0.07350177554891646  1.0000
  C   C199      1.0  0.5008914064236782  0.23506137422683793  0.18795982356198815  1.0000
  C   C200      1.0  0.5436639594131701  0.23625997413493494  0.17521863008875593  1.0000
  C   C201      1.0  0.5514311463585344  0.22678208392330568  0.13973285499462662  1.0000
  C   C202      1.0  0.5163822558890497  0.21485201926492437  0.1172477685258837  1.0000
  C   C203      1.0  0.47369181621255374  0.21380138668382642  0.13004460294853137  1.0000
  C   C204      1.0  0.46596980266722376  0.2245703408724946  0.16534304265901945  1.0000
  H   H133      1.0  0.5706979217352557  0.24394639598600065  0.19270915495560637  1.0000
  H   H134      1.0  0.5844587844170468  0.22671662383285351  0.1299189208747764  1.0000
  H   H135      1.0  0.44647429837311464  0.20442650483463787  0.11278127133764304  1.0000
  H   H136      1.0  0.43284274169420006  0.22363860386450796  0.1751150402464332  1.0000
  Fe  Fe69      1.0  0.6699516693787013  0.2879160623679464  0.5214861629207777  1.0000
  Fe  Fe70      1.0  0.5914928367255854  0.2991874770224019  0.32630251047013203  1.0000
  S   S135      1.0  0.619396132729087  0.30665509088341736  0.0801862865712355  1.0000
  S   S136      1.0  0.6763871542467782  0.3620889251332251  0.5035351984881933  1.0000
  S   S137      1.0  0.5930254397650239  0.3714268142832271  0.36038567057896964  1.0000
  C   C205      1.0  0.6537717359772931  0.3631776995159477  0.46333090542509936  1.0000
  C   C206      1.0  0.6365543736871417  0.3198174376738425  0.4430536173658477  1.0000
  C   C207      1.0  0.6182389706056667  0.32208776122829974  0.41116250920681896  1.0000
  C   C208      1.0  0.617003671940737  0.3677478402552996  0.3996127625258783  1.0000
  C   C209      1.0  0.634767857066578  0.41092232889702807  0.41967976681358454  1.0000
  C   C210      1.0  0.6536307572696501  0.4085017322237654  0.45124371344638403  1.0000
  H   H137      1.0  0.6371133008393483  0.2845890953758481  0.4519065213421878  1.0000
  H   H138      1.0  0.6038568254376666  0.2886273770952048  0.3960905724468451  1.0000
  H   H139      1.0  0.6333320181941181  0.44649639778185524  0.41133350033582383  1.0000
  H   H140      1.0  0.6673370397101827  0.4420547558655574  0.46674272281496076  1.0000
  Fe  Fe71      1.0  0.688116806594827  0.18220686482980675  0.5034023166039812  1.0000
  Fe  Fe72      1.0  0.5802316522614386  0.1865891732960634  0.318613216005597  1.0000
  S   S138      1.0  0.6537604841933862  0.19871630730051137  0.05708507847753097  1.0000
  S   S139      1.0  0.7072024078233814  0.12582684747116168  0.4608194694601604  1.0000
  S   S140      1.0  0.5734583647062262  0.11585683265737678  0.34199577379078727  1.0000
  C   C211      1.0  0.6707919046072442  0.12302780567560134  0.4273502425260869  1.0000
  C   C212      1.0  0.6548930737637224  0.16601287872803994  0.4204650419770175  1.0000
  C   C213      1.0  0.6243436527480926  0.16371139941445456  0.3946112261254018  1.0000
  C   C214      1.0  0.6104850764739705  0.11859786950994078  0.37503023909669286  1.0000
  C   C215      1.0  0.6261639974678884  0.07543541368870166  0.38197190251621826  1.0000
  C   C216      1.0  0.6564794465667984  0.07769283534818783  0.4080750421483397  1.0000
  H   H141      1.0  0.6665660034262533  0.2012318807529887  0.4348048127513473  1.0000
  H   H142      1.0  0.6112817798350793  0.19684636636856112  0.3900455942730803  1.0000
  H   H143      1.0  0.6151399433835657  0.0403298324230672  0.36707789597877083  1.0000
  H   H144      1.0  0.6684887575769285  0.04434740022417394  0.4135521597127143  1.0000
  S   S141      1.0  0.6037822928055167  0.30119740245548243  0.2701801495148821  1.0000
  S   S142      1.0  0.5902621160115529  0.17912811102901216  0.2615780512918051  1.0000
  S   S143      1.0  0.627554000565296  0.2187526384304075  0.5015314696170061  1.0000
  S   S144      1.0  0.7309791860580874  0.2521619691634971  0.519167748757063  1.0000
  Fe  Fe73      1.0  0.6455602069783052  0.34923801518048947  0.7646493503316805  1.0000
  Fe  Fe74      1.0  0.7141106926393277  0.23827839922328486  0.5728689969612066  1.0000
  S   S145      1.0  0.6512312483243212  0.34102378987169857  0.8201825150994257  1.0000
  S   S146      1.0  0.701698491694104  0.390633883795795  0.7395075983903467  1.0000
  S   S147      1.0  0.7677435031545016  0.2531792296457933  0.611606666132678  1.0000
  C   C217      1.0  0.7195608478819213  0.35424562242966573  0.7028383085226162  1.0000
  C   C218      1.0  0.6904847599656768  0.31812669164490615  0.684394073325536  1.0000
  C   C219      1.0  0.7054444827971244  0.28646476203289595  0.6567379586372319  1.0000
  C   C220      1.0  0.7495586170825675  0.29075189107176413  0.647491457881828  1.0000
  C   C221      1.0  0.7787398418687377  0.32681850761551523  0.6659744655919626  1.0000
  C   C222      1.0  0.7635557075981727  0.3593552779504563  0.6930714189784783  1.0000
  H   H145      1.0  0.6562855155785635  0.3149655554809403  0.6910948711912637  1.0000
  H   H146      1.0  0.6828547064266434  0.25822298630625795  0.6428468825756735  1.0000
  H   H147      1.0  0.8129527180256109  0.3301670212929082  0.6591638447674399  1.0000
  H   H148      1.0  0.786253917565628  0.38741955177342646  0.7071107872602904  1.0000
  Fe  Fe75      1.0  0.5560820434266426  0.29122080446580867  0.7582667912021868  1.0000
  Fe  Fe76      1.0  0.6194451193306476  0.2072680531193818  0.5566404781564245  1.0000
  S   S148      1.0  0.5533903433201337  0.27830490419176357  0.8133130228438104  1.0000
  S   S149      1.0  0.5013637689151913  0.2552824651570411  0.7244704732313489  1.0000
  S   S150      1.0  0.5532843581207926  0.1752579231089939  0.5730253215222909  1.0000
  C   C223      1.0  0.5181833502091452  0.22953734899990685  0.6837991813763993  1.0000
  C   C224      1.0  0.5596394600164376  0.24379274955850505  0.6707779814548003  1.0000
  C   C225      1.0  0.571207203193421  0.2258096745181124  0.6370514523992203  1.0000
  C   C226      1.0  0.5410352807022986  0.1943717329691843  0.6161538150591634  1.0000
  C   C227      1.0  0.5000564423764716  0.17903596399464128  0.6295102062651603  1.0000
  C   C228      1.0  0.48873824029775037  0.1965271481280073  0.663293256940888  1.0000
  H   H149      1.0  0.582034630926911  0.2704279620777079  0.6860158202480453  1.0000
  H   H150      1.0  0.6030438032393789  0.23727557113388364  0.6270586109965963  1.0000
  H   H151      1.0  0.4764048873198575  0.1548615483644582  0.6135659880956248  1.0000
  H   H152      1.0  0.45678974949529316  0.18526148113159202  0.6733160868054662  1.0000
  Fe  Fe77      1.0  0.6290710451857519  0.3192084718078174  0.02536951921593289  1.0000
  Fe  Fe78      1.0  0.5817571326540151  0.35728561962754135  0.8236058433285076  1.0000
  S   S151      1.0  0.6560903613910614  0.28053317847762393  0.5768008913020686  1.0000
  S   S152      1.0  0.6138404392351994  0.3923442442643452  0.01405871978635731  1.0000
  S   S153      1.0  0.5564936009181005  0.4114475803807114  0.8647083893096981  1.0000
  C   C229      1.0  0.5972687770678365  0.3956192469260653  0.972393122677687  1.0000
  C   C230      1.0  0.5968465201618626  0.35518816302216116  0.9464975748086757  1.0000
  C   C231      1.0  0.5851836973403133  0.35996249705969774  0.9129791411516037  1.0000
  C   C232      1.0  0.5730031533939016  0.40477316105402217  0.9057548786938576  1.0000
  C   C233      1.0  0.5731072685839662  0.44485676603925306  0.9317224753524567  1.0000
  C   C234      1.0  0.5854664340863088  0.4403611338645277  0.9649170114178736  1.0000
  H   H153      1.0  0.6059756465444874  0.3205182655396843  0.9521461256402097  1.0000
  H   H154      1.0  0.5850552523281443  0.3288801235832839  0.8928997473259201  1.0000
  H   H155      1.0  0.5640143426665143  0.4796840423887172  0.9261722260381289  1.0000
  H   H156      1.0  0.5863888453645768  0.47190279743510644  0.9847689415484626  1.0000
  Fe  Fe79      1.0  0.6611928812603788  0.22037078926494402  0.0042538858038707605  1.0000
  Fe  Fe80      1.0  0.622457774808807  0.26286437663173423  0.8043503467071882  1.0000
  S   S154      1.0  0.6765280305335254  0.1643458551612813  0.5569724803759932  1.0000
  S   S155      1.0  0.6871682444010319  0.16627001495681348  0.9639374221618846  1.0000
  S   S156      1.0  0.648378736001646  0.19301019950035325  0.8120437447304778  1.0000
  C   C235      1.0  0.6762315098841566  0.17531984983890858  0.9221379961299259  1.0000
  C   C236      1.0  0.6597118449909258  0.21818350529325237  0.9154055024007675  1.0000
  C   C237      1.0  0.6510296035983214  0.2242037021147425  0.8814732326482608  1.0000
  C   C238      1.0  0.6587939890468164  0.18718965450144154  0.8545987271502486  1.0000
  C   C239      1.0  0.6751731065406411  0.1444897985730318  0.8614830677778702  1.0000
  C   C240      1.0  0.6840149134028299  0.13865134920944122  0.8951929216635395  1.0000
  H   H157      1.0  0.6540056564378719  0.2466796947690213  0.9362703719342669  1.0000
  H   H158      1.0  0.6384185364251831  0.2572952461520206  0.8761561876251953  1.0000
  H   H159      1.0  0.6811188172556637  0.11572456175997381  0.8408488749617096  1.0000
  H   H160      1.0  0.6966851880368267  0.10546517555543211  0.9004188207237407  1.0000
  S   S157      1.0  0.578444018031435  0.3722017603053498  0.7692009689782702  1.0000
  S   S158      1.0  0.6228369907065684  0.2694570866293109  0.7486008269699145  1.0000
  S   S159      1.0  0.5953779450889876  0.24596301372469043  0.0031897545700567687  1.0000
  S   S160      1.0  0.6955825388264115  0.2953996165225039  0.020762671330890603  1.0000
  Fe  Fe81      1.0  0.5781661197482962  0.6001560915791657  0.38401901189659826  1.0000
  Fe  Fe82      1.0  0.5152060294041614  0.5262774022206749  0.18924363608226535  1.0000
  S   S161      1.0  0.5963932298769177  0.6299074303931533  0.43801217719299235  1.0000
  S   S162      1.0  0.6275313077479994  0.6149401676777142  0.34281005432201317  1.0000
  S   S163      1.0  0.5715069391053541  0.4888864032618745  0.20235826892558473  1.0000
  C   C241      1.0  0.6125777556705021  0.5780033064943666  0.3043516900603618  1.0000
  C   C242      1.0  0.5709533367446042  0.5520774045859884  0.30091572332867766  1.0000
  C   C243      1.0  0.558440075610816  0.5241857690805727  0.2695434064440647  1.0000
  C   C244      1.0  0.5880547466305422  0.5212072049405858  0.24196225417357908  1.0000
  C   C245      1.0  0.629944433699228  0.546519910488863  0.24557993069331907  1.0000
  C   C246      1.0  0.6421629771294026  0.5751738287282748  0.27675239710758426  1.0000
  H   H161      1.0  0.5480865978651017  0.5545470093943123  0.3221750883682266  1.0000
  H   H162      1.0  0.5257182055217645  0.5054325563120212  0.26655021767149556  1.0000
  H   H163      1.0  0.6523999374785844  0.5453381177927721  0.2240013149091169  1.0000
  H   H164      1.0  0.6742827711448072  0.5956620326209592  0.27930556507230886  1.0000
  Fe  Fe83      1.0  0.4897411001686588  0.5528994201233584  0.4051657058558984  1.0000
  Fe  Fe84      1.0  0.4271405425472598  0.5616560493549603  0.21007989697366414  1.0000
  S   S164      1.0  0.5004007841528172  0.5776572635060884  0.4611927250872152  1.0000
  S   S165      1.0  0.4254963490680242  0.5108150685776476  0.3898576177929325  1.0000
  S   S166      1.0  0.3696364988778967  0.5587315780039486  0.2463390469644371  1.0000
  C   C247      1.0  0.4095733906668371  0.5251700341487933  0.350446105805605  1.0000
  C   C248      1.0  0.4403079940905987  0.5472219334908761  0.3288301073854525  1.0000
  C   C249      1.0  0.42805813786914104  0.5572144818856213  0.29680330057090165  1.0000
  C   C250      1.0  0.384881308386301  0.5455854203527188  0.286348194167529  1.0000
  C   C251      1.0  0.35405023074849695  0.5232606359973051  0.30794723103908783  1.0000
  C   C252      1.0  0.3664663704337511  0.5128239531308303  0.3399133467695057  1.0000
  H   H165      1.0  0.4737864878786518  0.5556411366973126  0.3363826439501789  1.0000
  H   H166      1.0  0.4520176381518796  0.5744364396012678  0.2804111016258122  1.0000
  H   H167      1.0  0.3208031322411415  0.5129091987093979  0.29984253060967037  1.0000
  H   H168      1.0  0.34267006078681855  0.49511831926999506  0.3563892057924405  1.0000
  Fe  Fe85      1.0  0.562179811407084  0.7111155378621081  0.6493486651873246  1.0000
  Fe  Fe86      1.0  0.5280348592010137  0.6490438448638791  0.44356833205649604  1.0000
  S   S167      1.0  0.49613894066472286  0.5958378256246064  0.2193236785591779  1.0000
  S   S168      1.0  0.5796088106662246  0.7716422388783144  0.6172636141700294  1.0000
  S   S169      1.0  0.5128705065005932  0.7241615323404105  0.4657111380870509  1.0000
  C   C253      1.0  0.5584518556827762  0.7581717429654553  0.5759474700253739  1.0000
  C   C254      1.0  0.5428789320086311  0.7097345661045598  0.5626124726174688  1.0000
  C   C255      1.0  0.5283596112856002  0.6991088378505559  0.5287228934011186  1.0000
  C   C256      1.0  0.5283328663296406  0.7372039904475916  0.5085858248562221  1.0000
  C   C257      1.0  0.5424211803234507  0.7858519711287322  0.5223377159851923  1.0000
  C   C258      1.0  0.5580621414723567  0.7962210236617349  0.5558704852494256  1.0000
  H   H169      1.0  0.5431169828357323  0.6802444129553695  0.578028169549639  1.0000
  H   H170      1.0  0.5172557034777502  0.6614801355554061  0.5182350975446184  1.0000
  H   H171      1.0  0.5422521311546407  0.8154405192343805  0.5068569293128196  1.0000
  H   H172      1.0  0.5699765550504389  0.8337413481300704  0.5662144575361578  1.0000
  Fe  Fe87      1.0  0.5569779199890798  0.6044237152867513  0.6613206912273748  1.0000
  Fe  Fe88      1.0  0.5672513896341405  0.5558513341839895  0.4498700802464408  1.0000
  S   S170      1.0  0.4470300788562689  0.48949966025393543  0.18565686289641992  1.0000
  S   S171      1.0  0.5728357854186081  0.5290200529184599  0.6395841538230735  1.0000
  S   S172      1.0  0.6035664716323215  0.5112325202014212  0.4795855201502395  1.0000
  C   C259      1.0  0.5793030846703272  0.5234796455502195  0.5948668645922242  1.0000
  C   C260      1.0  0.5637112870882245  0.5572688047417902  0.576125587095107  1.0000
  C   C261      1.0  0.5700727313832704  0.5530948660034358  0.5404367250303181  1.0000
  C   C262      1.0  0.59305448011954  0.5158588690245711  0.523708198519631  1.0000
  C   C263      1.0  0.608492518322379  0.4819726567461977  0.5423745379832234  1.0000
  C   C264      1.0  0.6011841031008299  0.48541874716183564  0.5778685609971972  1.0000
  H   H173      1.0  0.5462967462278273  0.5862355666818413  0.5889972980378668  1.0000
  H   H174      1.0  0.5576906437544671  0.5790157192134728  0.5260159166558127  1.0000
  H   H175      1.0  0.6262066168619642  0.4530183710572171  0.5293835759592129  1.0000
  H   H176      1.0  0.613115355798323  0.4590268609963264  0.5921451624282028  1.0000
  S   S173      1.0  0.5122059595732033  0.626279897958641  0.388303322919926  1.0000
  S   S174      1.0  0.5541710278642217  0.5239812810836124  0.3951745150880863  1.0000
  S   S175      1.0  0.5087873771649872  0.6482576839025302  0.641547120970436  1.0000
  S   S176      1.0  0.6117268221246  0.6656262916313054  0.6640474499794515  1.0000
  Fe  Fe89      1.0  0.5371469241250756  0.6508098756765346  0.9181022336491935  1.0000
  Fe  Fe90      1.0  0.5874969888054022  0.6855959033687462  0.7176275515301169  1.0000
  S   S177      1.0  0.5171774317960861  0.6343234478409236  0.970617200363967  1.0000
  S   S178      1.0  0.6039254074035629  0.6379853368954382  0.9001821353358337  1.0000
  S   S179      1.0  0.6356495801357526  0.7162809674875064  0.758211259187322  1.0000
  C   C265      1.0  0.6119990981511649  0.6597444530900294  0.860723348250712  1.0000
  C   C266      1.0  0.578805673250749  0.6512107241801282  0.8365584260463108  1.0000
  C   C267      1.0  0.5862194135089166  0.667360616751365  0.8044481596422486  1.0000
  C   C268      1.0  0.6263152481756337  0.6932621545031008  0.7971080129213428  1.0000
  C   C269      1.0  0.659151418338688  0.7023711210225638  0.8214996266128844  1.0000
  C   C270      1.0  0.6521026030329679  0.6850652836247768  0.8531677773132156  1.0000
  H   H177      1.0  0.547798737457873  0.631302228102852  0.8423090904946591  1.0000
  H   H178      1.0  0.5606496297049538  0.6607131595765825  0.7857695630447994  1.0000
  H   H179      1.0  0.6901390269813598  0.722680789094273  0.815897701506572  1.0000
  H   H180      1.0  0.6775946417261244  0.6915419977579162  0.8719322713891189  1.0000
  Fe  Fe91      1.0  0.45477074971728026  0.694890894938812  0.9064089954581069  1.0000
  Fe  Fe92      1.0  0.4936271039581025  0.6700035643028652  0.6971422575017834  1.0000
  S   S180      1.0  0.4277012863202142  0.6827968170704466  0.9582796261636606  1.0000
  S   S181      1.0  0.413097153829801  0.7326253075267335  0.87563770753997  1.0000
  S   S182      1.0  0.42662507319865184  0.6846166720876123  0.7147973105100394  1.0000
  C   C271      1.0  0.41765114153484495  0.7188116679027114  0.8311094367524059  1.0000
  C   C272      1.0  0.45072397499461375  0.6923315093355313  0.8159842982165078  1.0000
  C   C273      1.0  0.4543754664414202  0.6829830276079818  0.780117427772117  1.0000
  C   C274      1.0  0.4242656253913243  0.69891873537631  0.7594948305901155  1.0000
  C   C275      1.0  0.39078576039601065  0.7245401185603999  0.7747177500666704  1.0000
  C   C276      1.0  0.3877129735150272  0.734853903005634  0.8104816452138861  1.0000
  H   H181      1.0  0.4737747833856513  0.6795938781755524  0.8318640823477623  1.0000
  H   H182      1.0  0.47988757538299903  0.6625335476788887  0.7685008094611114  1.0000
  H   H183      1.0  0.3673623292015509  0.7369302638546635  0.7589353424587761  1.0000
  H   H184      1.0  0.36190184879972664  0.755167556242176  0.8221652748043677  1.0000
  Fe  Fe93      1.0  0.49164489080635854  0.6202615829745852  0.16768095836147978  1.0000
  Fe  Fe94      1.0  0.49502233011389607  0.7095596899118846  0.9767069154128043  1.0000
  S   S183      1.0  0.5427256642869522  0.7365826655985561  0.7032321758002031  1.0000
  S   S184      1.0  0.5216393087777798  0.6974462952288452  0.16389258788966599  1.0000
  S   S185      1.0  0.5112464815956743  0.7697599510750237  0.020079928655687862  1.0000
  C   C277      1.0  0.512852273032354  0.7174181744309802  0.12462350286907764  1.0000
  C   C278      1.0  0.4977136978757355  0.6839197221234237  0.09626356673442737  1.0000
  C   C279      1.0  0.4954536053084372  0.7000643927544523  0.06407733303473329  1.0000
  C   C280      1.0  0.5086709784267618  0.7495442829679746  0.06040707714317484  1.0000
  C   C281      1.0  0.5221314205560104  0.783200934755568  0.08903197510968908  1.0000
  C   C282      1.0  0.5240658334754307  0.7671961502379805  0.12113343305738566  1.0000
  H   H185      1.0  0.48876810591069064  0.6454394966315355  0.09896941575187412  1.0000
  H   H186      1.0  0.4845352496051515  0.6740208153511063  0.04204966828034662  1.0000
  H   H187      1.0  0.5319661252561357  0.8215488739737768  0.08627899950520734  1.0000
  H   H188      1.0  0.5354312664026036  0.7932093213497229  0.14310947073395797  1.0000
  Fe  Fe95      1.0  0.44648316960689166  0.5221089293188523  0.13667761176119853  1.0000
  Fe  Fe96      1.0  0.4522364508515976  0.6091844517568354  0.9461902955631412  1.0000
  S   S186      1.0  0.5367950960707558  0.6202508539513989  0.7166220458288195  1.0000
  S   S187      1.0  0.4157800710457442  0.46876539708202003  0.09410318980767429  1.0000
  S   S188      1.0  0.4088867013160241  0.5393397272139797  0.9496188841287228  1.0000
  C   C283      1.0  0.4130893116255297  0.4905310540036485  0.05482811332933868  1.0000
  C   C284      1.0  0.4345296877830593  0.5364561909477263  0.049348553675733875  1.0000
  C   C285      1.0  0.4326345049289001  0.5522602235352583  0.017087944094306806  1.0000
  C   C286      1.0  0.4089548101345007  0.5222832136892137  0.9907252863042704  1.0000
  C   C287      1.0  0.38654038878565977  0.4770579309949916  0.9966955521494034  1.0000
  C   C288      1.0  0.3891659693626282  0.4608443030527969  0.028580279741999615  1.0000
  H   H189      1.0  0.45282031387657673  0.5594987024016795  0.06976471321956978  1.0000
  H   H190      1.0  0.4493928535611381  0.5875548843918157  0.01267794711172443  1.0000
  H   H191      1.0  0.367182313471796  0.4544440981110949  0.9767192720985554  1.0000
  H   H192      1.0  0.37223884465658724  0.42545452117555094  0.03299149924601519  1.0000
  S   S189      1.0  0.5201332028045812  0.7281688783070397  0.9256831590435715  1.0000
  S   S190      1.0  0.4744316848581028  0.6190392678262278  0.8927118422145064  1.0000
  S   S191      1.0  0.4209233539668837  0.5917192264683084  0.160563815295516  1.0000
  S   S192      1.0  0.5166250902204128  0.5534511092094299  0.13822620070586056  1.0000
  Fe  Fe97      1.0  0.047327297418605196  0.03324094708723102  0.21942403419736145  1.0000
  Fe  Fe98      1.0  0.11182129804352203  0.9352747938924022  0.026008158392375247  1.0000
  S   S193      1.0  0.03777045781480348  0.02674041092850743  0.2751361296204178  1.0000
  S   S194      1.0  0.11736436430699393  0.04315884683590454  0.20388592517898818  1.0000
  S   S195      1.0  0.1626585572329622  0.9243268156581195  0.06251133969446387  1.0000
  C   C289      1.0  0.1289158963975643  0.005468683629283433  0.1661944280046499  1.0000
  C   C290      1.0  0.09564003467361526  0.9845386238915594  0.14363068824207792  1.0000
  C   C291      1.0  0.10575857462248095  0.9571501581735458  0.11234458002551762  1.0000
  C   C292      1.0  0.1490853987495553  0.9508393913618445  0.10371361954408309  1.0000
  C   C293      1.0  0.18212044098357993  0.9698788442930653  0.12697154584277515  1.0000
  C   C294      1.0  0.17208522631887058  0.9977216186745519  0.15808957761091724  1.0000
  H   H193      1.0  0.062296860535420606  0.9907270362747873  0.1496847741914471  1.0000
  H   H194      1.0  0.08007139750690784  0.9414794317496007  0.09470065057795685  1.0000
  H   H195      1.0  0.21568961003231202  0.9651138103305748  0.12026906924203518  1.0000
  H   H196      1.0  0.19791197061884658  0.014179027087905638  0.1754968238321335  1.0000
  Fe  Fe99      1.0  0.9509434392127508  0.030736696274324515  0.2074223654747196  1.0000
  Fe  Fe100     1.0  0.01642271581098753  0.9343809393566733  0.010715581859983558  1.0000
  S   S196      1.0  0.9329663188719162  0.025650768907947707  0.262497321742992  1.0000
  S   S197      1.0  0.8970735906407906  0.030969261669488546  0.17070803265601642  1.0000
  S   S198      1.0  0.9462665696402771  0.9230284762151157  0.02586654108950226  1.0000
  C   C295      1.0  0.9114579192354373  0.003005024288631475  0.13009944181409328  1.0000
  C   C296      1.0  0.9549409115230454  0.9968304420010732  0.1219779389888247  1.0000
  C   C297      1.0  0.9659235371714812  0.9718877840312476  0.09001166382225634  1.0000
  C   C298      1.0  0.9334359300801058  0.9537164038817476  0.066090374660833  1.0000
  C   C299      1.0  0.8900962155707708  0.960790237135642  0.07401671721821934  1.0000
  C   C300      1.0  0.8790956875047465  0.9856211086804212  0.10596969998882022  1.0000
  H   H197      1.0  0.9801307039453311  0.011127456347788112  0.14030673619920497  1.0000
  H   H198      1.0  0.9993055562055985  0.965738977036322  0.08426439225100735  1.0000
  H   H199      1.0  0.8649632063676663  0.9468924341126002  0.05548251177934249  1.0000
  H   H200      1.0  0.8454217496439683  0.9902553860251846  0.11214758466329977  1.0000
  Fe  Fe101     1.0  0.05990172832709262  0.0680791924548867  0.47326215934031657  1.0000
  Fe  Fe102     1.0  0.990754235107194  0.08191962360015381  0.2740555940227103  1.0000
  S   S199      1.0  0.0660615363132322  0.9927599966973464  0.03613030864431188  1.0000
  S   S200      1.0  0.09602477198313397  0.12715108824570187  0.44610717802733424  1.0000
  S   S201      1.0  0.9948249692594577  0.14866859290563283  0.3136607126154276  1.0000
  C   C301      1.0  0.06812270570374168  0.1326578625743018  0.4091516335818106  1.0000
  C   C302      1.0  0.04628336421456769  0.09079556031747416  0.3900118699078434  1.0000
  C   C303      1.0  0.02469376379714472  0.09530141222266764  0.3599542619720584  1.0000
  C   C304      1.0  0.024044380871883986  0.14182380675406137  0.3496493436547161  1.0000
  C   C305      1.0  0.04546957594303125  0.18369703375134883  0.36901404782497327  1.0000
  C   C306      1.0  0.06804676950949529  0.17902649099591095  0.3984791857641139  1.0000
  H   H201      1.0  0.046332570140217966  0.05488006822592695  0.39823318169429633  1.0000
  H   H202      1.0  0.007318701304179109  0.06298074758116812  0.34548196453341884  1.0000
  H   H203      1.0  0.04448348907532318  0.2198752513432236  0.361374660178154  1.0000
  H   H204      1.0  0.08434160424333603  0.21160805443353503  0.4135078670859329  1.0000
  Fe  Fe103     1.0  0.9908117325291917  0.9798935198910357  0.4673484318134249  1.0000
  Fe  Fe104     1.0  0.9816493041100363  0.9712261519410124  0.2578047714154219  1.0000
  S   S202      1.0  0.06039010026394065  0.8750351519223845  0.006057774768926993  1.0000
  S   S203      1.0  0.9400993174200827  0.9284832507496308  0.4375169510711574  1.0000
  S   S204      1.0  0.9665713970269039  0.899996415901315  0.27816486576361665  1.0000
  C   C307      1.0  0.9470513051980574  0.9270883753576005  0.3932768437880978  1.0000
  C   C308      1.0  0.9881493160831796  0.9395121682941241  0.3789969611673212  1.0000
  C   C309      1.0  0.9940015436602093  0.933086061565886  0.3432823925696433  1.0000
  C   C310      1.0  0.9585998587474612  0.9147764976626824  0.32212906786801776  1.0000
  C   C311      1.0  0.9171108729084361  0.9053593579312889  0.3363493437074401  1.0000
  C   C312      1.0  0.9114237236177419  0.910829867780782  0.3719633986854505  1.0000
  H   H205      1.0  0.015694653207631637  0.9523627069797271  0.3953496126255329  1.0000
  H   H206      1.0  0.026073976224080475  0.9408346243451522  0.3321496723558779  1.0000
  H   H207      1.0  0.8894508945520967  0.8931827431920976  0.31985374844824577  1.0000
  H   H208      1.0  0.8793516792222185  0.9024761059900506  0.3828297940984422  1.0000
  S   S205      1.0  0.004201161913708562  0.0927102791988954  0.21915279517656705  1.0000
  S   S206      1.0  0.9956472189439041  0.9714863215191674  0.20199506644914988  1.0000
  S   S207      1.0  0.9871357130030359  0.061078154180616906  0.4765076463404223  1.0000
  S   S208      1.0  0.06290622642607357  0.9870083786234716  0.4583343807928366  1.0000
  Fe  Fe105     1.0  0.13637141689413013  0.03901354623008224  0.714046999994367  1.0000
  Fe  Fe106     1.0  0.06544690122085006  0.9859579576835458  0.5149777443111194  1.0000
  S   S209      1.0  0.1521297521690046  0.013279867024435177  0.763235296378789  1.0000
  S   S210      1.0  0.1878638877079919  0.04268654654758208  0.6733513650196681  1.0000
  S   S211      1.0  0.10965935230631874  0.937144560883219  0.5330874382802824  1.0000
  C   C313      1.0  0.16516462004585208  0.011639634453503689  0.6352248671921519  1.0000
  C   C314      1.0  0.12311764821092086  0.01862356801229126  0.6263397530250661  1.0000
  C   C315      1.0  0.10578324860200383  0.9955027844869235  0.5949150923353224  1.0000
  C   C316      1.0  0.12985173648628234  0.963800457088702  0.5731848714389978  1.0000
  C   C317      1.0  0.17105029512207826  0.9551533659614879  0.5828629894805188  1.0000
  C   C318      1.0  0.18918536499841476  0.9800892409283044  0.6134795064769341  1.0000
  H   H209      1.0  0.10465909679835339  0.04325422608746976  0.6431125599466774  1.0000
  H   H210      1.0  0.07390461278204863  0.002278829036418628  0.5875272994146257  1.0000
  H   H211      1.0  0.18917112029955807  0.9295504677911062  0.5666263253363208  1.0000
  H   H212      1.0  0.22142060535341712  0.9740788076603657  0.6206623617401332  1.0000
  Fe  Fe107     1.0  0.04492913668117726  0.05626263274163179  0.7366994633542436  1.0000
  Fe  Fe108     1.0  0.9959893692511719  0.05387213685687442  0.5315941007754366  1.0000
  S   S212      1.0  0.0523786465704692  0.03261445992238876  0.7883454454907239  1.0000
  S   S213      1.0  0.9814180963713878  0.08018670053683508  0.7241880969166603  1.0000
  S   S214      1.0  0.948140685335219  0.0880826438341078  0.5682217494752568  1.0000
  C   C319      1.0  0.9734418614729148  0.08044300207804156  0.6804298132557514  1.0000
  C   C320      1.0  0.008547002861208464  0.08220561971637608  0.6571635209128313  1.0000
  C   C321      1.0  0.0010979250846074873  0.08335557558113926  0.622230606053928  1.0000
  C   C322      1.0  0.9585697180553339  0.0829152659843313  0.6108756871400622  1.0000
  C   C323      1.0  0.923624315032279  0.0806485185099497  0.6341373692930801  1.0000
  C   C324      1.0  0.9310766976122736  0.0795082325358134  0.6688244897704543  1.0000
  H   H213      1.0  0.04138573997729944  0.08385015614749136  0.6662478273474397  1.0000
  H   H214      1.0  0.02826696003728646  0.08605198506226053  0.6043633337090095  1.0000
  H   H215      1.0  0.8907201989210887  0.0800473491164766  0.6254331615595237  1.0000
  H   H216      1.0  0.9039075492313965  0.07857122254488935  0.6867605438586493  1.0000
  Fe  Fe109     1.0  0.08278453764496096  0.007562396878372013  0.9826702081075704  1.0000
  Fe  Fe110     1.0  0.11814252600186648  0.07692594940414033  0.7875794662854467  1.0000
  S   S215      1.0  0.06889343040139506  0.06802286814137659  0.5296312014573243  1.0000
  S   S216      1.0  0.09536586199928143  0.0877652926130299  0.9781429225498459  1.0000
  S   S217      1.0  0.15028676627724447  0.1321439552011494  0.8291369802531565  1.0000
  C   C325      1.0  0.10970641680570803  0.0992542187255534  0.9365031470066016  1.0000
  C   C326      1.0  0.09582087802091754  0.06524428067188026  0.9080646605319762  1.0000
  C   C327      1.0  0.1080547555374125  0.07521660667764074  0.8748572068733633  1.0000
  C   C328      1.0  0.13444759820831798  0.11886128711475763  0.8702491790569522  1.0000
  C   C329      1.0  0.14899582264896805  0.15215412375417792  0.898779474964841  1.0000
  C   C330      1.0  0.13613719230548238  0.14270082989288646  0.9318486848565644  1.0000
  H   H217      1.0  0.07541226270544721  0.031527758491034064  0.9116153084826069  1.0000
  H   H218      1.0  0.09732779002797343  0.04895625413292848  0.8529550670694057  1.0000
  H   H219      1.0  0.17045705956232093  0.18512437848413477  0.8954353119355472  1.0000
  H   H220      1.0  0.14737538139916517  0.16862309659580177  0.9539123123897943  1.0000
  Fe  Fe111     1.0  0.0788224124887027  0.8992643402014284  0.9550975964659978  1.0000
  Fe  Fe112     1.0  0.08546997535367673  0.9716850515607405  0.7588898565657418  1.0000
  S   S218      1.0  0.9935820215082007  0.9716456904770325  0.522840250879995  1.0000
  S   S219      1.0  0.08686962283817135  0.8365554726291418  0.913813504132114  1.0000
  S   S220      1.0  0.07317809238119577  0.8915256024234424  0.7644775843355283  1.0000
  C   C331      1.0  0.08471978529285984  0.8534514200397112  0.872664687528431  1.0000
  C   C332      1.0  0.08680642802023919  0.9030888030723379  0.867607356679553  1.0000
  C   C333      1.0  0.08407238398835837  0.9153831899451763  0.8342659564374446  1.0000
  C   C334      1.0  0.07852699760920445  0.8779483653362234  0.8062790562449673  1.0000
  C   C335      1.0  0.07652645408872871  0.8285173240975787  0.8115415141675983  1.0000
  C   C336      1.0  0.08010611742090923  0.816341966230997  0.8445818237825513  1.0000
  H   H221      1.0  0.09025647646645774  0.93188353917615  0.8893325008097976  1.0000
  H   H222      1.0  0.08534063744739018  0.9536147603013632  0.8303272983515826  1.0000
  H   H223      1.0  0.07158981764804695  0.7993240499833902  0.7901154541757878  1.0000
  H   H224      1.0  0.07855418472731213  0.7779984314640878  0.8483980186554767  1.0000
  S   S221      1.0  0.10756822359952234  0.10600673016828388  0.7384832423711662  1.0000
  S   S222      1.0  0.07256550260017347  0.9914737863740388  0.7071392920948303  1.0000
  S   S223      1.0  0.02973232356374811  0.953304843809617  0.9575600186444189  1.0000
  S   S224      1.0  0.1337698438982966  0.9558597047549799  0.9746331797299406  1.0000
  S   S225      1.0  0.9300288593143241  0.33089892775968544  0.027300489091980573  1.0000
  Fe  Fe113     1.0  0.8904924779801953  0.2601620154350375  0.2806406905973513  1.0000
  Fe  Fe114     1.0  0.928997272397118  0.3182007653403591  0.08233055635254294  1.0000
  S   S226      1.0  0.923597882457632  0.2530172196718681  0.32909626443238604  1.0000
  S   S227      1.0  0.8903067053668992  0.1965021092368744  0.23891706755666275  1.0000
  S   S228      1.0  0.9565366785197615  0.2510059268927929  0.09453331150480748  1.0000
  C   C337      1.0  0.9109621721552879  0.21391545841057713  0.19997484890688533  1.0000
  C   C338      1.0  0.9048072358202119  0.25977483664586387  0.19058497488439485  1.0000
  C   C339      1.0  0.9191243347385102  0.271630483480374  0.15821297006412705  1.0000
  C   C340      1.0  0.9403145174498752  0.2379912581354766  0.13563511208998635  1.0000
  C   C341      1.0  0.9474688397196619  0.19277946538643498  0.14550466821297636  1.0000
  C   C342      1.0  0.9321733541641947  0.18044875824022277  0.17740620069201363  1.0000
  H   H225      1.0  0.8875268259110557  0.2852676251933399  0.20767738808051117  1.0000
  H   H226      1.0  0.9133125321402359  0.30650967317034805  0.15061448191812588  1.0000
  H   H227      1.0  0.9640951081091842  0.16679206715148887  0.128312005214267  1.0000
  H   H228      1.0  0.9365117449703595  0.1447488083573525  0.1845120102791009  1.0000
  Fe  Fe115     1.0  0.8635718439818552  0.36011112608902174  0.3080489966548896  1.0000
  Fe  Fe116     1.0  0.8835436784706716  0.40851810138012823  0.10688261719959025  1.0000
  S   S229      1.0  0.8952542862574917  0.3629225911424765  0.35896061608960395  1.0000
  S   S230      1.0  0.8242879685427329  0.41928781633484213  0.2976607780141549  1.0000
  S   S231      1.0  0.8625822896911011  0.46691184011421605  0.14691086866121728  1.0000
  C   C343      1.0  0.8339931325590741  0.43092512530503946  0.2553100818478766  1.0000
  C   C344      1.0  0.8457243632291841  0.39386760391542275  0.22978683123578625  1.0000
  C   C345      1.0  0.8543090466925376  0.40420572741030014  0.1960770111619139  1.0000
  C   C346      1.0  0.8512029784996152  0.4516640094618012  0.18815937335828847  1.0000
  C   C347      1.0  0.8386146944174306  0.48815101838834707  0.21352410336790495  1.0000
  C   C348      1.0  0.8300441318569683  0.47784747243259496  0.24702840845968588  1.0000
  H   H229      1.0  0.8475957253925116  0.357138058598208  0.23594145661911492  1.0000
  H   H230      1.0  0.8632963323121028  0.37564915956466827  0.17634259221744042  1.0000
  H   H231      1.0  0.8362142395243735  0.5248638398560548  0.20742358817480744  1.0000
  H   H232      1.0  0.8218320495627692  0.5068647156726858  0.26673649440290514  1.0000
  Fe  Fe117     1.0  0.054700458122310947  0.3406136095599752  0.523174923474607  1.0000
  Fe  Fe118     1.0  0.9498321033554697  0.33197766461820777  0.32765923650168016  1.0000
  S   S232      1.0  0.953695397016254  0.39633027365946916  0.10237825602510675  1.0000
  S   S233      1.0  0.09956394204915764  0.34566324513674473  0.4776569709426024  1.0000
  S   S234      1.0  0.020929410217223055  0.3570469138510024  0.33309659259325297  1.0000
  C   C349      1.0  0.07622853153378384  0.34690879641935446  0.43773480855455604  1.0000
  C   C350      1.0  0.031208411696238336  0.3372277973991  0.4328269926748005  1.0000
  C   C351      1.0  0.013845300176046349  0.33909677404720995  0.4004265670844269  1.0000
  C   C352      1.0  0.041559240176833656  0.35092015523890474  0.373170389205443  1.0000
  C   C353      1.0  0.08646271384746917  0.3602646079843428  0.3781785336125396  1.0000
  C   C354      1.0  0.10373872435596132  0.35818653683725366  0.4103224485920576  1.0000
  H   H233      1.0  0.009902391105022668  0.32820988548144214  0.4539116398486791  1.0000
  H   H234      1.0  0.9791060866699351  0.3319277342657916  0.39663850364666464  1.0000
  H   H235      1.0  0.10805881860557998  0.3692027345028688  0.35720447675900013  1.0000
  H   H236      1.0  0.13854858343083487  0.36578358653601484  0.41395699500404604  1.0000
  Fe  Fe119     1.0  0.9655919277865526  0.31201099954652456  0.5512728819715162  1.0000
  Fe  Fe120     1.0  0.8661010686494887  0.2838905163815486  0.35527276727500645  1.0000
  S   S235      1.0  0.8587982251836704  0.3288249103015204  0.0923395347471927  1.0000
  S   S236      1.0  0.8961342573243337  0.2806439168921244  0.5457786803417446  1.0000
  S   S237      1.0  0.8271479536176554  0.24701624768583663  0.39500745811127524  1.0000
  C   C355      1.0  0.878430373082454  0.27368559735065645  0.5035341741233914  1.0000
  C   C356      1.0  0.9039480641790244  0.2929175584925936  0.47740429213369495  1.0000
  C   C357      1.0  0.8881671822578634  0.28601089510450706  0.44373002863898625  1.0000
  C   C358      1.0  0.8472766735028667  0.2594192605328267  0.4365321523500443  1.0000
  C   C359      1.0  0.8221551137889853  0.24027370396931857  0.462677713599124  1.0000
  C   C360      1.0  0.8376894290636567  0.24773956156422727  0.49609251426435863  1.0000
  H   H237      1.0  0.9357095006490136  0.31286484898325284  0.48306165393085276  1.0000
  H   H238      1.0  0.9078345511674131  0.30048623736055546  0.42338600715590946  1.0000
  H   H239      1.0  0.7905604053795058  0.21953961478112838  0.45709708283501715  1.0000
  H   H240      1.0  0.818103751207902  0.23345389871081856  0.5163649586941936  1.0000
  S   S238      1.0  0.9212457934229136  0.33696913839736276  0.2768343228217738  1.0000
  S   S239      1.0  0.8300322635891234  0.28366604555081665  0.3069020528126849  1.0000
  S   S240      1.0  0.9959045897221057  0.38132869394406654  0.5322684766901746  1.0000
  S   S241      1.0  0.021870703766573518  0.26893345085547615  0.5372160159237627  1.0000
  Fe  Fe121     1.0  0.9981704127128969  0.32392538735844667  0.7984771052905844  1.0000
  Fe  Fe122     1.0  0.04471044708701766  0.2982672524055179  0.5904815338888865  1.0000
  S   S242      1.0  0.9753991136191477  0.33548261844443594  0.8533009049136036  1.0000
  S   S243      1.0  0.05631418461772553  0.28437145518763174  0.7830769922091956  1.0000
  S   S244      1.0  0.0719922969322131  0.24634675191788524  0.6213517947539193  1.0000
  C   C361      1.0  0.05932324265724698  0.27276744589127766  0.7381634148843244  1.0000
  C   C362      1.0  0.03572988300979785  0.29835955448267626  0.7182283228597317  1.0000
  C   C363      1.0  0.039739466612285224  0.291014574976284  0.6822977610576384  1.0000
  C   C364      1.0  0.06643085874469534  0.2568637562515885  0.6662276879152649  1.0000
  C   C365      1.0  0.089348844843538  0.23051770573860608  0.6862278944996829  1.0000
  C   C366      1.0  0.08625020188433452  0.23892536470466474  0.7221533759768257  1.0000
  H   H241      1.0  0.015063326613311112  0.324521174957507  0.7306324208116273  1.0000
  H   H242      1.0  0.022294895134954196  0.31184219690700843  0.6671459866758225  1.0000
  H   H243      1.0  0.10997496320711475  0.20398171121984632  0.6739387288000693  1.0000
  H   H244      1.0  0.10454715487106525  0.21904338987650895  0.7374696989116747  1.0000
  Fe  Fe123     1.0  0.9228760743659281  0.36809316096548983  0.7720351409737392  1.0000
  Fe  Fe124     1.0  0.020973156381739466  0.4011046441384245  0.5856858018389444  1.0000
  S   S245      1.0  0.8927414064641511  0.3830306039829967  0.8242639521474291  1.0000
  S   S246      1.0  0.8885353452395247  0.38715164483991416  0.7272502163318348  1.0000
  S   S247      1.0  0.012138617786246142  0.474462517314441  0.6154355803291858  1.0000
  C   C367      1.0  0.9240899414212081  0.41646205453341345  0.6988868383796549  1.0000
  C   C368      1.0  0.9679702720394625  0.4088540694564333  0.6970282189467838  1.0000
  C   C369      1.0  0.9955603437505537  0.4289931085242191  0.6723892424586686  1.0000
  C   C370      1.0  0.9796222639601092  0.4578555083873397  0.6501208206911233  1.0000
  C   C371      1.0  0.9360463237660364  0.4669703138973915  0.6527033124907318  1.0000
  C   C372      1.0  0.9081775965984423  0.4458448540608053  0.6769102485279643  1.0000
  H   H245      1.0  0.9802034642265328  0.3857765806750173  0.7135888693646573  1.0000
  H   H246      1.0  0.028883934320691695  0.42085117027984253  0.669723334163971  1.0000
  H   H247      1.0  0.9233995590592168  0.4886657985963403  0.6351955988733935  1.0000
  H   H248      1.0  0.8742566509204489  0.45210319823550194  0.6785434987577927  1.0000
  Fe  Fe125     1.0  0.947238417674166  0.4104950606768387  0.048422107454250796  1.0000
  Fe  Fe126     1.0  0.9607889766729195  0.4092354741138369  0.8411843511046078  1.0000
  S   S248      1.0  0.08286389556738971  0.3667628429947083  0.5754683235175664  1.0000
  S   S249      1.0  0.995600882568562  0.4683309596579832  0.03085808932452805  1.0000
  S   S250      1.0  0.97388878038796  0.4825487001396951  0.873754932549828  1.0000
  C   C373      1.0  0.9887872164328274  0.4714149700266326  0.9871726580883657  1.0000
  C   C374      1.0  0.9610161382405228  0.4355245424938925  0.9671286981268965  1.0000
  C   C375      1.0  0.9566172659244896  0.4381327768057659  0.931989355157687  1.0000
  C   C376      1.0  0.9795792663718016  0.47708440322510803  0.9171828866804792  1.0000
  C   C377      1.0  0.007103175824815899  0.512828625672638  0.9373406649873637  1.0000
  C   C378      1.0  0.011795507506029201  0.5099581820772219  0.9722313218117784  1.0000
  H   H249      1.0  0.9431354760467703  0.40575642000268175  0.9786381750387765  1.0000
  H   H250      1.0  0.9350248650812722  0.41061522338944023  0.9165069405466668  1.0000
  H   H251      1.0  0.026234315933538088  0.5415615076468043  0.925632787374024  1.0000
  H   H252      1.0  0.0339931886386724  0.5369916259469818  0.9874410254868868  1.0000
  Fe  Fe127     1.0  0.8612927634351832  0.34681281225836  0.03834786747069563  1.0000
  Fe  Fe128     1.0  0.9096023096629187  0.30833834442562136  0.8311717861386003  1.0000
  S   S251      1.0  0.9853054668419499  0.3351163793550107  0.6055774087118571  1.0000
  S   S252      1.0  0.806209677038614  0.31555813311137015  0.003387404445303055  1.0000
  S   S253      1.0  0.8605972859325219  0.25125833717510027  0.849810372289534  1.0000
  C   C379      1.0  0.8226947026913034  0.2963733537470521  0.9612452394704434  1.0000
  C   C380      1.0  0.8621329108311097  0.3169630215934305  0.9481648441190789  1.0000
  C   C381      1.0  0.8738055147752962  0.3034180520659806  0.9137701492791539  1.0000
  C   C382      1.0  0.8464951465887041  0.26838186451482215  0.8927656593553364  1.0000
  C   C383      1.0  0.8072755492992754  0.2473612312688953  0.9059568294410898  1.0000
  C   C384      1.0  0.7950996154247469  0.26188838461749775  0.9400455335218174  1.0000
  H   H253      1.0  0.8829700114090775  0.34448274985479976  0.9642117632210931  1.0000
  H   H254      1.0  0.9039770905022436  0.32002821189042585  0.9036233512155398  1.0000
  H   H255      1.0  0.785927706876543  0.22037133428462496  0.8897607286640237  1.0000
  H   H256      1.0  0.76421842314792  0.24629778581326356  0.9498698409944524  1.0000
  S   S254      1.0  0.9900907440714908  0.40015509631454904  0.7880937425466952  1.0000
  S   S255      1.0  0.9334187603649775  0.2906740098892566  0.7772262441665085  1.0000
  S   S256      1.0  0.8786536924550246  0.42757493647680533  0.05388403707683298  1.0000
  Fe  Fe129     1.0  0.8756806685836442  0.5940001804593411  0.4131034867190464  1.0000
  Fe  Fe130     1.0  0.8536569107138879  0.6447949643872857  0.2148566141715631  1.0000
  S   S257      1.0  0.895865807381411  0.5893167455169426  0.46655744896135687  1.0000
  S   S258      1.0  0.9098576695281599  0.5449781890154917  0.37388267506492134  1.0000
  S   S259      1.0  0.908541165144703  0.6027392272394305  0.22455488721311756  1.0000
  C   C385      1.0  0.9068932021430448  0.5598735978120732  0.3323259981736921  1.0000
  C   C386      1.0  0.8786160958866772  0.5927078015281744  0.32460213764040624  1.0000
  C   C387      1.0  0.8781259587590061  0.6052485216007053  0.2912062434136491  1.0000
  C   C388      1.0  0.9067799714068031  0.586048911476178  0.2660067651160474  1.0000
  C   C389      1.0  0.9349511518261132  0.5534158375719542  0.27398476182101383  1.0000
  C   C390      1.0  0.9341914776002384  0.539359628819831  0.30679520886978207  1.0000
  H   H257      1.0  0.8570896565963856  0.6081296129994005  0.3442759879677686  1.0000
  H   H258      1.0  0.8562688437694747  0.6304235464523309  0.2851926403232192  1.0000
  H   H259      1.0  0.9574419538797196  0.5391418133155224  0.2548485400143594  1.0000
  H   H260      1.0  0.9550801605592057  0.5130123909735076  0.31251303860910884  1.0000
  Fe  Fe131     1.0  0.8071746623622031  0.662004418780457  0.4373257858286861  1.0000
  Fe  Fe132     1.0  0.7964749182334981  0.7231031021355054  0.24223757255039358  1.0000
  S   S260      1.0  0.8204640912537434  0.6603990356261811  0.4924698498645843  1.0000
  S   S261      1.0  0.759668579507557  0.7151140187488885  0.430895107414226  1.0000
  S   S262      1.0  0.7779176461559094  0.780907760826123  0.2839270645950318  1.0000
  C   C391      1.0  0.7666015352241713  0.7335265458680382  0.39018837347605917  1.0000
  C   C392      1.0  0.7826237546321676  0.7022602954121027  0.36291391900621894  1.0000
  C   C393      1.0  0.7863185369831914  0.7166261960493454  0.33002786881539414  1.0000
  C   C394      1.0  0.7747614154110082  0.7625420202307023  0.32471457140984716  1.0000
  C   C395      1.0  0.7603597831757044  0.7944900311601018  0.35228243889554367  1.0000
  C   C396      1.0  0.756006837092881  0.7798619802263822  0.38497798310366216  1.0000
  H   H261      1.0  0.7909910214256175  0.6664539048254081  0.3669494292349107  1.0000
  H   H262      1.0  0.7978673691740438  0.6920565351337764  0.3088676004064399  1.0000
  H   H263      1.0  0.752143863335444  0.8303909965608778  0.3482325284846439  1.0000
  H   H264      1.0  0.7445925640739008  0.8046224672545108  0.4061153745243029  1.0000
  Fe  Fe133     1.0  0.8854469896986321  0.6968721766684691  0.682014156831491  1.0000
  Fe  Fe134     1.0  0.89038461804151  0.670503901901947  0.4760160736282937  1.0000
  S   S263      1.0  0.8645749757145431  0.7271114778011967  0.2214188364905314  1.0000
  S   S264      1.0  0.9480505451979969  0.7313459277197882  0.6609998119795066  1.0000
  S   S265      1.0  0.9391026380504275  0.7304060852942555  0.5013132156616917  1.0000
  C   C397      1.0  0.9444406185255088  0.7320372259004646  0.6168506393710578  1.0000
  C   C398      1.0  0.9082894213592001  0.7073794646265963  0.5988218854153171  1.0000
  C   C399      1.0  0.9065523815894947  0.7063430603537064  0.5631750492320764  1.0000
  C   C400      1.0  0.9405944481723465  0.7309894867458482  0.5457239516565391  1.0000
  C   C401      1.0  0.976404624884016  0.756470588644456  0.5638732654398146  1.0000
  C   C402      1.0  0.9784934452443187  0.7564867393902741  0.5993718671174446  1.0000
  H   H265      1.0  0.8818769504191784  0.6887280350553251  0.6123063560679647  1.0000
  H   H266      1.0  0.878767284344994  0.6867042879683396  0.5493618175608033  1.0000
  H   H267      1.0  0.0029814376188326275  0.7752466369120512  0.5504459824351304  1.0000
  H   H268      1.0  0.006831034852372575  0.7747081603773793  0.6132229381442169  1.0000
  Fe  Fe135     1.0  0.7884173110635352  0.6652722460696001  0.6711912837726137  1.0000
  Fe  Fe136     1.0  0.8241934070387449  0.5795933373215103  0.47658679285037353  1.0000
  S   S266      1.0  0.7875685914598852  0.6407504210610693  0.24038587007867385  1.0000
  S   S267      1.0  0.7302204813688218  0.6466572045280987  0.6373614917862538  1.0000
  S   S268      1.0  0.7912656163859545  0.5194380590351173  0.5041427887681214  1.0000
  C   C403      1.0  0.7468690482394091  0.6093712600576602  0.6010675054412538  1.0000
  C   C404      1.0  0.7892100671925791  0.618776527958607  0.5884591091700018  1.0000
  C   C405      1.0  0.8030697468047199  0.5899364280161574  0.5591293705988636  1.0000
  C   C406      1.0  0.7746551796379221  0.5513104510105862  0.5425930118130022  1.0000
  C   C407      1.0  0.7324105159554476  0.5410957695556107  0.5554182893566018  1.0000
  C   C408      1.0  0.7181987652423844  0.570906771728291  0.5843635396669842  1.0000
  H   H269      1.0  0.8107823094646391  0.6495824118361249  0.6005782565568634  1.0000
  H   H270      1.0  0.8357163071083286  0.597903101861986  0.5490964559416884  1.0000
  H   H271      1.0  0.7101553016604782  0.5116970609875793  0.5421538846169227  1.0000
  H   H272      1.0  0.6850426759907657  0.5641468977747994  0.5936387613553826  1.0000
  S   S269      1.0  0.8771342256874178  0.6764774162584679  0.4213211185566661  1.0000
  S   S270      1.0  0.8038031888363044  0.5799683451284352  0.4226746592867374  1.0000
  S   S271      1.0  0.8276571158033657  0.7386109885570402  0.6848924087385471  1.0000
  S   S272      1.0  0.8471914337299375  0.6247675647078044  0.6622568048036732  1.0000
  Fe  Fe137     1.0  0.7843364097004157  0.5609513279106988  0.9132911208963499  1.0000
  Fe  Fe138     1.0  0.8380621696195751  0.6151227968715869  0.7174332374957726  1.0000
  S   S273      1.0  0.8007918451719923  0.550342174278617  0.966499088081906  1.0000
  S   S274      1.0  0.7819702626608493  0.49380446726295446  0.8740962192255313  1.0000
  S   S275      1.0  0.8394548335240981  0.5370560583137394  0.7257302775577932  1.0000
  C   C409      1.0  0.7979294982623758  0.507047610714217  0.8331200571764144  1.0000
  C   C410      1.0  0.8056506486076346  0.5558229089355411  0.8260620716810503  1.0000
  C   C411      1.0  0.8171489863749315  0.5654253099498661  0.792680354959844  1.0000
  C   C412      1.0  0.8214125760498641  0.5261621968201151  0.7666739557161306  1.0000
  C   C413      1.0  0.8133241346064053  0.47755125391281616  0.7737280173539864  1.0000
  C   C414      1.0  0.801465079170657  0.46797679022687433  0.8069101252054018  1.0000
  H   H273      1.0  0.8026061947297143  0.5861096942081154  0.8462043630953708  1.0000
  H   H274      1.0  0.8235323756972845  0.6030892835874315  0.7872456685834872  1.0000
  H   H275      1.0  0.816899480361904  0.44726355893650016  0.7536318136345921  1.0000
  H   H276      1.0  0.7954653169701932  0.4302749743019003  0.8123183187731975  1.0000
  Fe  Fe139     1.0  0.7614259508948568  0.6643974492839977  0.9354106541216973  1.0000
  Fe  Fe140     1.0  0.8212896463242483  0.7205848854959971  0.738667196348644  1.0000
  S   S276      1.0  0.773528063123553  0.6616376192839688  0.9908242457853191  1.0000
  S   S277      1.0  0.7416192097473606  0.7350213106268146  0.9226717903143693  1.0000
  S   S278      1.0  0.8076554957090349  0.7846550204847649  0.7769239631248004  1.0000
  C   C415      1.0  0.7601936426948617  0.747609845964039  0.8819330599660327  1.0000
  C   C416      1.0  0.7737673441963819  0.7103643618367759  0.8574594873565013  1.0000
  C   C417      1.0  0.788260692664916  0.7212854425441542  0.8248768069467971  1.0000
  C   C418      1.0  0.7893362544254307  0.7694831112540683  0.8170285931153822  1.0000
  C   C419      1.0  0.775970855208269  0.8065940881058093  0.8415736822206039  1.0000
  C   C420      1.0  0.7612249906250391  0.7956344517580778  0.8739162337290995  1.0000
  H   H277      1.0  0.77221316222188  0.6730219194469083  0.8633462236023899  1.0000
  H   H278      1.0  0.7984049014097432  0.692508320006036  0.8058561016663521  1.0000
  H   H279      1.0  0.7767564214107692  0.8438700185444077  0.8354912175316151  1.0000
  H   H280      1.0  0.7509919499759483  0.8246153108475252  0.8927162322802196  1.0000
  Fe  Fe141     1.0  0.8336295385275365  0.7200076378085303  0.17036401321456407  1.0000
  Fe  Fe142     1.0  0.8331438373163157  0.6276282053548279  0.9701940279373487  1.0000
  S   S279      1.0  0.8821013271252439  0.6834272168078446  0.7369743083089544  1.0000
  S   S280      1.0  0.8645451079722983  0.7719636611630847  0.13548287717347485  1.0000
  S   S281      1.0  0.8992560683837013  0.6535826278572348  0.9914102519698371  1.0000
  C   C421      1.0  0.874565915228109  0.7389591270037936  0.09564950746313894  1.0000
  C   C422      1.0  0.8459246134387934  0.6977197491624736  0.0831566921655067  1.0000
  C   C423      1.0  0.854052029307881  0.6709974790114135  0.05123452338077494  1.0000
  C   C424      1.0  0.8911470996429203  0.6850474582262649  0.032169510306465865  1.0000
  C   C425      1.0  0.9204438047113169  0.7255678612569447  0.045009981167551505  1.0000
  C   C426      1.0  0.9117449365115811  0.7530628248230293  0.07661561643663184  1.0000
  H   H281      1.0  0.8170953613807991  0.6870300860764242  0.09783307004764397  1.0000
  H   H282      1.0  0.8319191445929656  0.6390312339745563  0.04159399149173293  1.0000
  H   H283      1.0  0.9493109646723096  0.7363538084048482  0.030362127311186038  1.0000
  H   H284      1.0  0.9340335122438826  0.7848525991975759  0.08654103625717324  1.0000
  Fe  Fe143     1.0  0.7633661243979839  0.6407841660720628  0.18732884742786005  1.0000
  Fe  Fe144     1.0  0.7398237932450648  0.5844448550169474  0.9812246742327928  1.0000
  S   S282      1.0  0.7767050691225642  0.6508424321491102  0.7253642007466632  1.0000
  S   S283      1.0  0.7010139248911025  0.5949732821875262  0.17081416473812472  1.0000
  S   S284      1.0  0.6874150041054402  0.5442588794250387  0.01056571517346172  1.0000
  C   C427      1.0  0.6976923335045323  0.5811727960657667  0.1262293232068643  1.0000
  C   C428      1.0  0.7312827870702793  0.5991746845157255  0.10509928582883976  1.0000
  C   C429      1.0  0.7292874088346845  0.5860669124955038  0.06945887516160121  1.0000
  C   C430      1.0  0.6932311931503033  0.5557357478562572  0.054975230972056366  1.0000
  C   C431      1.0  0.6599896883888725  0.5369183932504367  0.07609988380968269  1.0000
  C   C432      1.0  0.6620269479895249  0.5499765431289223  0.11173817483537207  1.0000
  H   H285      1.0  0.7586284635151299  0.6235342884427642  0.11611364818826475  1.0000
  H   H286      1.0  0.7550804219014443  0.6004596304397314  0.05314088026231478  1.0000
  H   H287      1.0  0.6321025977018842  0.513374753815194  0.06478107910763997  1.0000
  H   H288      1.0  0.6357641192296261  0.5363225248495969  0.12799433734765797  1.0000
  S   S285      1.0  0.8232086577057062  0.6354580983348459  0.9152832313120811  1.0000
  S   S286      1.0  0.721410608458966  0.5908632258978255  0.927777622746432  1.0000
  S   S287      1.0  0.7661089103209013  0.7226289324959971  0.19153723400884415  1.0000
  S   S288      1.0  0.828751373581944  0.6374303462429403  0.16137032926467243  1.0000
  N   N1        1.0  0.18490656312917014  0.8018010819979029  0.986253376793063  1.0000
  C   C433      1.0  0.2278772412645281  0.798969872846099  0.0007096160464283852  1.0000
  C   C434      1.0  0.1841554462103783  0.8511106739809264  0.9758179713197848  1.0000
  C   C435      1.0  0.15057334143043194  0.7932029480258418  0.01245712463868065  1.0000
  C   C436      1.0  0.17707587752676768  0.7641360167399185  0.9558604938465569  1.0000
  H   H289      1.0  0.23578063058561144  0.8291928313582329  0.022231932591520787  1.0000
  H   H290      1.0  0.25419804202447116  0.8021537675214123  0.9808986009859155  1.0000
  H   H291      1.0  0.22877435867031626  0.7633942207283013  0.010840119177368601  1.0000
  H   H292      1.0  0.2092251471785947  0.8582830184725427  0.9557033760174045  1.0000
  H   H293      1.0  0.1520693354320277  0.8546673624145509  0.9651991093770937  1.0000
  H   H294      1.0  0.19088904193220027  0.8807898966231207  0.9977916293932774  1.0000
  H   H295      1.0  0.15537849835915468  0.821103469402237  0.035740516397608335  1.0000
  H   H296      1.0  0.15025078332910569  0.7561612426061526  0.02088061248544304  1.0000
  H   H297      1.0  0.1177126325729625  0.7952391968508703  0.0025212770853317856  1.0000
  H   H298      1.0  0.14537410098867806  0.766273922235591  0.9438819532958762  1.0000
  H   H299      1.0  0.17711657781427728  0.7263588419757117  0.9627254189997649  1.0000
  H   H300      1.0  0.2026456915588968  0.7693085851480266  0.9357189397342291  1.0000
  N   N2        1.0  0.11458664493330763  0.3985728833464961  0.0298001547198663  1.0000
  C   C437      1.0  0.1249041584569859  0.34777359665193686  0.030213462276212688  1.0000
  C   C438      1.0  0.10110962893696453  0.419443149769787  0.0646056584120751  1.0000
  C   C439      1.0  0.0789259521453149  0.39808513623347785  0.0056148043477788345  1.0000
  C   C440      1.0  0.1535173943523288  0.4290954350189633  0.01861741294434105  1.0000
  H   H301      1.0  0.15151404365946886  0.3469668944872222  0.04843197639255492  1.0000
  H   H302      1.0  0.13581320112110162  0.33120529050554204  0.004478978873163175  1.0000
  H   H303      1.0  0.09613033741242273  0.3233907513895584  0.03813930158407208  1.0000
  H   H304      1.0  0.09239544221355384  0.4575893112040532  0.06488494355363317  1.0000
  H   H305      1.0  0.07214686367610691  0.3968454996856803  0.07401160600015144  1.0000
  H   H306      1.0  0.12777348084515805  0.4214855376435924  0.08330776901448411  1.0000
  H   H307      1.0  0.0718711250454915  0.4362554264201943  0.0037514421888857896  1.0000
  H   H308      1.0  0.04824566612993167  0.37721505583179393  0.01377857260001325  1.0000
  H   H309      1.0  0.08757981427938817  0.3819091375346826  0.9791762160171307  1.0000
  H   H310      1.0  0.14740695231519946  0.4680642509376671  0.01951300433992431  1.0000
  H   H311      1.0  0.16289738243518384  0.41638750934221846  0.9916364080273246  1.0000
  H   H312      1.0  0.18205372546826945  0.42876670827217644  0.035100052823664685  1.0000
  N   N3        1.0  0.6916185416658245  0.45043107630206336  0.3079267864745674  1.0000
  C   C441      1.0  0.6781670550659813  0.4825153652539509  0.3387515159482102  1.0000
  C   C442      1.0  0.7087138187496704  0.406882599180582  0.31831461971017827  1.0000
  C   C443      1.0  0.72589401980731  0.4783871511640161  0.28900987394098365  1.0000
  C   C444      1.0  0.6536556312685206  0.4338606279275723  0.28562127596402176  1.0000
  H   H313      1.0  0.705756934635075  0.49521971070563886  0.35649309285226316  1.0000
  H   H314      1.0  0.6515984192087911  0.46301225685094316  0.3532217694086275  1.0000
  H   H315      1.0  0.665763900671852  0.5161243746149289  0.33185489496312925  1.0000
  H   H316      1.0  0.7379290650744981  0.41800863315758363  0.33452329571718575  1.0000
  H   H317      1.0  0.68388588873571  0.3852207601398998  0.33305939152693886  1.0000
  H   H318      1.0  0.718836623261511  0.38164833536807485  0.29560240175195807  1.0000
  H   H319      1.0  0.714104735268226  0.5113211067977073  0.2804627287350878  1.0000
  H   H320      1.0  0.7373769303185644  0.45504363811792103  0.26592591812293964  1.0000
  H   H321      1.0  0.7549497175016364  0.4916429845388066  0.3052645344233582  1.0000
  H   H322      1.0  0.6272586885417727  0.4126823722892432  0.2992147309848767  1.0000
  H   H323      1.0  0.6625412446025234  0.40966218657906417  0.2620503530937315  1.0000
  H   H324      1.0  0.6396240576111605  0.4656558883455766  0.27757543476832414  1.0000
  N   N4        1.0  0.18300680682128237  0.10240743495672788  0.07945042853032969  1.0000
  C   C445      1.0  0.21454627127187278  0.06626320933456498  0.07985034810396763  1.0000
  C   C446      1.0  0.20290537110356124  0.15166423855579048  0.09474356640875148  1.0000
  C   C447      1.0  0.14377669822690847  0.08760514490231763  0.0996162426376146  1.0000
  C   C448      1.0  0.1708437141012917  0.10413298483542732  0.04363854416442581  1.0000
  H   H325      1.0  0.20039730464952057  0.028483123639412966  0.06901503023527433  1.0000
  H   H326      1.0  0.2252751717128757  0.06468442492722559  0.1064066031625106  1.0000
  H   H327      1.0  0.2440686122617796  0.0758463435980179  0.06422046631564604  1.0000
  H   H328      1.0  0.18006364937573202  0.1798287752934904  0.0946937657828193  1.0000
  H   H329      1.0  0.21218185974548476  0.15165284679613933  0.12183718503292496  1.0000
  H   H330      1.0  0.23272715601074462  0.16397438129794395  0.0802768915111951  1.0000
  H   H331      1.0  0.11921996649667806  0.11399361356155424  0.09960809327916254  1.0000
  H   H332      1.0  0.15192315971791936  0.08620268681489307  0.12682947688687274  1.0000
  H   H333      1.0  0.12819475916504175  0.05037369365252786  0.08901281903886771  1.0000
  H   H334      1.0  0.1995454554445223  0.11627936237857917  0.02785819072644191  1.0000
  H   H335      1.0  0.14648990108929977  0.1304272514574123  0.04223994156147359  1.0000
  H   H336      1.0  0.1563905756210186  0.06733123006882025  0.031127044865834952  1.0000
  N   N5        1.0  0.6388409691204335  0.8102564977615199  0.9661576854085796  1.0000
  C   C449      1.0  0.6795053545520698  0.8336767861113454  0.9517712672228078  1.0000
  C   C450      1.0  0.6012265747524236  0.8298082995475742  0.9528499554898602  1.0000
  C   C451      1.0  0.6391464840741179  0.8215043953410852  0.003984701663766632  1.0000
  C   C452      1.0  0.6355173230139912  0.7562226993542733  0.9560209414692538  1.0000
  H   H337      1.0  0.6823513577985039  0.874519167941262  0.9578363388197113  1.0000
  H   H338      1.0  0.6809609787305172  0.8245558057188802  0.9233284893302183  1.0000
  H   H339      1.0  0.7087250666950777  0.8211480437921725  0.9621891094904287  1.0000
  H   H340      1.0  0.5700586128831503  0.8143767380774705  0.9642331047308121  1.0000
  H   H341      1.0  0.6035059935436509  0.8706783878135731  0.9591767147575547  1.0000
  H   H342      1.0  0.5993411643792946  0.8208975166620647  0.9244379874160553  1.0000
  H   H343      1.0  0.6412925064037661  0.8618928883579926  0.012351146388706269  1.0000
  H   H344      1.0  0.6676221172992511  0.8081483370521862  0.014893681427822436  1.0000
  H   H345      1.0  0.6087947113668575  0.8044837183898608  0.01567178749251852  1.0000
  H   H346      1.0  0.6049038961891319  0.7371623325606382  0.965851814673794  1.0000
  H   H347      1.0  0.6633482344629643  0.7402720898351021  0.9657644144043793  1.0000
  H   H348      1.0  0.6361324469092301  0.7464107990711426  0.9275689995105889  1.0000
  N   N6        1.0  0.7483162831808423  0.14535252075506655  0.32968149992582996  1.0000
  C   C453      1.0  0.7169832345921207  0.11328971731044035  0.3063835142035911  1.0000
  C   C454      1.0  0.7574350663680489  0.11965319083398462  0.35876474628406463  1.0000
  C   C455      1.0  0.7294539978822306  0.1911038852969451  0.34287063382737504  1.0000
  C   C456      1.0  0.7893016268382718  0.15755556867289222  0.3108035058810752  1.0000
  H   H349      1.0  0.7090453589812189  0.13209195502252058  0.2844265518778166  1.0000
  H   H350      1.0  0.6856794622335491  0.10330231632536169  0.3199317346875983  1.0000
  H   H351      1.0  0.7300467090976768  0.0782985327370529  0.29587922356709884  1.0000
  H   H352      1.0  0.7270168046755121  0.10567905898750496  0.3715856677826208  1.0000
  H   H353      1.0  0.7752552132814934  0.08746702660276817  0.35015213488288754  1.0000
  H   H354      1.0  0.7772813747970508  0.14461433853097105  0.378557098973904  1.0000
  H   H355      1.0  0.7511362320233856  0.2157322378851081  0.3613925794891748  1.0000
  H   H356      1.0  0.6979940345145477  0.182876740567691  0.35636582944957107  1.0000
  H   H357      1.0  0.7238202161896604  0.21246318976501577  0.3218163393316722  1.0000
  H   H358      1.0  0.7838026634529238  0.17811372047824747  0.2891278775714432  1.0000
  H   H359      1.0  0.8041077609166281  0.12363729897689524  0.3001779489558283  1.0000
  H   H360      1.0  0.8137495378287781  0.1810848284516453  0.32789968624872934  1.0000
  N   N7        1.0  0.7374903350112397  0.40837168219569264  0.9535948706821351  1.0000
  C   C457      1.0  0.7815513461219329  0.41064710368483404  0.9378294881714062  1.0000
  C   C458      1.0  0.7165251072024937  0.356921545885978  0.9480513426282493  1.0000
  C   C459      1.0  0.711095683812451  0.44014420259256504  0.9376235435845319  1.0000
  C   C460      1.0  0.7405828485770805  0.425471666803098  0.990856529631384  1.0000
  H   H361      1.0  0.7979255527368926  0.44902203354464554  0.9400877465394766  1.0000
  H   H362      1.0  0.780553855894329  0.39624662424385804  0.9099764787227427  1.0000
  H   H363      1.0  0.8028077103049492  0.3888566810711094  0.9504008259888521  1.0000
  H   H364      1.0  0.6839949400112303  0.3535271567355789  0.9607552022233827  1.0000
  H   H365      1.0  0.7124234550530788  0.34304431576683925  0.9202908119716273  1.0000
  H   H366      1.0  0.7362571710684357  0.3318410431617398  0.9589709882796069  1.0000
  H   H367      1.0  0.6779614031453395  0.4399072740954306  0.9494229582527245  1.0000
  H   H368      1.0  0.7077692549151308  0.42800096463721005  0.909593250419714  1.0000
  H   H369      1.0  0.7260937684147015  0.47917851580929494  0.9411238752805335  1.0000
  H   H370      1.0  0.7077580608568053  0.4250234613453667  0.003335644865550158  1.0000
  H   H371      1.0  0.7566296628021204  0.4639970736391241  0.9960588640242554  1.0000
  H   H372      1.0  0.7595510385797816  0.4017170704874662  0.0039153590817733175  1.0000
  N   N8        1.0  0.8371764265726896  0.8450523065991913  0.4784501963225867  1.0000
  C   C461      1.0  0.8384611052162455  0.8070072130376182  0.5013213349178285  1.0000
  C   C462      1.0  0.8615559242900153  0.8918688580536909  0.4940024767701541  1.0000
  C   C463      1.0  0.7915790884283487  0.853134625098031  0.47369949881658213  1.0000
  C   C464      1.0  0.8568288963282135  0.8283030625981667  0.4448378128874939  1.0000
  H   H373      1.0  0.8197350331765171  0.7714482725727336  0.4905316372195023  1.0000
  H   H374      1.0  0.8239788700394398  0.8186330850800019  0.5268453149771148  1.0000
  H   H375      1.0  0.8724006169618267  0.7996342563756347  0.5053160005950703  1.0000
  H   H376      1.0  0.8478386353095948  0.9050041515268958  0.5196426272074683  1.0000
  H   H377      1.0  0.896459107902582  0.8877508207901936  0.4972254143301038  1.0000
  H   H378      1.0  0.8601890131253379  0.9216464453378563  0.47764129570229663  1.0000
  H   H379      1.0  0.776772531099511  0.8685188641732946  0.49830374652437603  1.0000
  H   H380      1.0  0.7712794950352717  0.8180512969466083  0.46427489158842494  1.0000
  H   H381      1.0  0.7892542264482223  0.8797364300431845  0.4550782069570385  1.0000
  H   H382      1.0  0.8560691136623036  0.8561091404832784  0.4269590702766197  1.0000
  H   H383      1.0  0.8390621929859509  0.7929791753612268  0.43260354108543275  1.0000
  H   H384      1.0  0.8914699362207479  0.8224087915937002  0.4474462406107551  1.0000
  N   N9        1.0  0.9457227258159454  0.59219496645383  0.10465833203110053  1.0000
  C   C465      1.0  0.9691642879294186  0.6020673236183427  0.07254519564403972  1.0000
  C   C466      1.0  0.9000694610740969  0.5724410834546454  0.09688580210591824  1.0000
  C   C467      1.0  0.946790851995944  0.6384929629466978  0.12878491102051481  1.0000
  C   C468      1.0  0.9667725964776426  0.555567288103628  0.12048343900576897  1.0000
  H   H385      1.0  0.9548195736035978  0.6304853708785636  0.06036198325093167  1.0000
  H   H386      1.0  0.9681347663251693  0.5681263578076781  0.05342712693831708  1.0000
  H   H387      1.0  0.004038230501183682  0.6156997481959614  0.07732186625686044  1.0000
  H   H388      1.0  0.8817588237716248  0.5635018813525683  0.12047637298045677  1.0000
  H   H389      1.0  0.8828668008796199  0.5994101208117062  0.08556456718462258  1.0000
  H   H390      1.0  0.8981461214677655  0.5379397555611902  0.07833134740984748  1.0000
  H   H391      1.0  0.9312326853810222  0.6671585146937531  0.11777190833834772  1.0000
  H   H392      1.0  0.9807384847318156  0.6542621785833092  0.13527384574537504  1.0000
  H   H393      1.0  0.9295519022217587  0.6323506137783923  0.1533778711187963  1.0000
  H   H394      1.0  0.9493813176039573  0.547026015887587  0.14459352221491617  1.0000
  H   H395      1.0  0.0012122885975567321  0.5694472214582635  0.12697495117287816  1.0000
  H   H396      1.0  0.9667331470517008  0.5203288638544254  0.10275931174330899  1.0000
  N   N10       1.0  0.9044215231388866  0.1265197716084998  0.41524537954942  1.0000
  C   C469      1.0  0.9201542758217899  0.16067133677463374  0.39047171127569946  1.0000
  C   C470      1.0  0.9167545895323581  0.14959730082265033  0.45031594862319535  1.0000
  C   C471      1.0  0.9243566466932258  0.08013672455180476  0.4068943922292001  1.0000
  C   C472      1.0  0.8565692040805438  0.11560471203773659  0.4132817924177483  1.0000
  H   H397      1.0  0.9558916239425528  0.17133648681766012  0.39231136036111236  1.0000
  H   H398      1.0  0.9046334180361578  0.1953701351685826  0.39517851105940105  1.0000
  H   H399      1.0  0.9133170796395441  0.14383240989968016  0.36349116104933143  1.0000
  H   H400      1.0  0.9060265819382144  0.1245869188839972  0.4696427243050416  1.0000
  H   H401      1.0  0.9527347747312046  0.15880370520191  0.4524993812409166  1.0000
  H   H402      1.0  0.9020416222816595  0.1845204306937287  0.457549142331219  1.0000
  H   H403      1.0  0.9603045888674031  0.08705019764938626  0.40856366519103426  1.0000
  H   H404      1.0  0.9162985310108328  0.061822575699757465  0.3804396558782033  1.0000
  H   H405      1.0  0.9132462259430713  0.053453615533312515  0.42505867172860734  1.0000
  H   H406      1.0  0.8435854822881763  0.08958125107948511  0.4314435975848814  1.0000
  H   H407      1.0  0.8463984890583125  0.09827609010095095  0.38708035031123655  1.0000
  H   H408      1.0  0.840324667900813  0.14969478669469893  0.4195652395241103  1.0000
  N   N11       1.0  0.24959117713153467  0.1628506694255254  0.7470395526758802  1.0000
  C   C473      1.0  0.2370630381649672  0.11275418141416438  0.7560677163723541  1.0000
  C   C474      1.0  0.2866584035405111  0.18700281724744805  0.7682872687975255  1.0000
  C   C475      1.0  0.21239300506319747  0.1920429808100934  0.7535219957796198  1.0000
  C   C476      1.0  0.2620956313116769  0.15930322793175122  0.7103096483100035  1.0000
  H   H409      1.0  0.2092119884295256  0.0937382906705615  0.7404478243614947  1.0000
  H   H410      1.0  0.22743349218961595  0.11378806742061442  0.7836180106751893  1.0000
  H   H411      1.0  0.264381050894146  0.0896193074207261  0.7510949637969038  1.0000
  H   H412      1.0  0.3001118165175489  0.222813126520105  0.759953397255031  1.0000
  H   H413      1.0  0.2771015513713422  0.19384803563434616  0.795845796445692  1.0000
  H   H414      1.0  0.31386007491201684  0.16386341321488018  0.7664736504458545  1.0000
  H   H415      1.0  0.221712597119047  0.23086170439069242  0.7490874434842323  1.0000
  H   H416      1.0  0.1998821504569661  0.19234256294315522  0.7803460411690164  1.0000
  H   H417      1.0  0.18498914717736903  0.1769530368738863  0.736081857498049  1.0000
  H   H418      1.0  0.27421405833899115  0.1960602007816501  0.7027293236885321  1.0000
  H   H419      1.0  0.2341185204514895  0.1433140923527798  0.6937362386293913  1.0000
  H   H420      1.0  0.2880882243034  0.13489340305025088  0.7040581593560322  1.0000
  N   N12       1.0  0.9257293486762787  0.7564052175583171  0.3185868240111911  1.0000
  C   C477      1.0  0.9054432377544305  0.7267919634449083  0.34469784005399084  1.0000
  C   C478      1.0  0.9433010414597314  0.7235094743121397  0.2899921175110616  1.0000
  C   C479      1.0  0.9615063789359966  0.7921195382249877  0.3341074842478444  1.0000
  C   C480      1.0  0.8925881024490909  0.7831727184748942  0.30551693999337326  1.0000
  H   H421      1.0  0.8925319660535057  0.7505456193637858  0.3669225611299205  1.0000
  H   H422      1.0  0.9290312126773114  0.7048009814411316  0.35456446093162564  1.0000
  H   H423      1.0  0.877867992223013  0.7001897556013752  0.33386363113998785  1.0000
  H   H424      1.0  0.9605643508570052  0.7446570017409133  0.270382727445003  1.0000
  H   H425      1.0  0.9664723087343131  0.7007849150998098  0.2994838607751604  1.0000
  H   H426      1.0  0.9171710385258997  0.6974441317294868  0.2765367258110669  1.0000
  H   H427      1.0  0.9774890426450643  0.8147740052703103  0.31487486496793426  1.0000
  H   H428      1.0  0.9870818305751856  0.7730880141078718  0.3441244372778014  1.0000
  H   H429      1.0  0.9495668116434122  0.8176844450551659  0.35574512259299107  1.0000
  H   H430      1.0  0.9066598183146116  0.8064465793860602  0.2859518387356701  1.0000
  H   H431      1.0  0.8777650973951098  0.8073150607695503  0.32653549852441266  1.0000
  H   H432      1.0  0.8654600899529159  0.757178217789992  0.29343834473186137  1.0000
  N   N13       1.0  0.6433838889990915  0.7007319550863738  0.07659850090259734  1.0000
  C   C481      1.0  0.6411369831424059  0.7494087808370224  0.09726523451879365  1.0000
  C   C482      1.0  0.6259642713835744  0.6615649069731475  0.09717774045276273  1.0000
  C   C483      1.0  0.6891205250152689  0.6952079490297116  0.06658404567970333  1.0000
  C   C484      1.0  0.61725472454626  0.6965830642777568  0.04530558419913766  1.0000
  H   H433      1.0  0.6586718025627992  0.7523111668936  0.12188542327113883  1.0000
  H   H434      1.0  0.6070321983016849  0.7556736212506081  0.10407633705634023  1.0000
  H   H435      1.0  0.6557140717786235  0.7801269856502824  0.08338539138429435  1.0000
  H   H436      1.0  0.6460268702312879  0.6619023800194554  0.12025694152686506  1.0000
  H   H437      1.0  0.5920634428551612  0.6660529647785136  0.10634080718482619  1.0000
  H   H438      1.0  0.6252081333659412  0.6244576345864772  0.08187333879991177  1.0000
  H   H439      1.0  0.6916278699144296  0.659951114921121  0.04950499006164577  1.0000
  H   H440      1.0  0.7096685837890455  0.6957861279619273  0.08942577617130798  1.0000
  H   H441      1.0  0.7036910517052059  0.725431723690031  0.05222828364225496  1.0000
  H   H442      1.0  0.6180897678730278  0.6599143980046254  0.029378491775194027  1.0000
  H   H443      1.0  0.6295401679999585  0.7252273724382974  0.029062775341602842  1.0000
  H   H444      1.0  0.582635623797679  0.7007231476256344  0.05175890538239547  1.0000
  N   N14       1.0  0.14785468568718715  0.4082500207820754  0.7195092527016405  1.0000
  C   C485      1.0  0.16953869434163102  0.4476878276261136  0.7446820963549627  1.0000
  C   C486      1.0  0.10117022696658587  0.41441983646383207  0.7183305515101601  1.0000
  C   C487      1.0  0.15262707314185045  0.3596590787855458  0.7298853433666119  1.0000
  C   C488      1.0  0.16797394214692557  0.411322361261071  0.6851688043286792  1.0000
  H   H445      1.0  0.20492304679415738  0.444867510682462  0.746169335367592  1.0000
  H   H446      1.0  0.1553625695620887  0.446272925122269  0.770966180910694  1.0000
  H   H447      1.0  0.16599438304391642  0.48467159043084784  0.7376008252767887  1.0000
  H   H448      1.0  0.09644618162466777  0.4513182566611871  0.711485979162009  1.0000
  H   H449      1.0  0.08403839239378116  0.38597866006965376  0.6990325526434193  1.0000
  H   H450      1.0  0.08475515458508742  0.41131468592960196  0.7436949596105649  1.0000
  H   H451      1.0  0.1394294826461363  0.32901131024012464  0.7101367182978873  1.0000
  H   H452      1.0  0.13506935033549458  0.3546094369024839  0.7544764129963153  1.0000
  H   H453      1.0  0.18741362104757478  0.35526100768033686  0.7332926057214171  1.0000
  H   H454      1.0  0.15228572869797222  0.38205263295571434  0.6655260511895764  1.0000
  H   H455      1.0  0.2032657214451173  0.40682446784026105  0.685095757098896  1.0000
  H   H456      1.0  0.16494049259363874  0.4475163311529915  0.6764669631299616  1.0000
  N   N15       1.0  0.49140017516260254  0.06674186542583271  0.16133051556257705  1.0000
  C   C489      1.0  0.4967608103565753  0.014676036461407804  0.16355543745160173  1.0000
  C   C490      1.0  0.5212117444610874  0.0845755175525369  0.13451763199142652  1.0000
  C   C491      1.0  0.5017385638471322  0.09683566919651376  0.19481530854528373  1.0000
  C   C492      1.0  0.4460905322492387  0.0708289232361139  0.15217959891711752  1.0000
  H   H457      1.0  0.493759115315843  0.991954235039092  0.1379416783733194  1.0000
  H   H458      1.0  0.47187113115501284  0.9980507227388582  0.18087493238933172  1.0000
  H   H459      1.0  0.5294908664254543  0.010969715051261986  0.1733009228152298  1.0000
  H   H460      1.0  0.5552642102469744  0.07871573950046518  0.1390517169306964  1.0000
  H   H461      1.0  0.5121749800476045  0.06494263265276956  0.1086466488935467  1.0000
  H   H462      1.0  0.5205526864531088  0.12453229230768237  0.1337354905076218  1.0000
  H   H463      1.0  0.5357221667422769  0.0945949534904944  0.20254793965063644  1.0000
  H   H464      1.0  0.47944503605750094  0.08464276933560022  0.21549443348610886  1.0000
  H   H465      1.0  0.49859116942567533  0.13642946749349605  0.19406530037975456  1.0000
  H   H466      1.0  0.4410172123421581  0.10987240426993239  0.15075911216796145  1.0000
  H   H467      1.0  0.42235871277184966  0.056637550269048376  0.1712887391076654  1.0000
  H   H468      1.0  0.43753931912343336  0.04925290835104157  0.1267483384383592  1.0000
  N   N16       1.0  0.5372047605112492  0.8260376104683118  0.8130769643032156  1.0000
  C   C493      1.0  0.5700222619271826  0.8428799982206705  0.7878102912071432  1.0000
  C   C494      1.0  0.5443864164628238  0.7762109894365246  0.8198186398202041  1.0000
  C   C495      1.0  0.49303928563045407  0.824597445845912  0.7993453983739656  1.0000
  C   C496      1.0  0.5414092332017689  0.86041253249007  0.8454270249381866  1.0000
  H   H469      1.0  0.568517558557446  0.8169391830371424  0.7634595793218817  1.0000
  H   H470      1.0  0.6037081302798147  0.8456310429334017  0.7977393501485617  1.0000
  H   H471      1.0  0.5649129400414231  0.8799288285202529  0.7814467890307464  1.0000
  H   H472      1.0  0.521170949875924  0.7629816931274167  0.8396486958496183  1.0000
  H   H473      1.0  0.5400870674595925  0.7490592917647785  0.7961070682461315  1.0000
  H   H474      1.0  0.577962028173356  0.7755839479564468  0.829058476293949  1.0000
  H   H475      1.0  0.48658418985207497  0.8617644239000928  0.7941037143492644  1.0000
  H   H476      1.0  0.4674645306549331  0.8120676776654445  0.8178069111734998  1.0000
  H   H477      1.0  0.4884990883708726  0.7989139949357096  0.7749223377370651  1.0000
  H   H478      1.0  0.5163311528874137  0.8495261866549164  0.8647416434103858  1.0000
  H   H479      1.0  0.5372755923123176  0.8986351623185396  0.8410632252261907  1.0000
  H   H480      1.0  0.5740111882715326  0.8615548874217929  0.8568954173664207  1.0000
  N   N17       1.0  0.4934423489706667  0.9859705091818967  0.29459082524768787  1.0000
  C   C497      1.0  0.475683957991194  0.010238887514335104  0.26779226417947877  1.0000
  C   C498      1.0  0.48089865640550217  0.009968539406585819  0.3288161602657107  1.0000
  C   C499      1.0  0.5413667191934927  0.9907278792644192  0.2912857820503594  1.0000
  C   C500      1.0  0.4759692849622466  0.9331509925616892  0.2903394156884129  1.0000
  H   H481      1.0  0.4851070848070194  0.9933756695201215  0.24173577037246607  1.0000
  H   H482      1.0  0.4877035991346998  0.050375153423365404  0.2707936625713301  1.0000
  H   H483      1.0  0.4395620249642856  0.006753971056713937  0.2692444310866251  1.0000
  H   H484      1.0  0.4934422343807903  0.04997651548795723  0.33259712197240665  1.0000
  H   H485      1.0  0.4449020335379082  0.007556822484296788  0.3321008474930216  1.0000
  H   H486      1.0  0.4941018186840441  0.9927657644836003  0.3496588499590607  1.0000
  H   H487      1.0  0.5561086692516017  0.9746944012476266  0.31199371490776695  1.0000
  H   H488      1.0  0.5555009523320975  0.030095489238188833  0.2928573564228061  1.0000
  H   H489      1.0  0.5520537465302574  0.971675066338836  0.2662249543676234  1.0000
  H   H490      1.0  0.48909343774852815  0.9135320228803643  0.309960794895598  1.0000
  H   H491      1.0  0.48468987232693783  0.9140465487150475  0.264670590118389  1.0000
  H   H492      1.0  0.4397678474269929  0.9282036976688648  0.29252627028439226  1.0000
  N   N18       1.0  0.9381730975542214  0.8485146893608029  0.7656237606460614  1.0000
  C   C501      1.0  0.9091546675695181  0.8295806787530289  0.7364556851833877  1.0000
  C   C502      1.0  0.9712012821933258  0.814390328351557  0.7672391114306265  1.0000
  C   C503      1.0  0.9124063590950026  0.8520194950998476  0.7979633466714331  1.0000
  C   C504      1.0  0.9599223426313132  0.8979681397661317  0.7609203499937376  1.0000
  H   H493      1.0  0.8918313916324248  0.7927585265545041  0.7395386784611917  1.0000
  H   H494      1.0  0.9274575238970221  0.8256386358065626  0.7116426780741003  1.0000
  H   H495      1.0  0.8837328821099858  0.8542555349778684  0.7343617859170961  1.0000
  H   H496      1.0  0.955878074740465  0.7763335427290414  0.7695959775883234  1.0000
  H   H497      1.0  0.9923805872290696  0.8120971569731079  0.7437993161883596  1.0000
  H   H498      1.0  0.9927072741686964  0.8268164661046082  0.7896005449582786  1.0000
  H   H499      1.0  0.9331417738079788  0.8675166726630241  0.8204091029391951  1.0000
  H   H500      1.0  0.89598518155792  0.8153118707781193  0.8026920584899262  1.0000
  H   H501      1.0  0.8865432792856835  0.8766409632651726  0.7973880628460144  1.0000
  H   H502      1.0  0.9807680698410133  0.9141603758765857  0.7832086790353996  1.0000
  H   H503      1.0  0.9358076010103429  0.9241419725797009  0.7584201015079906  1.0000
  H   H504      1.0  0.981267820248171  0.8965025013531154  0.7376688279506629  1.0000
  N   N19       1.0  0.33068839295030233  0.5826161034024739  0.8695554057195078  1.0000
  C   C505      1.0  0.3618955295547584  0.595281147355676  0.8420659938997819  1.0000
  C   C506      1.0  0.33609950618394235  0.5330832628078692  0.8779257586314175  1.0000
  C   C507      1.0  0.2859053293945997  0.583029474283741  0.8578130963993811  1.0000
  C   C508      1.0  0.3389802251516037  0.6192336472368414  0.9004527161264058  1.0000
  H   H505      1.0  0.3579625602988327  0.5670984635166842  0.8189886518573459  1.0000
  H   H506      1.0  0.39606847401668066  0.5977794282446887  0.8506407039617305  1.0000
  H   H507      1.0  0.3574373710849711  0.6318579825644903  0.8344226593142361  1.0000
  H   H508      1.0  0.3700236629078706  0.5313060071452611  0.8855906512937373  1.0000
  H   H509      1.0  0.31435217132427723  0.5234525386017435  0.8997310075305851  1.0000
  H   H510      1.0  0.32855665204884776  0.5041442486593137  0.855624438697963  1.0000
  H   H511      1.0  0.2614820662269191  0.5754296883808667  0.8783591293595245  1.0000
  H   H512      1.0  0.2778788450987563  0.5546914226325796  0.8353064606686185  1.0000
  H   H513      1.0  0.28148093524121237  0.6193287068261437  0.8499989836364983  1.0000
  H   H514      1.0  0.33810526334978314  0.6575068542032021  0.8946051328636075  1.0000
  H   H515      1.0  0.3714842199396202  0.6175414006278981  0.9110880517490729  1.0000
  H   H516      1.0  0.31457704557248173  0.6126313060734692  0.9212343954234585  1.0000
  N   N20       1.0  0.020749014583735903  0.6732092425930762  0.9456838103815697  1.0000
  C   C509      1.0  0.04084225400021624  0.6451754181117337  0.915770673755488  1.0000
  C   C510      1.0  0.05205208165499786  0.7150709312399552  0.960350698656331  1.0000
  C   C511      1.0  0.008295026502180614  0.6404875321215382  0.9720472943688643  1.0000
  C   C512      1.0  0.981596916949771  0.6923372266138283  0.9346657350509724  1.0000
  H   H517      1.0  0.01731815562592609  0.6145389482474126  0.9033311826631429  1.0000
  H   H518      1.0  0.06940324039463386  0.6282593168690642  0.9233687554442684  1.0000
  H   H519      1.0  0.05225875625845  0.6692332431142116  0.8959840473710159  1.0000
  H   H520      1.0  0.08196181794686419  0.7020338754706525  0.9689719413011346  1.0000
  H   H521      1.0  0.061703990519552  0.7410167354002155  0.9413609998539476  1.0000
  H   H522      1.0  0.037928581833515995  0.7364428628343056  0.9832822845103761  1.0000
  H   H523      1.0  0.9942216907566828  0.6608401556810701  0.995398837343429  1.0000
  H   H524      1.0  0.03681170490355434  0.6244285592774883  0.9804762904780868  1.0000
  H   H525      1.0  0.983352695079242  0.6094394937358878  0.962419280309506  1.0000
  H   H526      1.0  0.966299046724728  0.7142561032050061  0.9566358250600602  1.0000
  H   H527      1.0  0.9565561816820459  0.6616709142148967  0.9245135417526114  1.0000
  H   H528      1.0  0.9896191014204171  0.716571004885246  0.9143769910123121  1.0000
  N   N21       1.0  0.11819152388386574  0.8823860672808816  0.2298120306241369  1.0000
  C   C513      1.0  0.14099880008179103  0.8380120170536909  0.22897052622168612  1.0000
  C   C514      1.0  0.08255648021137198  0.8810545380233314  0.255708258841024  1.0000
  C   C515      1.0  0.09980355765130833  0.883409183756207  0.1956833798035711  1.0000
  C   C516      1.0  0.14934126431986888  0.9270647055079309  0.23887350301879406  1.0000
  H   H529      1.0  0.16822260565205005  0.8379372587310279  0.20982688676825578  1.0000
  H   H530      1.0  0.11850818948231985  0.8036584518299374  0.2219010339425984  1.0000
  H   H531      1.0  0.15504540261330052  0.8357424490185448  0.2543994877802076  1.0000
  H   H532      1.0  0.09506625234594457  0.8798679352558452  0.2817606000116353  1.0000
  H   H533      1.0  0.06457622049387303  0.9139410666843144  0.2570196584388529  1.0000
  H   H534      1.0  0.05818183628808436  0.8480340605085939  0.24944263243765397  1.0000
  H   H535      1.0  0.08205760690581339  0.9162003917937387  0.195528262687251  1.0000
  H   H536      1.0  0.07626622223025188  0.8500550299929852  0.1879844159803259  1.0000
  H   H537      1.0  0.12566284347315076  0.8848039376403936  0.1754125665752171  1.0000
  H   H538      1.0  0.16445596743729335  0.9271329266869763  0.26425765046871064  1.0000
  H   H539      1.0  0.13309372634687888  0.9611743358559881  0.24012839760239935  1.0000
  H   H540      1.0  0.17618562778990743  0.929729009732668  0.21946758613314676  1.0000
  N   N22       1.0  0.4917134136726861  0.3936633595109651  0.46848092460663615  1.0000
  C   C517      1.0  0.4811743027260941  0.40636493436826093  0.4346136050241567  1.0000
  C   C518      1.0  0.46133273231112165  0.3509366574371864  0.4764219162126526  1.0000
  C   C519      1.0  0.4876448599095885  0.43649048786217826  0.49499695028722046  1.0000
  C   C520      1.0  0.5367891641474007  0.38095396898177647  0.467739749028834  1.0000
  H   H541      1.0  0.5034266139382167  0.4385506295911039  0.42786538285382836  1.0000
  H   H542      1.0  0.4472066043381509  0.4160172012913357  0.4342534833423719  1.0000
  H   H543      1.0  0.4841050469178704  0.3748802741872037  0.4140157421862707  1.0000
  H   H544      1.0  0.46896034194832975  0.33912696562018496  0.5012251285811948  1.0000
  H   H545      1.0  0.42712791434641456  0.3596513317670933  0.4779207976494657  1.0000
  H   H546      1.0  0.4625088365693102  0.3184583459356496  0.45622435904749725  1.0000
  H   H547      1.0  0.49504410181185227  0.42853089935937483  0.521042537356522  1.0000
  H   H548      1.0  0.4542241445663139  0.4475943271797842  0.4960015248013261  1.0000
  H   H549      1.0  0.5103979537724567  0.4692072936771847  0.4898300690399764  1.0000
  H   H550      1.0  0.5463555634929433  0.372159674488163  0.49303688867572015  1.0000
  H   H551      1.0  0.5603931805456046  0.4122645199863051  0.46140607442124715  1.0000
  H   H552      1.0  0.5410260987379724  0.34850097943675706  0.4482547810515696  1.0000
  N   N23       1.0  0.054596068832713764  0.5114268972299243  0.3577146308511354  1.0000
  C   C521      1.0  0.07813252823028238  0.5274700044632361  0.39019818614176716  1.0000
  C   C522      1.0  0.08290637772730844  0.48427001804159  0.3328693958786282  1.0000
  C   C523      1.0  0.04289097466729937  0.5549950036003857  0.3434830488228453  1.0000
  C   C524      1.0  0.014524495830904996  0.47906046459105767  0.36450869591386326  1.0000
  H   H553      1.0  0.056882949605495225  0.545657918702311  0.4100190124723744  1.0000
  H   H554      1.0  0.10742306943749515  0.5540430954891402  0.3866505852179194  1.0000
  H   H555      1.0  0.08932512524468857  0.4956471244937273  0.4007000854127143  1.0000
  H   H556      1.0  0.11283041916954713  0.508316169059869  0.326625049005425  1.0000
  H   H557      1.0  0.09332841896645484  0.4518192993858392  0.34303030019718905  1.0000
  H   H558      1.0  0.06600569920870347  0.4702843419914906  0.30833109283572213  1.0000
  H   H559      1.0  0.02956179835022079  0.5448635608756582  0.31721875033439195  1.0000
  H   H560      1.0  0.0716561588731414  0.5827657061890203  0.3416817158734067  1.0000
  H   H561      1.0  0.017821542807333435  0.5734832217769608  0.3596743365354613  1.0000
  H   H562      1.0  0.021831612622669964  0.44809764808304564  0.377903368982329  1.0000
  H   H563      1.0  0.9975221036244586  0.4628054356019575  0.3403826113012678  1.0000
  H   H564      1.0  0.9910730573586141  0.49958024126467926  0.381139120733621  1.0000
  N   N24       1.0  0.3757097785761562  0.7985079841622991  0.030717844292780017  1.0000
  C   C525      1.0  0.40127284147330267  0.7832709774031468  0.05773451757667569  1.0000
  C   C526      1.0  0.3512087301953735  0.8393449455852586  0.04566591583554591  1.0000
  C   C527      1.0  0.3447941458658171  0.7563783414974541  0.015956557527106563  1.0000
  C   C528      1.0  0.40549196725165476  0.8151841595742884  0.0034418936886806417  1.0000
  H   H565      1.0  0.4264213023954572  0.8136187679683307  0.06823664855538669  1.0000
  H   H566      1.0  0.4186967784282911  0.7511769214525508  0.0474808250329124  1.0000
  H   H567      1.0  0.3802440190287717  0.7724983134370138  0.07954037414067727  1.0000
  H   H568      1.0  0.3321638002974309  0.8522255480860199  0.02574399219068435  1.0000
  H   H569      1.0  0.32812871547693057  0.8280631402787009  0.06616679189795782  1.0000
  H   H570      1.0  0.37354683307883785  0.8714235934346011  0.05745730263781623  1.0000
  H   H571      1.0  0.32137168988313625  0.743076000777533  0.035624499459921743  1.0000
  H   H572      1.0  0.3617948148294354  0.7244537032427729  0.004710025899506309  1.0000
  H   H573      1.0  0.32559291064772233  0.7665085022410505  0.9950963924372234  1.0000
  H   H574      1.0  0.3874037507079758  0.8270420211578795  0.9825305697965403  1.0000
  H   H575      1.0  0.42460450835900576  0.7853538186965228  0.9916455748568231  1.0000
  H   H576      1.0  0.42951464387217453  0.8467219099241632  0.013857399386706826  1.0000
  N   N25       1.0  0.42988322694897496  0.19524161915687976  0.9986203831428475  1.0000
  C   C529      1.0  0.47658745223609045  0.19614221152454014  0.9895074850827936  1.0000
  C   C530      1.0  0.4241096885321918  0.19533952381279818  0.03605508998806983  1.0000
  C   C531      1.0  0.4054407401577281  0.15030571258008152  0.9805269180723437  1.0000
  C   C532      1.0  0.41310463550679516  0.23898852639636736  0.988465177893147  1.0000
  H   H577      1.0  0.4822571816832358  0.19509402130426423  0.9613733820567445  1.0000
  H   H578      1.0  0.4900151096615707  0.16369486060072447  0.9972514470276534  1.0000
  H   H579      1.0  0.4958078171762859  0.2297175441697803  0.0028242113641590016  1.0000
  H   H580      1.0  0.3892654836667324  0.1950473818065408  0.043901059176205015  1.0000
  H   H581      1.0  0.43577149282133826  0.16242701586082298  0.04466238819378199  1.0000
  H   H582      1.0  0.44198303718592524  0.2287467025800609  0.0507197350955082  1.0000
  H   H583      1.0  0.37010397473895124  0.1479766609237494  0.9875125265266043  1.0000
  H   H584      1.0  0.41778189377215225  0.11684550734650578  0.9873639275487465  1.0000
  H   H585      1.0  0.4085364137969233  0.14888043573860443  0.9521712681618868  1.0000
  H   H586      1.0  0.37774346015360594  0.23818690701030398  0.9946300064358793  1.0000
  H   H587      1.0  0.41732669423239843  0.2404332377533862  0.9604505955603799  1.0000
  H   H588      1.0  0.42955394471821073  0.2737657032926588  0.0025741930162261895  1.0000
  N   N26       1.0  0.2960416192986866  0.47344748208531406  0.13396623487589698  1.0000
  C   C533      1.0  0.33261211235116256  0.4573157890073638  0.15106487081211917  1.0000
  C   C534      1.0  0.31143375888083474  0.492458274500871  0.10183984468330554  1.0000
  C   C535      1.0  0.27791913305925536  0.5129694089193038  0.15729343835456033  1.0000
  C   C536      1.0  0.26240088536984246  0.4309682739165819  0.12570522837639153  1.0000
  H   H589      1.0  0.3221436326195888  0.4442348113123167  0.17587619182261705  1.0000
  H   H590      1.0  0.3591940082240271  0.487976303222009  0.1567895900093812  1.0000
  H   H591      1.0  0.3468363837044773  0.4267143034429619  0.13474206470352446  1.0000
  H   H592      1.0  0.28476128383228855  0.5063219999220117  0.0888968798821268  1.0000
  H   H593      1.0  0.3381806975984089  0.5232681526048246  0.10662190256532078  1.0000
  H   H594      1.0  0.32385732767269254  0.46297867226442513  0.08323803401700935  1.0000
  H   H595      1.0  0.30361809981910437  0.5438592166150062  0.16558145142050673  1.0000
  H   H596      1.0  0.26317943161758567  0.49892047865091804  0.18069705462775065  1.0000
  H   H597      1.0  0.25234951980195436  0.5287511895600279  0.14463015523849654  1.0000
  H   H598      1.0  0.24811520876569118  0.41704074850990125  0.1493037204141796  1.0000
  H   H599      1.0  0.2762301481574474  0.39988921258571963  0.10965195639568615  1.0000
  H   H600      1.0  0.23570878390993302  0.4408963816837712  0.11070358426345006  1.0000
  N   N27       1.0  0.6546112335581529  0.06509433358380079  0.741346724126926  1.0000
  C   C537      1.0  0.6978587907323996  0.08101441835227874  0.7567572627153023  1.0000
  C   C538      1.0  0.6578432092092049  0.0230271788976939  0.7140217286883033  1.0000
  C   C539      1.0  0.6394701395521637  0.1063293932360807  0.726357415957442  1.0000
  C   C540      1.0  0.6233557129079144  0.05001964991468277  0.7682317017238707  1.0000
  H   H601      1.0  0.709608954426459  0.05100076534055731  0.7690268944484928  1.0000
  H   H602      1.0  0.6969230781259512  0.11341986044140207  0.776947618072628  1.0000
  H   H603      1.0  0.7226703295727139  0.09141748799209459  0.7371807084276525  1.0000
  H   H604      1.0  0.6257856458953439  0.009702083508065229  0.7019808357124617  1.0000
  H   H605      1.0  0.6812147547449598  0.03326702599387232  0.6933568215254207  1.0000
  H   H606      1.0  0.669415869830998  0.9913133417954647  0.724317295922579  1.0000
  H   H607      1.0  0.6070497615163789  0.0954481967341021  0.7143552084375813  1.0000
  H   H608      1.0  0.662478038841247  0.11883825543216098  0.7062170586731065  1.0000
  H   H609      1.0  0.6365204219607117  0.13874461732140198  0.7461486281246574  1.0000
  H   H610      1.0  0.6203266366473429  0.08099142664827674  0.7892625261981343  1.0000
  H   H611      1.0  0.6339117338035877  0.01908969486777501  0.7801787830829094  1.0000
  H   H612      1.0  0.5903660717198063  0.037151114989697476  0.7576995126135051  1.0000
  N   N28       1.0  0.7750187832601276  0.27300742108983833  0.7732672896468826  1.0000
  C   C541      1.0  0.7355256018764355  0.2606072572533993  0.7522819015935678  1.0000
  C   C542      1.0  0.8020719959738444  0.23187972715915706  0.7672153631810534  1.0000
  C   C543      1.0  0.7623625644965837  0.28148082217614245  0.8099552215235795  1.0000
  C   C544      1.0  0.8000045097227917  0.31823733251520636  0.763473020257293  1.0000
  H   H613      1.0  0.7146682524124665  0.29105669519900523  0.7564644004480612  1.0000
  H   H614      1.0  0.7158100441834456  0.22656107300216455  0.7588882645866266  1.0000
  H   H615      1.0  0.7436949495300554  0.2549180799261421  0.7243813407983133  1.0000
  H   H616      1.0  0.784726948508654  0.19734078616620998  0.7751661253699673  1.0000
  H   H617      1.0  0.8112396630072166  0.223885483212106  0.739643388537341  1.0000
  H   H618      1.0  0.8327357568871802  0.24054293944112537  0.7819078858390247  1.0000
  H   H619      1.0  0.7913111706761446  0.29234352799366015  0.8265254537667124  1.0000
  H   H620      1.0  0.7442387596672255  0.24773425278097072  0.8185393289278511  1.0000
  H   H621      1.0  0.7413473900604933  0.31175251362875933  0.8151424690217799  1.0000
  H   H622      1.0  0.8298275563317518  0.3289952464404049  0.778930572251396  1.0000
  H   H623      1.0  0.7805127615350653  0.3501010057321068  0.767246444439976  1.0000
  H   H624      1.0  0.8106362625944199  0.3130692888383866  0.7361005187077727  1.0000
  N   N29       1.0  0.8124380903091204  0.39652685532425735  0.5759907840731149  1.0000
  C   C545      1.0  0.8134774843614389  0.37310841641403947  0.5399055093342016  1.0000
  C   C546      1.0  0.843567157967489  0.37565262723480686  0.5960470949973145  1.0000
  C   C547      1.0  0.7679385285231831  0.38695037779681307  0.5902497419277162  1.0000
  C   C548      1.0  0.8246388910091194  0.4503216196261146  0.5776061823442902  1.0000
  H   H625      1.0  0.8054452852070062  0.3323560777476047  0.5380417260266377  1.0000
  H   H626      1.0  0.8463130219021514  0.3801723937500707  0.5279691126191519  1.0000
  H   H627      1.0  0.789398397437573  0.38701545155563544  0.5243276200169369  1.0000
  H   H628      1.0  0.8440566866741619  0.3928118198076973  0.6233589229333831  1.0000
  H   H629      1.0  0.8350585603203121  0.335079045522372  0.5954853073645472  1.0000
  H   H630      1.0  0.8773457733995718  0.3815629681470991  0.5855420955339055  1.0000
  H   H631      1.0  0.7660476324072641  0.40268953434419075  0.6177849526882486  1.0000
  H   H632      1.0  0.7572351376202305  0.34665784821916645  0.5884154778697859  1.0000
  H   H633      1.0  0.7437806160102529  0.4030186729313048  0.5759514876528731  1.0000
  H   H634      1.0  0.8577982826050551  0.4589757785546098  0.5666151025901716  1.0000
  H   H635      1.0  0.8243796230857855  0.46921027978270047  0.6045122486493071  1.0000
  H   H636      1.0  0.8016314780200491  0.4670898432144579  0.5628212501223562  1.0000
  N   N30       1.0  0.9409298628589488  0.14363990097293744  0.819406027894817  1.0000
  C   C549      1.0  0.9231960747785726  0.1543220416939608  0.7871051538849616  1.0000
  C   C550      1.0  0.9646618327858866  0.1891420270378017  0.8375469264392876  1.0000
  C   C551      1.0  0.9712482303046925  0.10599990337859921  0.8114900423557505  1.0000
  C   C552      1.0  0.9048548324757711  0.12489360686722328  0.8413732406064254  1.0000
  H   H637      1.0  0.9057917677172649  0.12043219579028275  0.7724867340539299  1.0000
  H   H638      1.0  0.9496219091910076  0.16849583816197367  0.7699140882692586  1.0000
  H   H639      1.0  0.899733205346052  0.18215424670497882  0.7921606876428751  1.0000
  H   H640      1.0  0.9915389979360446  0.20469542553296094  0.8212649620352699  1.0000
  H   H641      1.0  0.9427279716401602  0.21813626812937414  0.8445834865548276  1.0000
  H   H642      1.0  0.9791089288341068  0.18199963592333823  0.8616687728565999  1.0000
  H   H643      1.0  0.9552565020304874  0.07213377341516214  0.7959573658769168  1.0000
  H   H644      1.0  0.9833012422869735  0.09456355283187357  0.8351940720421602  1.0000
  H   H645      1.0  0.9998938987557521  0.11985289762248286  0.7962860174831561  1.0000
  H   H646      1.0  0.8809493598170305  0.1520332501639583  0.847614752208695  1.0000
  H   H647      1.0  0.9169223661309613  0.11665217165690045  0.8660628046463792  1.0000
  H   H648      1.0  0.8868943808357157  0.0901651783019588  0.8284774203138152  1.0000
  N   N31       1.0  0.8132682124032438  0.1828396455810566  0.03894021615059984  1.0000
  C   C553      1.0  0.8179186823377592  0.13639815253771737  0.05247346872537717  1.0000
  C   C554      1.0  0.7945533544713865  0.21704146855008766  0.06599604113171065  1.0000
  C   C555      1.0  0.7838485322692377  0.17290668547726717  0.0093042297289756  1.0000
  C   C556      1.0  0.8564269527520685  0.20505653652782385  0.0280673771737856  1.0000
  H   H649      1.0  0.8307707472639602  0.1092210407300751  0.03245855826008981  1.0000
  H   H650      1.0  0.7860453240281824  0.1190761245758356  0.06119291988927911  1.0000
  H   H651      1.0  0.8402279211748852  0.1427321350330324  0.07467850855480496  1.0000
  H   H652      1.0  0.8154386853472227  0.22579832518658627  0.08902405796825752  1.0000
  H   H653      1.0  0.7903843544359703  0.25245820389102747  0.05654374804858886  1.0000
  H   H654      1.0  0.7617215188459368  0.20138550442205627  0.07445304540476894  1.0000
  H   H655      1.0  0.7966811033964613  0.14750287331471945  0.9879209360066175  1.0000
  H   H656      1.0  0.7791571054831425  0.20746983351451576  0.9989586567973925  1.0000
  H   H657      1.0  0.7508783448927028  0.1563961195021477  0.016684310384339263  1.0000
  H   H658      1.0  0.8711440156676162  0.17978694930365613  0.007616278610216298  1.0000
  H   H659      1.0  0.8792435785237798  0.214036619034065  0.049957360176146715  1.0000
  H   H660      1.0  0.853940170604208  0.23992954366866392  0.017398657501590975  1.0000
  N   N32       1.0  0.6220054615316805  0.7765537190719822  0.4028566832865619  1.0000
  C   C557      1.0  0.6514912483407961  0.7530685992593256  0.4226775214076066  1.0000
  C   C558      1.0  0.6473113400965451  0.8021405985617545  0.3767326806928315  1.0000
  C   C559      1.0  0.5996173006401752  0.8123305930060649  0.42638611014070227  1.0000
  C   C560      1.0  0.5892550881705924  0.7384445293784871  0.3856265299503545  1.0000
  H   H661      1.0  0.633318577242636  0.7340487744002857  0.442808196113297  1.0000
  H   H662      1.0  0.6768688284687125  0.7806967223838832  0.43583094102631526  1.0000
  H   H663      1.0  0.668369550449771  0.7249724793940526  0.4058534936770384  1.0000
  H   H664      1.0  0.6257738824428313  0.8190150443536481  0.36072117606539456  1.0000
  H   H665      1.0  0.6714888149255926  0.8323103176471083  0.38876932930125285  1.0000
  H   H666      1.0  0.6653530402598792  0.7761451289302634  0.35911401612398786  1.0000
  H   H667      1.0  0.6227046316165767  0.8436227528777263  0.43826000277875066  1.0000
  H   H668      1.0  0.5823022114646003  0.7948600105931067  0.4476036118317559  1.0000
  H   H669      1.0  0.5747501490368077  0.8277865531580542  0.41271380878465136  1.0000
  H   H670      1.0  0.6048973168778633  0.7102628033146807  0.3680609188250017  1.0000
  H   H671      1.0  0.5665668580170199  0.7548405022095093  0.370243288122464  1.0000
  H   H672      1.0  0.5692014819799732  0.7191079815404766  0.4046872865550264  1.0000
  N   N33       1.0  0.15272617692549037  0.4865561645472045  0.5209634442233888  1.0000
  C   C561      1.0  0.16836646633741895  0.4466299998799972  0.5370293040541343  1.0000
  C   C562      1.0  0.10583706029669121  0.48791029873542335  0.5286792642288058  1.0000
  C   C563      1.0  0.1593923608103976  0.4771666217190287  0.4833541426320238  1.0000
  C   C564      1.0  0.1772889901156942  0.5342676597251099  0.5347638799290264  1.0000
  H   H673      1.0  0.15120908874266675  0.409896576100401  0.5269851711562525  1.0000
  H   H674      1.0  0.1638129397520006  0.4520600516004425  0.565392821455796  1.0000
  H   H675      1.0  0.2035427029154357  0.4445131538696163  0.5316239577934208  1.0000
  H   H676      1.0  0.09308584307139435  0.5176227069719772  0.5167493455875345  1.0000
  H   H677      1.0  0.08665472824265914  0.4522975957288704  0.5184659578194375  1.0000
  H   H678      1.0  0.09940188689741089  0.4942584312236544  0.5568309821971877  1.0000
  H   H679      1.0  0.15199918761627723  0.5088771420593208  0.47062489836301546  1.0000
  H   H680      1.0  0.13851059479571406  0.44369908676803327  0.4717398637400003  1.0000
  H   H681      1.0  0.19351239538249562  0.47069522513505646  0.47663425827661543  1.0000
  H   H682      1.0  0.16781741966428423  0.5651251723636115  0.522149838165336  1.0000
  H   H683      1.0  0.21295402965818083  0.5337334022998537  0.5303917712093003  1.0000
  H   H684      1.0  0.17206104420084142  0.5432139689664481  0.5629178652714582  1.0000
  N   N34       1.0  0.33632153359815053  0.5674528926086921  0.7275500288830163  1.0000
  C   C565      1.0  0.303944709218617  0.5535297696586543  0.7539504137793593  1.0000
  C   C566      1.0  0.33440420482090794  0.5278559759141874  0.6981300960247556  1.0000
  C   C567      1.0  0.38040964226917534  0.5744005833244277  0.7421259954228425  1.0000
  C   C568      1.0  0.3266073401579926  0.6136827795967701  0.7158512792564098  1.0000
  H   H685      1.0  0.2708599857444333  0.5443911160111607  0.7429010534297302  1.0000
  H   H686      1.0  0.30225075767468496  0.5842241792609233  0.7753384460942643  1.0000
  H   H687      1.0  0.3115631219249596  0.5203231052228681  0.76477299089506  1.0000
  H   H688      1.0  0.3015043286220108  0.5198908095501888  0.6870424053607667  1.0000
  H   H689      1.0  0.3576833169201597  0.5375662604218423  0.677280591678326  1.0000
  H   H690      1.0  0.342416866981065  0.49302075827532654  0.7060313056314103  1.0000
  H   H691      1.0  0.4057352671387741  0.5830358641910163  0.7224152384198796  1.0000
  H   H692      1.0  0.3883822469714038  0.5404391489418465  0.7517404551507245  1.0000
  H   H693      1.0  0.3837280508012438  0.6050019969619456  0.7637315864000547  1.0000
  H   H694      1.0  0.33056068667386584  0.6452843108630901  0.736853707548168  1.0000
  H   H695      1.0  0.2926831074613744  0.6104492699967725  0.7066322531162221  1.0000
  H   H696      1.0  0.348549797363272  0.6234298910963805  0.6942743001381348  1.0000
  N   N35       1.0  0.9613798145302562  0.5481658179480977  0.7779747257685048  1.0000
  C   C569      1.0  0.9895370048266225  0.5272720381836145  0.7500782375979567  1.0000
  C   C570      1.0  0.9252550434953353  0.510370326199947  0.7847204326564157  1.0000
  C   C571      1.0  0.943639898792278  0.5912875544515739  0.7675775682264279  1.0000
  C   C572      1.0  0.9870857304521576  0.5636138358357012  0.8094616336333327  1.0000
  H   H697      1.0  0.9712389574997399  0.5160448398342652  0.7257977309215979  1.0000
  H   H698      1.0  0.002803316712799875  0.4940553119968083  0.7567497747175236  1.0000
  H   H699      1.0  0.01770666539469623  0.5544021724057586  0.7448936264326709  1.0000
  H   H700      1.0  0.9068123986900913  0.49537782645780126  0.760968341635941  1.0000
  H   H701      1.0  0.937314013757595  0.4788011896789577  0.7946884874523779  1.0000
  H   H702      1.0  0.9019912823802315  0.5254221298036068  0.8043791911993083  1.0000
  H   H703      1.0  0.9210299093450477  0.6070524248354019  0.7875036768630261  1.0000
  H   H704      1.0  0.9250010217697959  0.580856036322702  0.7434012872222215  1.0000
  H   H705      1.0  0.970041392924552  0.6209541482669412  0.7629371120030117  1.0000
  H   H706      1.0  0.9665569484162478  0.5782008931160618  0.8313179631246275  1.0000
  H   H707      1.0  0.014703467855370134  0.5921424950390453  0.8055152097053417  1.0000
  H   H708      1.0  0.0013296969779679202  0.5318493695779622  0.8175578797544003  1.0000
  N   N36       1.0  0.6576572711866436  0.5194441835442714  0.8377278101279817  1.0000
  C   C573      1.0  0.6754393387952384  0.48434977605914575  0.8106174354131692  1.0000
  C   C574      1.0  0.6127188158436152  0.5259891417217517  0.829157962336502  1.0000
  C   C575      1.0  0.6852149325652465  0.5674297037973073  0.8404083159174802  1.0000
  C   C576      1.0  0.65738457032432  0.4999833569376868  0.8709113671810718  1.0000
  H   H709      1.0  0.6548058210708713  0.4481529389613623  0.8072472431676774  1.0000
  H   H710      1.0  0.7087416823235747  0.4771901771244824  0.81686655328319  1.0000
  H   H711      1.0  0.6774866793724154  0.4985828055801953  0.7855132192200172  1.0000
  H   H712      1.0  0.6117540023039041  0.5427304636083097  0.8050662979752561  1.0000
  H   H713      1.0  0.5914181243131118  0.4901736488892059  0.8259366896653786  1.0000
  H   H714      1.0  0.5977474471420811  0.5505438646253289  0.8498968999381633  1.0000
  H   H715      1.0  0.6845467707592372  0.5850265082659707  0.8166405266568253  1.0000
  H   H716      1.0  0.7196260790502097  0.5633283397825704  0.8454231273467316  1.0000
  H   H717      1.0  0.6742731864047242  0.5935835186108651  0.8620889491255612  1.0000
  H   H718      1.0  0.6909517883675321  0.49760012079113203  0.8791337713054794  1.0000
  H   H719      1.0  0.6395574025438504  0.4623769173329162  0.869279105923539  1.0000
  H   H720      1.0  0.6416345583266545  0.5240291997518618  0.8916124780551544  1.0000
  N   N37       1.0  0.05100653357117221  0.8122793399557668  0.45881980408191403  1.0000
  C   C577      1.0  0.019333202364996745  0.8411995945226867  0.47888102731292204  1.0000
  C   C578      1.0  0.05080725094527083  0.7643924318518955  0.47175960354714963  1.0000
  C   C579      1.0  0.09508535970420978  0.8396658490034454  0.4624675863561323  1.0000
  C   C580      1.0  0.038841651160595035  0.8036308744583778  0.42224480391762276  1.0000
  H   H721      1.0  0.01743354465983149  0.876870227020369  0.4690226465245151  1.0000
  H   H722      1.0  0.028550858786302494  0.8498227258257334  0.5063925644599547  1.0000
  H   H723      1.0  0.9860681654103717  0.8205684701945355  0.47772324892243034  1.0000
  H   H724      1.0  0.07611015686175561  0.7430190491034008  0.45864037256313184  1.0000
  H   H725      1.0  0.057086690202866615  0.7692136634188849  0.49979463637887234  1.0000
  H   H726      1.0  0.019101857641036196  0.741054392647408  0.4672500078250481  1.0000
  H   H727      1.0  0.11953487003781682  0.8197959600106604  0.44653643729374526  1.0000
  H   H728      1.0  0.10600218692225814  0.8444784380776316  0.489585066609989  1.0000
  H   H729      1.0  0.09607929432529129  0.8771552800868694  0.454706990033372  1.0000
  H   H730      1.0  0.06216758391940719  0.7819146218944493  0.40637958318728495  1.0000
  H   H731      1.0  0.03821907714702166  0.8389919481765471  0.41165411389300566  1.0000
  H   H732      1.0  0.006028250718550229  0.7821842390927962  0.41863354571083367  1.0000
  N   N38       1.0  0.23539166333402717  0.01930490147692332  0.8879109108243286  1.0000
  C   C581      1.0  0.22063365285331815  0.966840451413848  0.875868651567191  1.0000
  C   C582      1.0  0.2285263702666862  0.04954887590734103  0.8606991225637417  1.0000
  C   C583      1.0  0.28215899006221323  0.0248774556014002  0.89612010193692  1.0000
  C   C584      1.0  0.21030193937985953  0.035977877964652905  0.9190302259397116  1.0000
  H   H733      1.0  0.22542450501373623  0.9429889777571301  0.8958048103847478  1.0000
  H   H734      1.0  0.23906439310304428  0.9530116333411929  0.8524708318940717  1.0000
  H   H735      1.0  0.1854089882410026  0.9611325161852484  0.8694756748721426  1.0000
  H   H736      1.0  0.23795435703005485  0.08960189122209883  0.8693779976821001  1.0000
  H   H737      1.0  0.248005997166306  0.03900211857413538  0.8371774794472326  1.0000
  H   H738      1.0  0.19373585503648671  0.045185347309001145  0.8532601892811309  1.0000
  H   H739      1.0  0.29417654069333543  0.06396143277537014  0.9057389260119022  1.0000
  H   H740      1.0  0.3022040685866052  0.012996080325644144  0.8731774181685377  1.0000
  H   H741      1.0  0.2884658479929292  0.0020562406811350797  0.9163111852764407  1.0000
  H   H742      1.0  0.21928367592459863  0.07603153002794372  0.9279927382325468  1.0000
  H   H743      1.0  0.21609009944079216  0.01533290255966513  0.940549743666482  1.0000
  H   H744      1.0  0.17477580003963267  0.030504167583845998  0.9141383065926698  1.0000
  N   N39       1.0  0.5202831384190622  0.3948565976697527  0.0903770268082007  1.0000
  C   C585      1.0  0.5173755841765987  0.3433444922918465  0.07327484835355436  1.0000
  C   C586      1.0  0.48778882064655404  0.39810230423585224  0.11855399126836841  1.0000
  C   C587      1.0  0.5114568721456881  0.42749131923813266  0.06516017953946585  1.0000
  C   C588      1.0  0.5641224346631684  0.4106483922024484  0.1047227714889345  1.0000
  H   H745      1.0  0.5408074099611668  0.33960036703036955  0.05131970110434514  1.0000
  H   H746      1.0  0.48413148446106824  0.3305915735364149  0.06310134283031488  1.0000
  H   H747      1.0  0.5242239034818571  0.3176094303989174  0.09140116798212872  1.0000
  H   H748      1.0  0.4892925736134983  0.43631534175978004  0.1320292207693332  1.0000
  H   H749      1.0  0.45416669765405576  0.38770186396140893  0.10873696856995974  1.0000
  H   H750      1.0  0.4930315375813868  0.3735232457482205  0.13789130595262256  1.0000
  H   H751      1.0  0.5117060548632738  0.46644701139128486  0.0773515332590553  1.0000
  H   H752      1.0  0.47896056847292884  0.41603839448962  0.05333401648924618  1.0000
  H   H753      1.0  0.5361537415267733  0.42705393758303956  0.04401819033732424  1.0000
  H   H754      1.0  0.5666769719680455  0.4492901978983497  0.11806297066826232  1.0000
  H   H755      1.0  0.5896776450942254  0.40940694944182  0.08425457357081734  1.0000
  H   H756      1.0  0.5718532819571935  0.38681402595689285  0.1238347398891535  1.0000
  N   N40       1.0  0.7063785779531236  0.8049746595707141  0.6982758369490583  1.0000
  C   C589      1.0  0.7470637474420816  0.8369510866656888  0.7078494612357478  1.0000
  C   C590      1.0  0.6706139996477776  0.8215309972365752  0.7210395306506507  1.0000
  C   C591      1.0  0.712128842966303  0.7536322720610293  0.702209355445774  1.0000
  C   C592      1.0  0.6960120786720415  0.8076305255963465  0.6621907063785368  1.0000
  H   H757      1.0  0.7446875634508913  0.8758126862467499  0.704291833085652  1.0000
  H   H758      1.0  0.7751444701671267  0.8244323246398721  0.6922151848781097  1.0000
  H   H759      1.0  0.7548975672757702  0.8363885236743034  0.7352242216968361  1.0000
  H   H760      1.0  0.6392777816034614  0.7983389266816214  0.7144165079153177  1.0000
  H   H761      1.0  0.6773410818348856  0.8190698925927773  0.7484026007185816  1.0000
  H   H762      1.0  0.6661805932976721  0.8605987243098614  0.7192830564176691  1.0000
  H   H763      1.0  0.6818108744063572  0.7285022984426384  0.6964412483650979  1.0000
  H   H764      1.0  0.7217433732802595  0.750414273055318  0.7288285231584402  1.0000
  H   H765      1.0  0.7373273070942393  0.7393722473316569  0.6842293292123767  1.0000
  H   H766      1.0  0.6917512681711816  0.8459213221274666  0.6580891211110127  1.0000
  H   H767      1.0  0.6653964528193496  0.7837081562535673  0.6542585459470769  1.0000
  H   H768      1.0  0.7223679703037862  0.7951014999803725  0.6444445105609677  1.0000
  N   N41       1.0  0.671485178532967  0.6791921215880592  0.5366941501966371  1.0000
  C   C593      1.0  0.6509609962385182  0.7164667767193471  0.52115557566183  1.0000
  C   C594      1.0  0.673772004861853  0.6347552288948819  0.5112166786376031  1.0000
  C   C595      1.0  0.6453788674707752  0.6659060010075635  0.5668451224409883  1.0000
  C   C596      1.0  0.7158681813639676  0.6999389956051729  0.5476474437590713  1.0000
  H   H769      1.0  0.670946711033402  0.7291691243536942  0.49937524805214695  1.0000
  H   H770      1.0  0.6472717853163287  0.7496982794906693  0.5402090633801322  1.0000
  H   H771      1.0  0.6180303618774494  0.7015107601755091  0.511425377191256  1.0000
  H   H772      1.0  0.689233062084805  0.6059245687062234  0.5220470112488274  1.0000
  H   H773      1.0  0.6407958949184946  0.6175843266957184  0.5028008699013604  1.0000
  H   H774      1.0  0.6930511449121604  0.6435842073561329  0.4880237018933484  1.0000
  H   H775      1.0  0.6120524697038342  0.6491961439695544  0.5593871669409389  1.0000
  H   H776      1.0  0.6422509694368076  0.6988188581277797  0.5862655541789108  1.0000
  H   H777      1.0  0.6603215443059653  0.6388721675816527  0.5798489321040128  1.0000
  H   H778      1.0  0.7337281452445122  0.6717449918518028  0.5567058101515152  1.0000
  H   H779      1.0  0.7149447622635517  0.7305302722081617  0.5691891457112823  1.0000
  H   H780      1.0  0.7353901927553854  0.714596872737939  0.5262681740045227  1.0000
  N   N42       1.0  0.8434475591155963  0.8948077493107753  0.2050854852693873  1.0000
  C   C597      1.0  0.8384472182822682  0.937106586726884  0.23178993359582423  1.0000
  C   C598      1.0  0.8246040713486481  0.8487749810585861  0.21786143811302505  1.0000
  C   C599      1.0  0.8901285678935251  0.8925337324065499  0.19688949835655967  1.0000
  C   C600      1.0  0.8205557215680013  0.9007881532430773  0.17377882834241465  1.0000
  H   H781      1.0  0.8036426349345634  0.939242291069819  0.2389784444381573  1.0000
  H   H782      1.0  0.851609171520898  0.9726539786604782  0.22289199084584466  1.0000
  H   H783      1.0  0.8557735022026759  0.9339859813625004  0.2556711365134636  1.0000
  H   H784      1.0  0.8274342616382367  0.8162626932185777  0.19819728933769865  1.0000
  H   H785      1.0  0.8412861097407525  0.8427810669058662  0.24133567611170825  1.0000
  H   H786      1.0  0.7893430273747812  0.8491830195395256  0.2243809315820764  1.0000
  H   H787      1.0  0.8951306617069884  0.8607200104893931  0.17705460372711634  1.0000
  H   H788      1.0  0.9085989211261732  0.8883001466705824  0.21990611966635765  1.0000
  H   H789      1.0  0.9049760917050172  0.9264573384477544  0.1866424468925154  1.0000
  H   H790      1.0  0.8232944492778319  0.868974378563049  0.1532762210512435  1.0000
  H   H791      1.0  0.8343450817343496  0.9348264286470087  0.16315396205056487  1.0000
  H   H792      1.0  0.7853568011950132  0.9031158247664823  0.17914456010385127  1.0000
  N   N43       1.0  0.720489918534371  0.44076210720641384  0.1527497076881974  1.0000
  C   C601      1.0  0.6961827549094183  0.4124497979684598  0.12326101937742973  1.0000
  C   C602      1.0  0.7532817110860187  0.47787073046014683  0.14013981594294345  1.0000
  C   C603      1.0  0.7427085583294899  0.40712781965452116  0.1705599816990755  1.0000
  C   C604      1.0  0.6899909384972369  0.4655585318345157  0.17694849783997024  1.0000
  H   H793      1.0  0.6778911287164362  0.436615010459235  0.1099806621791215  1.0000
  H   H794      1.0  0.6726822357387252  0.38234145356936367  0.13148099941037117  1.0000
  H   H795      1.0  0.7186202717695649  0.39507055142800596  0.1038573359635202  1.0000
  H   H796      1.0  0.7380941295771988  0.5026144738488902  0.12542152082358493  1.0000
  H   H797      1.0  0.7716392694933605  0.5012246077358942  0.16156513571591669  1.0000
  H   H798      1.0  0.7773010985556537  0.46002138178634056  0.1224956068425771  1.0000
  H   H799      1.0  0.7677593199898893  0.38980443171042545  0.15362068646835558  1.0000
  H   H800      1.0  0.7194198782994778  0.37682584191556856  0.17877016997279993  1.0000
  H   H801      1.0  0.759647507761444  0.4270307979512964  0.1937966319126747  1.0000
  H   H802      1.0  0.7075756975982956  0.48930687691863106  0.19858651383678128  1.0000
  H   H803      1.0  0.6656186988280125  0.43851423320505845  0.18775656708879596  1.0000
  H   H804      1.0  0.6714672958485007  0.489951549356336  0.1642118514488795  1.0000
  N   N44       1.0  0.7845745719659017  0.11318130445672381  0.18599498434042427  1.0000
  C   C605      1.0  0.8097939867337691  0.09875199659182954  0.21351451309491898  1.0000
  C   C606      1.0  0.782018759131391  0.07380658853896271  0.15629483999698968  1.0000
  C   C607      1.0  0.8062708997706128  0.1595113404124433  0.17523610669850953  1.0000
  C   C608      1.0  0.7403129495528461  0.12092065726766421  0.1990071582287012  1.0000
  H   H805      1.0  0.795793037442739  0.06265477039349676  0.22117346360289014  1.0000
  H   H806      1.0  0.8110416890314956  0.12688414266357917  0.23665884052724673  1.0000
  H   H807      1.0  0.8442251033318786  0.09586967180549877  0.20539902962529544  1.0000
  H   H808      1.0  0.7647238369451943  0.038604263719978604  0.1631865262366481  1.0000
  H   H809      1.0  0.7642431574691702  0.08421416384079627  0.1347114278573498  1.0000
  H   H810      1.0  0.81510249080494  0.06621691363902116  0.14666142526193582  1.0000
  H   H811      1.0  0.7872002784890135  0.1727554289129376  0.15552203067085424  1.0000
  H   H812      1.0  0.8393067707045212  0.1545990422604966  0.16434415554754  1.0000
  H   H813      1.0  0.8103490865218814  0.18943272409241274  0.19739290922825425  1.0000
  H   H814      1.0  0.7212660985867987  0.13472165895347388  0.17962895998474382  1.0000
  H   H815      1.0  0.7413429880869291  0.1489945285133185  0.22221498077783108  1.0000
  H   H816      1.0  0.7219678154544975  0.08627073380208827  0.2059005942082477  1.0000
  N   N45       1.0  0.16212868720674206  0.10600376429325209  0.315706546501906  1.0000
  C   C609      1.0  0.1358735124000626  0.14442612455231085  0.3080174804529703  1.0000
  C   C610      1.0  0.1382680084375903  0.07678871340931614  0.34058840534026213  1.0000
  C   C611      1.0  0.20396493912118924  0.12963259662636695  0.3304722638039892  1.0000
  C   C612      1.0  0.17046050272950256  0.07321095913107278  0.28377219438872014  1.0000
  H   H817      1.0  0.10407283958136632  0.12781185228035952  0.2966970068422845  1.0000
  H   H818      1.0  0.1533207245351776  0.16742683356689447  0.2895754408389202  1.0000
  H   H819      1.0  0.12899390363466404  0.16976074404567676  0.33164103654625077  1.0000
  H   H820      1.0  0.1048777947560614  0.06218723490734668  0.33175546821826085  1.0000
  H   H821      1.0  0.15493887206594248  0.044468087608587226  0.34420844430391107  1.0000
  H   H822      1.0  0.13555339474906009  0.09913616787562063  0.3662063991823059  1.0000
  H   H823      1.0  0.22328520436753052  0.1019245613232247  0.33877556921446805  1.0000
  H   H824      1.0  0.19891025444201021  0.15713661670876  0.3532530417941473  1.0000
  H   H825      1.0  0.22381494391212584  0.14947413381072394  0.3114726904653278  1.0000
  H   H826      1.0  0.13968742817932875  0.052738176039653695  0.2731068455601693  1.0000
  H   H827      1.0  0.19217046751214753  0.04539639913518023  0.288286959105696  1.0000
  H   H828      1.0  0.18633630378595278  0.09425633453209059  0.2635589454695748  1.0000
  N   N46       1.0  0.2521295727236045  0.6210851877366732  0.26766017118654517  1.0000
  C   C613      1.0  0.25558365069229905  0.5687819461423871  0.2545919081787731  1.0000
  C   C614      1.0  0.29613659888641936  0.6483315800610026  0.27236795635890476  1.0000
  C   C615      1.0  0.22849062493086114  0.6243360599925527  0.3009390355269894  1.0000
  C   C616      1.0  0.22813090491726637  0.6427441955538384  0.24273724244470096  1.0000
  H   H829      1.0  0.2721966023129424  0.550799502309264  0.27324931749217574  1.0000
  H   H830      1.0  0.274820773896538  0.5650249668552387  0.23029809123118317  1.0000
  H   H831      1.0  0.22285609485684493  0.5473929822471941  0.25005251531749195  1.0000
  H   H832      1.0  0.29454412411763853  0.6879377816964052  0.2824428061537674  1.0000
  H   H833      1.0  0.3152289030075938  0.6322453620444097  0.2906947799322759  1.0000
  H   H834      1.0  0.3150222293576564  0.6466783172700694  0.24777418284883623  1.0000
  H   H835      1.0  0.24615399297827126  0.6089465137389531  0.32047897138637627  1.0000
  H   H836      1.0  0.19571550149114547  0.602639998707291  0.29846621099058646  1.0000
  H   H837      1.0  0.2241939482655482  0.6632471092772114  0.31118923732598325  1.0000
  H   H838      1.0  0.194791367158469  0.6228075302203049  0.2387845918525775  1.0000
  H   H839      1.0  0.24498472383144415  0.6407313849725611  0.21729346859772436  1.0000
  H   H840      1.0  0.22486563205653073  0.6822853894232033  0.2517161509468815  1.0000
  N   N47       1.0  0.40874717276432415  0.7286381324037752  0.6173588962049759  1.0000
  C   C617      1.0  0.40412759641975876  0.7478560219331776  0.5845533262061235  1.0000
  C   C618      1.0  0.4088456498483276  0.6744836771857798  0.6108968832919812  1.0000
  C   C619      1.0  0.37188808567315734  0.7406903250483303  0.6405251204810165  1.0000
  C   C620      1.0  0.4500997030294123  0.7516541930385188  0.633468150506677  1.0000
  H   H841      1.0  0.43231711629574826  0.7412657741043152  0.5669433308574447  1.0000
  H   H842      1.0  0.4019790529830565  0.7882779336628261  0.5889159518178886  1.0000
  H   H843      1.0  0.37398058434860365  0.7301352471829521  0.5711260655724408  1.0000
  H   H844      1.0  0.43606384943983995  0.6639569937452148  0.5933324470804586  1.0000
  H   H845      1.0  0.41223208568198055  0.6588778012732384  0.6352031597177867  1.0000
  H   H846      1.0  0.3780560063587628  0.6559082960456024  0.5988612936754261  1.0000
  H   H847      1.0  0.37104510346562775  0.7813426007186202  0.6461080693132586  1.0000
  H   H848      1.0  0.37435331381616943  0.7267075126699307  0.6655518102069355  1.0000
  H   H849      1.0  0.3401675089302376  0.7241059834946153  0.6289692610705795  1.0000
  H   H850      1.0  0.4541862513338908  0.739184627750765  0.6587428054842048  1.0000
  H   H851      1.0  0.45158166309729847  0.7925375974737836  0.6380040772027029  1.0000
  H   H852      1.0  0.47866896426633143  0.7426650209166326  0.617010639140001  1.0000
  N   N48       1.0  0.7880898327511369  0.41249570944005143  0.4182475657437408  1.0000
  C   C621      1.0  0.7730125204560547  0.38853951912484774  0.4485588179987907  1.0000
  C   C622      1.0  0.7587755756465531  0.4491984767688084  0.4127650446317266  1.0000
  C   C623      1.0  0.7876576701913597  0.3745968820447185  0.3877553897916841  1.0000
  C   C624      1.0  0.8328166554349398  0.43753190934719655  0.42385617748994564  1.0000
  H   H853      1.0  0.7955607292094194  0.3623324007795823  0.454494206975832  1.0000
  H   H854      1.0  0.7404127629817006  0.3670653032187836  0.4443251604886074  1.0000
  H   H855      1.0  0.7699882495321873  0.41628296738710624  0.47167269364248865  1.0000
  H   H856      1.0  0.7704930470210519  0.469538340124398  0.3910588885913846  1.0000
  H   H857      1.0  0.72515423080816  0.43137559026396666  0.40717260777652386  1.0000
  H   H858      1.0  0.7566677054554525  0.47698717964854787  0.4360225780280236  1.0000
  H   H859      1.0  0.8002561561147625  0.3909564219175703  0.3645497232266326  1.0000
  H   H860      1.0  0.7542372959135789  0.3557782238943563  0.38226890118642753  1.0000
  H   H861      1.0  0.8082887227747645  0.3455146016905086  0.39163024709878247  1.0000
  H   H862      1.0  0.8453353474247381  0.45591583237879085  0.40134546039152763  1.0000
  H   H863      1.0  0.8558801347617128  0.4110566184196358  0.42824794079867257  1.0000
  H   H864      1.0  0.8341464350062043  0.4665931870312079  0.4465772838064579  1.0000
  N   N49       1.0  0.19061124692566644  0.1517862545417632  0.5884376308413515  1.0000
  C   C625      1.0  0.19410103781400156  0.15237069059437403  0.6258787266119041  1.0000
  C   C626      1.0  0.1889215449516295  0.10047561423576568  0.5711861434930676  1.0000
  C   C627      1.0  0.22893970699325794  0.1818632709657919  0.5757118402305554  1.0000
  C   C628      1.0  0.15045141169155896  0.1722450749311708  0.5809675489253112  1.0000
  H   H865      1.0  0.1656189005884139  0.13027261564446846  0.6364753350724204  1.0000
  H   H866      1.0  0.19590052259190505  0.19063839110643777  0.639726011574973  1.0000
  H   H867      1.0  0.22386375581601858  0.1365392833145158  0.6321898996627064  1.0000
  H   H868      1.0  0.15996925490607294  0.07727091969621647  0.579726807104096  1.0000
  H   H869      1.0  0.1865025418015296  0.09862496454783809  0.5429079791679681  1.0000
  H   H870      1.0  0.21822701495241126  0.08325122642362714  0.5766949063786564  1.0000
  H   H871      1.0  0.23105354118884303  0.2209544597388966  0.5880023193748505  1.0000
  H   H872      1.0  0.22780293159926712  0.18172621486160345  0.5474545138324389  1.0000
  H   H873      1.0  0.2597946603828927  0.16787852802535141  0.5815636836760021  1.0000
  H   H874      1.0  0.12091161741628098  0.15135670533775603  0.5911131367533473  1.0000
  H   H875      1.0  0.14620645742711735  0.17141236011976702  0.5529089481092653  1.0000
  H   H876      1.0  0.15085525442700232  0.2111510591597785  0.5930021490921868  1.0000
  N   N50       1.0  0.8623252291634466  0.8136484850838137  0.9766383862678616  1.0000
  C   C629      1.0  0.8643993608112318  0.824908784720435  0.014457042741060189  1.0000
  C   C630      1.0  0.8949994206016384  0.8475361887072861  0.9606881105648521  1.0000
  C   C631      1.0  0.818585604480994  0.8198309192220332  0.9652862625768561  1.0000
  C   C632      1.0  0.8710740793019391  0.7622285654807417  0.9660043654128412  1.0000
  H   H877      1.0  0.8570974963120531  0.8631935404043087  0.02345096915483147  1.0000
  H   H878      1.0  0.8972831755794582  0.8216669508840795  0.023993417456825927  1.0000
  H   H879      1.0  0.8404325952891152  0.7996437662608482  0.027311480368103158  1.0000
  H   H880      1.0  0.8941300290916927  0.8401213230536797  0.9321868597191294  1.0000
  H   H881      1.0  0.8891490144000201  0.8867441563314955  0.9682916778850648  1.0000
  H   H882      1.0  0.9285295150219864  0.8441858134772602  0.9688218697373148  1.0000
  H   H883      1.0  0.8109338378860198  0.8581467356698038  0.9731083422147835  1.0000
  H   H884      1.0  0.7930223323653116  0.7948245632871682  0.9768037589010947  1.0000
  H   H885      1.0  0.8157738792469824  0.8117798014444109  0.9369076768106455  1.0000
  H   H886      1.0  0.869023721391265  0.7519927668302255  0.937688118628234  1.0000
  H   H887      1.0  0.8471375356302404  0.7359466709389366  0.9779064522677219  1.0000
  H   H888      1.0  0.9038559770466555  0.7563850062030522  0.9742187719668101  1.0000
  N   N51       1.0  0.4840146846072841  0.13841749927817482  0.8070863452463306  1.0000
  C   C633      1.0  0.5241862409683541  0.15385549852004488  0.8270672281327438  1.0000
  C   C634      1.0  0.4936895219036037  0.1038387110143475  0.7764289119487593  1.0000
  C   C635      1.0  0.4677491592388693  0.1820789014488824  0.796123349977174  1.0000
  C   C636      1.0  0.450507256165022  0.11378412488012835  0.8285372858363775  1.0000
  H   H889      1.0  0.5186102316447986  0.18123745180530904  0.8498363579416828  1.0000
  H   H890      1.0  0.550674007898529  0.17090360013283323  0.8112315335896985  1.0000
  H   H891      1.0  0.5366235907419638  0.1219434197846816  0.8364570036038286  1.0000
  H   H892      1.0  0.46418688182772044  0.09195085390964053  0.7606223932454821  1.0000
  H   H893      1.0  0.5187583310947239  0.12139474914249604  0.7596534518072624  1.0000
  H   H894      1.0  0.505537185173076  0.07011299201591115  0.7836189628044323  1.0000
  H   H895      1.0  0.4374564590143207  0.17196054447581766  0.7809698601851114  1.0000
  H   H896      1.0  0.49172018889672653  0.20080342849542632  0.7792563852579386  1.0000
  H   H897      1.0  0.46028180290091675  0.20960582802759653  0.8182905051853999  1.0000
  H   H898      1.0  0.4614872876212679  0.08036550994969005  0.8369907819233875  1.0000
  H   H899      1.0  0.41980479296312745  0.10179963487216348  0.8141209838750036  1.0000
  H   H900      1.0  0.4424727523866562  0.13887339672188403  0.851900616519897  1.0000
  N   N52       1.0  0.04869275037814998  0.2437026577757404  0.24721905250688536  1.0000
  C   C637      1.0  0.0036744050042294848  0.23864507126336498  0.26084851478826065  1.0000
  C   C638      1.0  0.07372945910673144  0.20830631335187988  0.2607216431652275  1.0000
  C   C639      1.0  0.0696165685122877  0.29403125000634667  0.2584167549080818  1.0000
  C   C640      1.0  0.04817218607750632  0.23429937623100727  0.20930599313810294  1.0000
  H   H901      1.0  0.9837885399325276  0.2644614209492353  0.25090884490941257  1.0000
  H   H902      1.0  0.003159433468366932  0.24646791483798225  0.2893656333700152  1.0000
  H   H903      1.0  0.9869616165961859  0.20064920115764018  0.2536850922735505  1.0000
  H   H904      1.0  0.10793682632109977  0.2113526184782799  0.2509122852254366  1.0000
  H   H905      1.0  0.0744541813859566  0.21489720723625894  0.28930848047809476  1.0000
  H   H906      1.0  0.058972179342487545  0.16977988088907914  0.25343100877478  1.0000
  H   H907      1.0  0.051582504383643105  0.32254492304509874  0.24972454881395745  1.0000
  H   H908      1.0  0.10335686778396139  0.29880154883747956  0.2481036800780516  1.0000
  H   H909      1.0  0.07176417549892149  0.30175498375500887  0.2868623068759679  1.0000
  H   H910      1.0  0.08172723155290731  0.23823168298035036  0.19815171631299533  1.0000
  H   H911      1.0  0.029741357158380728  0.2608215778805665  0.19850972272994039  1.0000
  H   H912      1.0  0.032461456700174696  0.19650913822663796  0.20005392428099222  1.0000
  N   N53       1.0  0.3567131009648621  0.22633724807115208  0.26045928582994105  1.0000
  C   C641      1.0  0.3760029335370349  0.22808331814707827  0.29460797276315853  1.0000
  C   C642      1.0  0.3727411958015718  0.27143951439222747  0.24547148379655281  1.0000
  C   C643      1.0  0.3087748232493589  0.22291823185951465  0.2637917566356345  1.0000
  C   C644      1.0  0.3692339697166354  0.1829705741383556  0.23765469402895611  1.0000
  H   H913      1.0  0.3641027056949235  0.19453596353991998  0.3066299492890021  1.0000
  H   H914      1.0  0.36767623494528695  0.26064911170976046  0.3124989972786061  1.0000
  H   H915      1.0  0.4121540789863056  0.22959502922667951  0.29280606682596444  1.0000
  H   H916      1.0  0.4085151770010845  0.27505191767647474  0.24145634678471772  1.0000
  H   H917      1.0  0.3581856781582093  0.271006167513681  0.21989163405553347  1.0000
  H   H918      1.0  0.3642221161262743  0.3050669436638991  0.2620930147473368  1.0000
  H   H919      1.0  0.2932400977438351  0.22039010483332078  0.23833108905059497  1.0000
  H   H920      1.0  0.29828063727891657  0.25584944700165835  0.2801022273625189  1.0000
  H   H921      1.0  0.2950970919904753  0.18969264277293085  0.27537920001223437  1.0000
  H   H922      1.0  0.40523860500050873  0.18345482044540873  0.2356180994663699  1.0000
  H   H923      1.0  0.3565947438193402  0.18136511618305562  0.2112929730083275  1.0000
  H   H924      1.0  0.3558839843025175  0.1484172095986569  0.24753924042798614  1.0000
  N   N54       1.0  0.0028697975903144058  0.4368030636881013  0.20235690255418204  1.0000
  C   C645      1.0  0.9629525463838083  0.4600503549339692  0.19849939011626727  1.0000
  C   C646      1.0  0.03622870767833026  0.4527112989626456  0.177222160773717  1.0000
  C   C647      1.0  0.9928548719005501  0.3824962593563921  0.19630161404889446  1.0000
  C   C648      1.0  0.019637244137355934  0.4520190326773452  0.23747045567906833  1.0000
  H   H925      1.0  0.9383351483178413  0.45225935862830013  0.21889434674671682  1.0000
  H   H926      1.0  0.9473772602104052  0.4465574212936172  0.173365078417123  1.0000
  H   H927      1.0  0.9699073234088338  0.5008887850063832  0.200009620396584  1.0000
  H   H928      1.0  0.06652544167639467  0.43514093708945545  0.17911423612216382  1.0000
  H   H929      1.0  0.024615716536625386  0.44276392232498907  0.150450091464978  1.0000
  H   H930      1.0  0.04529532897105647  0.49340885087637254  0.18161156159129677  1.0000
  H   H931      1.0  0.966661895009707  0.36935845811223267  0.2139876369224596  1.0000
  H   H932      1.0  0.022107273735681932  0.36401499708879825  0.2000480295346141  1.0000
  H   H933      1.0  0.9816592324897983  0.3695085824402895  0.16964990485563547  1.0000
  H   H934      1.0  0.025682477522054797  0.4929529969670057  0.24333361602159131  1.0000
  H   H935      1.0  0.05114263010380814  0.4373857280338509  0.24066773487260162  1.0000
  H   H936      1.0  0.9961623941980426  0.4387429094973303  0.2571359612370623  1.0000
  N   N55       1.0  0.1943480203165249  0.8402612318602909  0.7401060761023004  1.0000
  C   C649      1.0  0.1981151055505404  0.8817736947369177  0.7683571475688118  1.0000
  C   C650      1.0  0.23660763025255813  0.8202886806187184  0.7342606198924551  1.0000
  C   C651      1.0  0.18132877082937732  0.8577695996473285  0.7084588412112085  1.0000
  C   C652      1.0  0.16120071096156766  0.8009768677271794  0.7494234921061453  1.0000
  H   H937      1.0  0.16673050282091723  0.8975607130320942  0.7732669619702346  1.0000
  H   H938      1.0  0.22332717181045172  0.9118869234015765  0.7624104305235635  1.0000
  H   H939      1.0  0.20760131438963128  0.8696551792106835  0.7926617513496494  1.0000
  H   H940      1.0  0.26285181133579977  0.8492100585667224  0.7280801148431579  1.0000
  H   H941      1.0  0.24677710722577262  0.8057178690237343  0.7575061343993514  1.0000
  H   H942      1.0  0.2350415798239859  0.7894849790601999  0.7126811812412566  1.0000
  H   H943      1.0  0.2053767207380623  0.8879714231501445  0.7009417111937943  1.0000
  H   H944      1.0  0.14906479154973964  0.8721375212838769  0.7118115721195508  1.0000
  H   H945      1.0  0.17855801934027307  0.8274867043497043  0.6865469959500032  1.0000
  H   H946      1.0  0.16029318689739963  0.7675346285459064  0.7302175861454905  1.0000
  H   H947      1.0  0.12807812489496573  0.8128252046914675  0.7504968209697562  1.0000
  H   H948      1.0  0.16777984171311786  0.7898627602177051  0.7747753307020924  1.0000
  N   N56       1.0  0.20191326767908135  0.24278861502789262  0.4576426355728689  1.0000
  C   C653      1.0  0.17051240711378782  0.22841834021216734  0.4845937159451932  1.0000
  C   C654      1.0  0.19760927946927465  0.2045379157547167  0.4273149575399242  1.0000
  C   C655      1.0  0.2467352190281709  0.24785295021958476  0.4707368363357811  1.0000
  C   C656      1.0  0.19266430970087148  0.2903229552430595  0.44781771288242567  1.0000
  H   H949      1.0  0.17511776713984517  0.19150064294735536  0.4914471427934912  1.0000
  H   H950      1.0  0.13632157414133492  0.2263669548545746  0.47589881164104986  1.0000
  H   H951      1.0  0.173788718579996  0.25575420539589366  0.5082889562799506  1.0000
  H   H952      1.0  0.16423078665265445  0.19998729907929835  0.41672321262785683  1.0000
  H   H953      1.0  0.22111276629086038  0.21417459200642242  0.40668730534175745  1.0000
  H   H954      1.0  0.2035977609174156  0.16795135601850397  0.43400989111457555  1.0000
  H   H955      1.0  0.2712415564294376  0.2591254423135325  0.45110939375775416  1.0000
  H   H956      1.0  0.25474843231470545  0.21245954283579138  0.47816021074180304  1.0000
  H   H957      1.0  0.25111756611234276  0.27627786486553774  0.4937343365703475  1.0000
  H   H958      1.0  0.2167249171795802  0.3035641583490474  0.42859806257450295  1.0000
  H   H959      1.0  0.19330347739465675  0.3194006814420085  0.47054501040898566  1.0000
  H   H960      1.0  0.1597630127627266  0.2870898582631298  0.4364885902388953  1.0000
  N   N57       1.0  0.45248779128726224  0.3158311120419519  0.6111113527902972  1.0000
  C   C657      1.0  0.4460177827073127  0.35696403997227577  0.5921026250464227  1.0000
  C   C658      1.0  0.42382614685349435  0.3171670464311216  0.6419363537788207  1.0000
  C   C659      1.0  0.49833939807642347  0.3208904639638277  0.6217521435101867  1.0000
  C   C660      1.0  0.44192151660983137  0.2683980824848877  0.5887692259677331  1.0000
  H   H961      1.0  0.4556345097922753  0.3931995636221437  0.60783477023524  1.0000
  H   H962      1.0  0.41135008077086194  0.3557910090232692  0.5849091320498676  1.0000
  H   H963      1.0  0.4660884679658622  0.3560530759768916  0.5681687760740624  1.0000
  H   H964      1.0  0.4286199906633335  0.286934641521416  0.6571085931880667  1.0000
  H   H965      1.0  0.4305346427212048  0.35262140190693003  0.6593205079144777  1.0000
  H   H966      1.0  0.38880776406632345  0.3124638342406296  0.6349624014155619  1.0000
  H   H967      1.0  0.5074131384164658  0.3565484922230855  0.6384304259920586  1.0000
  H   H968      1.0  0.52106973499878  0.31892820051785264  0.5992616607470249  1.0000
  H   H969      1.0  0.5039798747165084  0.29105550617689246  0.6367047598546272  1.0000
  H   H970      1.0  0.4643307527280808  0.2646313281860415  0.5661272442148331  1.0000
  H   H971      1.0  0.40804396698345485  0.26451027322733545  0.5791482621347948  1.0000
  H   H972      1.0  0.4442111844413828  0.23656373959966004  0.6029698377701664  1.0000
  N   N58       1.0  0.5217749893809205  0.07995289357958413  0.45916131102303837  1.0000
  C   C661      1.0  0.5157516664607869  0.089615158968817  0.4236778085395434  1.0000
  C   C662      1.0  0.5683021884245292  0.07674133367674862  0.46462863103088514  1.0000
  C   C663      1.0  0.49584516851519966  0.032970708783560454  0.4646802024222074  1.0000
  C   C664      1.0  0.5071105534778377  0.12058001326930246  0.48359133126990006  1.0000
  H   H973      1.0  0.527675081398793  0.06048484889135253  0.4044676149586559  1.0000
  H   H974      1.0  0.53401096556723  0.1254233424553064  0.41886871097159073  1.0000
  H   H975      1.0  0.48087451194710007  0.09143022335933892  0.4184179095059002  1.0000
  H   H976      1.0  0.5804669831612506  0.04625684187186252  0.4467298425717239  1.0000
  H   H977      1.0  0.5886347493369667  0.1116637545851411  0.4606432339854343  1.0000
  H   H978      1.0  0.5742347460975561  0.0696265642260201  0.49108568208584913  1.0000
  H   H979      1.0  0.5056934034044616  0.0016523752226493826  0.44638654759998175  1.0000
  H   H980      1.0  0.46043676763662017  0.03437449283829608  0.4613168169086661  1.0000
  H   H981      1.0  0.5000662410948578  0.023894152689585724  0.49096860322606517  1.0000
  H   H982      1.0  0.5253319769876408  0.1568970907427314  0.4798007601857335  1.0000
  H   H983      1.0  0.511668103185904  0.11502272368307942  0.5106710622458381  1.0000
  H   H984      1.0  0.4720385123737178  0.123567062935944  0.48029612620688056  1.0000
  N   N59       1.0  0.6853664292311973  0.5123112478695528  0.6894263630163291  1.0000
  C   C665      1.0  0.6506011671292309  0.47365634013700664  0.6973494414384094  1.0000
  C   C666      1.0  0.6934923482842527  0.5070151445308255  0.6520156653508846  1.0000
  C   C667      1.0  0.7259059998150559  0.507111603550328  0.706836520618837  1.0000
  C   C668      1.0  0.6716086979051837  0.561571767477421  0.7011039068735752  1.0000
  H   H985      1.0  0.6440491726845549  0.4757527782239741  0.7253994854273649  1.0000
  H   H986      1.0  0.6595853475088918  0.4360631764277656  0.6882179051040183  1.0000
  H   H987      1.0  0.6195305422062168  0.4770862636660169  0.6847462152913266  1.0000
  H   H988      1.0  0.7205318743192034  0.5346520838707978  0.6453933517448593  1.0000
  H   H989      1.0  0.7023963221525887  0.4697356159328816  0.641979327416736  1.0000
  H   H990      1.0  0.6641388898011897  0.5127040300528645  0.6380673828514416  1.0000
  H   H991      1.0  0.7525721696099869  0.535940299716609  0.7013067881767139  1.0000
  H   H992      1.0  0.737556441111156  0.47059352074330185  0.6984079094922295  1.0000
  H   H993      1.0  0.7214962174671449  0.5104823851759761  0.7351330061611678  1.0000
  H   H994      1.0  0.6963208088125616  0.5915686187870115  0.6942257149578039  1.0000
  H   H995      1.0  0.6663321549747961  0.5677040559721913  0.7293658444818791  1.0000
  H   H996      1.0  0.6407300178309241  0.5663430849652737  0.688816256421577  1.0000
  N   N60       1.0  0.3628036838716884  0.6470244253593904  0.4501378117953876  1.0000
  C   C669      1.0  0.3576525902576275  0.7001456706387561  0.4531685287577534  1.0000
  C   C670      1.0  0.33343061498188514  0.6191832007379148  0.42348152211422896  1.0000
  C   C671      1.0  0.3519362814396448  0.6290290198061044  0.48342410078947706  1.0000
  C   C672      1.0  0.40823596550548974  0.6394894149202095  0.4404910133269162  1.0000
  H   H997      1.0  0.3650182881762502  0.7148682000478619  0.42840813092847885  1.0000
  H   H998      1.0  0.37976486460515774  0.7222846916391763  0.47279859260578494  1.0000
  H   H999      1.0  0.32371933520747104  0.7070779578331443  0.4608108288224275  1.0000
  H   H1000     1.0  0.29886115497564375  0.6243851108565028  0.42985645255366034  1.0000
  H   H1001     1.0  0.3411061779321445  0.6310514642487206  0.39786445078365107  1.0000
  H   H1002     1.0  0.3360204175808247  0.5787892029367114  0.4209805526361974  1.0000
  H   H1003     1.0  0.35537104098116723  0.589009607046032  0.48210199788252384  1.0000
  H   H1004     1.0  0.3176659461916423  0.6335496211185774  0.4913762496783538  1.0000
  H   H1005     1.0  0.3731490771790363  0.6492783419137922  0.5043056199116212  1.0000
  H   H1006     1.0  0.4178433621670103  0.6530250104134296  0.4156576105726528  1.0000
  H   H1007     1.0  0.4127254101652092  0.5996100431818441  0.43759538293421674  1.0000
  H   H1008     1.0  0.43131966983773723  0.6592849686199642  0.46028498406824214  1.0000
  N   N61       1.0  0.6255159900682706  0.7218440090287253  0.24427670201237173  1.0000
  C   C673      1.0  0.5978928399171135  0.6993845558589271  0.27062352129896605  1.0000
  C   C674      1.0  0.6685397131859827  0.7417402990028172  0.25886215749550834  1.0000
  C   C675      1.0  0.6042696223899211  0.7621987014984271  0.23314716213370135  1.0000
  C   C676      1.0  0.63125836873861  0.6840020110550853  0.21448851182908357  1.0000
  H   H1009     1.0  0.6136944456213013  0.6701522253111438  0.2806111356138701  1.0000
  H   H1010     1.0  0.5658723554371344  0.6820857660236204  0.2599838595277959  1.0000
  H   H1011     1.0  0.5914705026586117  0.7273598863813326  0.29283424193762064  1.0000
  H   H1012     1.0  0.6900505226544857  0.7596953634970092  0.2398417004082687  1.0000
  H   H1013     1.0  0.6656652273201342  0.7700170844253513  0.28162451280254075  1.0000
  H   H1014     1.0  0.6858844844102576  0.712156277149278  0.26697275312066693  1.0000
  H   H1015     1.0  0.5712178509389874  0.7486378766189947  0.22289945890897278  1.0000
  H   H1016     1.0  0.6233588414438839  0.7788879738080112  0.21239517868214608  1.0000
  H   H1017     1.0  0.6006182454044616  0.7922035291337721  0.2547310455042424  1.0000
  H   H1018     1.0  0.6460167599037452  0.652238966133277  0.22213686905723473  1.0000
  H   H1019     1.0  0.6530871869648509  0.6994124859569553  0.19457124269844095  1.0000
  H   H1020     1.0  0.5995844596005114  0.6691297076794811  0.20217332308353364  1.0000
  N   N62       1.0  0.26202830897703105  0.9406838781870093  0.4822290589232372  1.0000
  C   C677      1.0  0.24473467872093965  0.9134841226575894  0.4495210515484569  1.0000
  C   C678      1.0  0.27701719273042663  0.905956987532262  0.5035804868422451  1.0000
  C   C679      1.0  0.22748897064139686  0.9666046979767504  0.5009289219082502  1.0000
  C   C680      1.0  0.29906976277313285  0.9768623535013532  0.4748740398593432  1.0000
  H   H1021     1.0  0.23231520676235962  0.9386123812360925  0.43319706612129494  1.0000
  H   H1022     1.0  0.21769613747026562  0.8844845064248954  0.4539788509012568  1.0000
  H   H1023     1.0  0.27036987681562774  0.894657556042807  0.43435759575598754  1.0000
  H   H1024     1.0  0.29009911082233636  0.9254249822464349  0.5285051476273708  1.0000
  H   H1025     1.0  0.2501132965483842  0.8774438349462113  0.5092518620616264  1.0000
  H   H1026     1.0  0.3035451276631863  0.8862221538091823  0.4904250695364749  1.0000
  H   H1027     1.0  0.23912340824175252  0.9869807828376125  0.5259990394781098  1.0000
  H   H1028     1.0  0.19869798126873267  0.9402405023275442  0.5061104251207205  1.0000
  H   H1029     1.0  0.21598750485740004  0.9939047526422566  0.4860091601649348  1.0000
  H   H1030     1.0  0.28909710889021645  0.0038003937804678145  0.4589072654905979  1.0000
  H   H1031     1.0  0.3258431139847464  0.9584509860903516  0.4609331866303119  1.0000
  H   H1032     1.0  0.3130342488806539  0.9977289212982292  0.4989447008547887  1.0000
  N   N63       1.0  0.5837437818745359  0.05904121804149831  0.008039426903124536  1.0000
  C   C681      1.0  0.5607781552620698  0.015253753436931916  0.9872756823860644  1.0000
  C   C682      1.0  0.583927361490858  0.05082691799433192  0.044375170786146834  1.0000
  C   C683      1.0  0.5617125164143443  0.10289753487639075  0.005140224994631293  1.0000
  C   C684      1.0  0.6289005731279357  0.06730417129962696  0.9952440428115139  1.0000
  H   H1033     1.0  0.5762034596605685  0.9813653506276196  0.9894850068284091  1.0000
  H   H1034     1.0  0.5615917678349338  0.01970184968428157  0.9595131722792005  1.0000
  H   H1035     1.0  0.5260239702558892  0.00868588001187831  0.9952843032953242  1.0000
  H   H1036     1.0  0.6018106948433287  0.01904582798542087  0.04759761478193769  1.0000
  H   H1037     1.0  0.6003286129762889  0.08372867687676333  0.060764007845063084  1.0000
  H   H1038     1.0  0.5502403062397576  0.0429604904525025  0.054438120148470714  1.0000
  H   H1039     1.0  0.5781441931435485  0.13633242204353202  0.020715769373338855  1.0000
  H   H1040     1.0  0.5273025062776614  0.09781181980670439  0.014187862172672094  1.0000
  H   H1041     1.0  0.5618788034641845  0.11056378833944791  0.9780619705384317  1.0000
  H   H1042     1.0  0.6459389198597237  0.03454175839410922  0.996287411432081  1.0000
  H   H1043     1.0  0.6478516328815521  0.09924887096178914  0.01069194883336344  1.0000
  H   H1044     1.0  0.6302365734948937  0.07427401456095062  0.9679581112612081  1.0000
  N   N64       1.0  0.14913167970578975  0.308430789805481  0.8622468575563986  1.0000
  C   C685      1.0  0.19073683467882419  0.2868098033486106  0.8574834279255636  1.0000
  C   C686      1.0  0.11258678956937267  0.2683030940231763  0.8591423972086201  1.0000
  C   C687      1.0  0.1454292216944507  0.34075913056630824  0.8356757023088841  1.0000
  C   C688      1.0  0.1477445411280266  0.33780205781486394  0.8966033333201793  1.0000
  H   H1045     1.0  0.2189355867356267  0.31593808419025393  0.8585793027671209  1.0000
  H   H1046     1.0  0.19220495213615574  0.263116994081976  0.8322680680247809  1.0000
  H   H1047     1.0  0.19524538311293338  0.26343453213129386  0.8777280215031502  1.0000
  H   H1048     1.0  0.11405620893491077  0.2433853425752055  0.8789805266851842  1.0000
  H   H1049     1.0  0.08059165621298195  0.2832654246407973  0.8618362786228513  1.0000
  H   H1050     1.0  0.1129751998449018  0.2450865786538099  0.8335918868340686  1.0000
  H   H1051     1.0  0.11395321680990557  0.3568622006409594  0.838122850597685  1.0000
  H   H1052     1.0  0.14685516592009643  0.3199179853666845  0.8094374342500523  1.0000
  H   H1053     1.0  0.1719143224770293  0.37216247515760337  0.8376277635154574  1.0000
  H   H1054     1.0  0.15197579366564115  0.31519362648177385  0.9173476719760574  1.0000
  H   H1055     1.0  0.11629306401732399  0.3534680850417331  0.9014401774491976  1.0000
  H   H1056     1.0  0.17380287717542936  0.3695704800499495  0.8993127638657015  1.0000
  N   N65       1.0  0.9067336421003211  0.23087544256311965  0.658353366673202  1.0000
  C   C689      1.0  0.9218570561461188  0.21618505600051208  0.6903201224100961  1.0000
  C   C690      1.0  0.863680080021172  0.20342517861351972  0.6494034519964118  1.0000
  C   C691      1.0  0.9383081886676378  0.2196823447306766  0.630222710827403  1.0000
  C   C692      1.0  0.9029864793049998  0.2843559159236264  0.6635132094417844  1.0000
  H   H1057     1.0  0.9255171175168588  0.17618828751424864  0.6872358447791291  1.0000
  H   H1058     1.0  0.8984508775574628  0.2233393153521117  0.7119221885241878  1.0000
  H   H1059     1.0  0.9541361982259386  0.2364078113737662  0.6980282631249803  1.0000
  H   H1060     1.0  0.8510515086189422  0.21409643891492713  0.6256448323954906  1.0000
  H   H1061     1.0  0.8651756027181432  0.1628706796063888  0.6454698027325811  1.0000
  H   H1062     1.0  0.8391151087114236  0.21099239593724128  0.6701111936400967  1.0000
  H   H1063     1.0  0.9284521840255643  0.23109146037111294  0.6057831869670043  1.0000
  H   H1064     1.0  0.9416286674542547  0.17967154977231026  0.6252220925912257  1.0000
  H   H1065     1.0  0.97142358956873  0.2387629802277953  0.6364731608269931  1.0000
  H   H1066     1.0  0.8925586854374713  0.29697898062880945  0.6396608929623775  1.0000
  H   H1067     1.0  0.9345811760864151  0.3062861919389537  0.6711984822916381  1.0000
  H   H1068     1.0  0.8787127544469835  0.29395744146291847  0.6840149356471148  1.0000
  N   N66       1.0  0.03754719101056714  0.62283333246193  0.6033884253105537  1.0000
  C   C693      1.0  0.047966674959237565  0.5912996507830162  0.5713958358224103  1.0000
  C   C694      1.0  0.06257363971847196  0.6112969600042835  0.6320882615761749  1.0000
  C   C695      1.0  0.9904601442302674  0.6139648947087508  0.6112306873260955  1.0000
  C   C696      1.0  0.04918165982451628  0.6750979835812068  0.5988449315199902  1.0000
  H   H1069     1.0  0.029956857516499236  0.5996530076669728  0.5491928572655436  1.0000
  H   H1070     1.0  0.03909833735996515  0.5515473195233067  0.5737122963111454  1.0000
  H   H1071     1.0  0.08328232849862083  0.5971521372899602  0.5648116352361168  1.0000
  H   H1072     1.0  0.05498897725246521  0.6343641207858077  0.6566114040937072  1.0000
  H   H1073     1.0  0.05482847229693544  0.5720180981248504  0.636187165490445  1.0000
  H   H1074     1.0  0.09827073083290983  0.6182065654232289  0.6273188758008055  1.0000
  H   H1075     1.0  0.9705376768194263  0.6232877740679594  0.5904616275949435  1.0000
  H   H1076     1.0  0.9816996226539899  0.6370106928702022  0.6354337131529966  1.0000
  H   H1077     1.0  0.9804423973681791  0.574654654583231  0.6145125352310052  1.0000
  H   H1078     1.0  0.08453663934166156  0.6834460160052487  0.5934827613409772  1.0000
  H   H1079     1.0  0.040974534773663196  0.7000041158132717  0.6223027126063831  1.0000
  H   H1080     1.0  0.031705617749989035  0.6847656402584672  0.5768940423050894  1.0000
  N   N67       1.0  0.4582948209022614  0.39270203395651215  0.31256063582634064  1.0000
  C   C697      1.0  0.476044224628193  0.34542755064882513  0.3018402378864766  1.0000
  C   C698      1.0  0.4440074505252183  0.4121830796849757  0.28205238611818606  1.0000
  C   C699      1.0  0.4926816708620712  0.4283127276724574  0.3302456066899082  1.0000
  C   C700      1.0  0.42072408910579395  0.3847593589328966  0.3361725202604142  1.0000
  H   H1081     1.0  0.48752169820393876  0.33034009848162427  0.3243477249536695  1.0000
  H   H1082     1.0  0.504172938971269  0.34978589798403803  0.2837205401039953  1.0000
  H   H1083     1.0  0.4512754011313278  0.3172089973218135  0.2886957700258743  1.0000
  H   H1084     1.0  0.4298473796618357  0.44754117729450194  0.28936106597847555  1.0000
  H   H1085     1.0  0.47152669091805777  0.4192992935073985  0.2638233568528383  1.0000
  H   H1086     1.0  0.4184383388142246  0.38606861836291806  0.26775850301931525  1.0000
  H   H1087     1.0  0.48080356019757436  0.46450901883367024  0.33872180995770407  1.0000
  H   H1088     1.0  0.5215727388814632  0.4349309823646106  0.3132263998979872  1.0000
  H   H1089     1.0  0.5041352591091085  0.414909362850711  0.3534599653292856  1.0000
  H   H1090     1.0  0.40644078955428586  0.41964513979988993  0.3448029116320175  1.0000
  H   H1091     1.0  0.4300803535473099  0.3703957152541957  0.3596830387118388  1.0000
  H   H1092     1.0  0.39415715041502813  0.3581336397567263  0.32369449383650717  1.0000
  N   N68       1.0  0.9733947465020095  0.10606369118585057  0.03433493937848331  1.0000
  C   C701      1.0  0.9776724989241805  0.05623466673099031  0.01611428209495136  1.0000
  C   C702      1.0  0.9354367485051092  0.1034085382809895  0.05801685437945103  1.0000
  C   C703      1.0  0.9672189640019617  0.13963259926581273  0.009092351414499378  1.0000
  C   C704      1.0  0.013260299697608113  0.12486300290555619  0.05406053058146809  1.0000
  H   H1093     1.0  0.982929994924823  0.030236594362875735  0.03433285300798761  1.0000
  H   H1094     1.0  0.005321868469520874  0.05672052112264758  0.9973844622328549  1.0000
  H   H1095     1.0  0.9477119549088406  0.0402280936071886  0.0017457884843543603  1.0000
  H   H1096     1.0  0.9301724521382403  0.1406168778565835  0.07132011472641331  1.0000
  H   H1097     1.0  0.9052403693331704  0.08731257929104608  0.044011538129631766  1.0000
  H   H1098     1.0  0.9397839065916161  0.07943903078393078  0.07799107619170531  1.0000
  H   H1099     1.0  0.9639005649660266  0.17766303201206135  0.021993507400801526  1.0000
  H   H1100     1.0  0.9376038898741315  0.12637170304962098  0.993563355529631  1.0000
  H   H1101     1.0  0.9954674683604232  0.14217186474142451  0.9908852783197206  1.0000
  H   H1102     1.0  0.010944290000666657  0.16246568294888597  0.06817936303808714  1.0000
  H   H1103     1.0  0.04250459444312904  0.12755048027889515  0.03685575360222937  1.0000
  H   H1104     1.0  0.01919285030128326  0.10020176840329498  0.07315891201851499  1.0000
  N   N69       1.0  0.984173583937148  0.906174739755425  0.6244840635537554  1.0000
  C   C705      1.0  0.025072030527609757  0.895858798732819  0.6058942381997925  1.0000
  C   C706      1.0  0.9464361177887713  0.885273800950225  0.6028267361168438  1.0000
  C   C707      1.0  0.9837075435028035  0.9600897531341737  0.6325957538385403  1.0000
  C   C708      1.0  0.9813044969538037  0.883912469366166  0.6567247433402583  1.0000
  H   H1105     1.0  0.026492934939204904  0.8556296915628305  0.5987856621497079  1.0000
  H   H1106     1.0  0.05419446704083164  0.9105860436058748  0.6217429055620665  1.0000
  H   H1107     1.0  0.02878697062097224  0.9129427898608302  0.5817742966177843  1.0000
  H   H1108     1.0  0.944299866484658  0.844399503581835  0.5974574063405145  1.0000
  H   H1109     1.0  0.9152804556746182  0.8941576093092216  0.6157348662487401  1.0000
  H   H1110     1.0  0.9482597833615127  0.9000374572490699  0.577837410474332  1.0000
  H   H1111     1.0  0.9537862728909623  0.9694308896516404  0.6473632834476124  1.0000
  H   H1112     1.0  0.984805842379854  0.9780390282256057  0.6088655203940792  1.0000
  H   H1113     1.0  0.012150394204929249  0.9774333034701304  0.6483040664573139  1.0000
  H   H1114     1.0  0.9510679513236866  0.891802012217088  0.6714850766849656  1.0000
  H   H1115     1.0  0.009574271714305027  0.8983912608646332  0.6735035390573989  1.0000
  H   H1116     1.0  0.9806112102280123  0.843055609284745  0.6516982712206048  1.0000
  N   N70       1.0  0.5372002870342218  0.02781869875400389  0.588766638107677  1.0000
  C   C709      1.0  0.569502349546176  0.035252685926671745  0.5609889134112693  1.0000
  C   C710      1.0  0.5540542127688735  0.05587179956028443  0.6213463638814343  1.0000
  C   C711      1.0  0.5290813045779281  0.9746924785859239  0.5922245654521499  1.0000
  C   C712      1.0  0.49614734017144874  0.045515364066798014  0.5803379517351592  1.0000
  H   H1117     1.0  0.5580690450887525  0.01418363084295926  0.5361205920819687  1.0000
  H   H1118     1.0  0.6009635216673346  0.022749935706531943  0.5666076846427304  1.0000
  H   H1119     1.0  0.5764946391394986  0.07493916288032842  0.5576877017602531  1.0000
  H   H1120     1.0  0.5300499076542287  0.05208746439237366  0.6427375573806726  1.0000
  H   H1121     1.0  0.5848798244429007  0.043049917749959477  0.6285290164023971  1.0000
  H   H1122     1.0  0.561430851291639  0.09591746424226422  0.6191553836420507  1.0000
  H   H1123     1.0  0.5042110832061646  0.9675624154968734  0.61258320327644  1.0000
  H   H1124     1.0  0.5593144552130752  0.9600831019602651  0.5988398822379888  1.0000
  H   H1125     1.0  0.5169094020225858  0.9524763116245634  0.5678338942038939  1.0000
  H   H1126     1.0  0.5010526578524016  0.08519254221804928  0.5770727870414936  1.0000
  H   H1127     1.0  0.4710167899372311  0.04100648332177492  0.6008612943942229  1.0000
  H   H1128     1.0  0.48265943936221123  0.02500344296196566  0.5559460787083745  1.0000
  N   N71       1.0  0.42525684038451383  0.3946647406451973  0.8996442217424345  1.0000
  C   C713      1.0  0.4031874077360973  0.35630750678101286  0.9190719844866555  1.0000
  C   C714      1.0  0.39312131182320315  0.42608134876806325  0.8904802225034398  1.0000
  C   C715      1.0  0.44522752924381537  0.37107546882062437  0.8679551596878947  1.0000
  C   C716      1.0  0.4594926067267642  0.42524601910510285  0.9209962884542056  1.0000
  H   H1129     1.0  0.42647156070697195  0.33178685917545003  0.9262358663463339  1.0000
  H   H1130     1.0  0.37704196971794346  0.3327011184201645  0.9037300434676987  1.0000
  H   H1131     1.0  0.387837519729013  0.37309895284006167  0.9431663804236097  1.0000
  H   H1132     1.0  0.3676569885042534  0.4043485183681099  0.8734849243896536  1.0000
  H   H1133     1.0  0.3763350227820164  0.44332863884676144  0.9136964761193926  1.0000
  H   H1134     1.0  0.409072290954076  0.4564337872308233  0.8768668187069659  1.0000
  H   H1135     1.0  0.4617493284742273  0.399062316810328  0.8524966505598024  1.0000
  H   H1136     1.0  0.42050837662954615  0.34743548647983324  0.8512815291796008  1.0000
  H   H1137     1.0  0.47020632865805034  0.3475806211842052  0.8737168329589862  1.0000
  H   H1138     1.0  0.48400749747030775  0.4025559265722265  0.9286271098103738  1.0000
  H   H1139     1.0  0.44570587225195785  0.4442531301445083  0.9449051363555845  1.0000
  H   H1140     1.0  0.47718557640700104  0.45433376072714005  0.9070224581987256  1.0000
  N   N72       1.0  0.8200230252683373  0.11616366137068113  0.5435338968990466  1.0000
  C   C717      1.0  0.7881789123412287  0.11312298066824411  0.5720655731988438  1.0000
  C   C718      1.0  0.8411730887045266  0.0703610155676131  0.5374806052457011  1.0000
  C   C719      1.0  0.8534116045576248  0.15862533344762753  0.5526653607718037  1.0000
  C   C720      1.0  0.7971893274275212  0.12233549054032622  0.5122261882028174  1.0000
  H   H1141     1.0  0.7714047196964979  0.14703901219053783  0.5774252738315253  1.0000
  H   H1142     1.0  0.8042223938684123  0.10866730927127399  0.5961531124201356  1.0000
  H   H1143     1.0  0.7624401792938491  0.08148378767651465  0.5660768147578188  1.0000
  H   H1144     1.0  0.8173332557728366  0.0378085403493138  0.5293742708074403  1.0000
  H   H1145     1.0  0.8667462779466022  0.07208172883331798  0.5170440573838189  1.0000
  H   H1146     1.0  0.8567810841524083  0.0631664355706203  0.5611040071396998  1.0000
  H   H1147     1.0  0.8761521632372851  0.1648495585931915  0.5308353130105274  1.0000
  H   H1148     1.0  0.8736302876384981  0.15267714192541781  0.5742868884755379  1.0000
  H   H1149     1.0  0.8383416844847208  0.19322751904281255  0.5605960979208215  1.0000
  H   H1150     1.0  0.7786823257419367  0.15489488477008706  0.5164406351225819  1.0000
  H   H1151     1.0  0.7731080866060951  0.08972090537836053  0.5039332444442852  1.0000
  H   H1152     1.0  0.8201351987082135  0.12697311774689446  0.4903767147128395  1.0000
