data_image0
_chemical_formula_structural       FeS2FeS2FeSFeS3FeS2FeS2FeSFeS3FeS2FeS2FeSFeS3FeS2FeS2FeSFeS3FeS2FeS2FeSFeS3FeS2FeS2FeSFeS3FeS2FeS2FeSFeS3FeS2FeS2FeSFeS3FeS2FeS2FeSFeS3FeS2FeS2FeSFeS3FeS2FeS2FeSFeS3FeS2FeS2FeSFeS3FeS2FeS2FeSFeS3FeS2FeS2FeSFeS3C6H4C6H4C6H4C6H4C6H4C6H4C6H4C6H4C6H4C6H4C6H4C6H4C6H4C6H4C6H4C6H4C6H4C6H4C6H4C6H4C6H4C6H4C6H4C6H4C6H4C6H4C6H4C6H4NC4H12NC4H12NC4H12NC4H12NC4H12NC4H12NC4H12NC4H12NC4H12NC4H12NC4H12NC4H12NC4H12NC4H12NC4H12NC4H12NC4H12NC4H12NC4H12NC4H12NC4H12NC4H12NC4H12NC4H12NC4H12NC4H12NC4H12NC4H12
_chemical_formula_sum              "Fe56 S112 C280 H448 N28"
_cell_length_a       32.845498639937304
_cell_length_b       26.8740925497337
_cell_length_c       38.2062564140576
_cell_angle_alpha    89.64717500526001
_cell_angle_beta     90.49764344562978
_cell_angle_gamma    89.71495682456982

_space_group_name_H-M_alt    "P 1"
_space_group_IT_number       1

loop_
  _space_group_symop_operation_xyz
  'x, y, z'

loop_
  _atom_site_type_symbol
  _atom_site_label
  _atom_site_symmetry_multiplicity
  _atom_site_fract_x
  _atom_site_fract_y
  _atom_site_fract_z
  _atom_site_occupancy
  Fe  Fe1       1.0  0.3114351361758921  0.992172037873716  0.800824599354212  1.0000
  S   S1        1.0  0.36033241011292994  0.9363970257048666  0.8133152629313076  1.0000
  S   S2        1.0  0.29420150843095905  0.052956535752495926  0.837675641036761  1.0000
  Fe  Fe2       1.0  0.2876793280064516  0.9437149926242446  0.7320650138060095  1.0000
  S   S3        1.0  0.33374282544485634  0.8825821022762873  0.7388824366377039  1.0000
  S   S4        1.0  0.2428623742959487  0.9420739938375634  0.6873763634795489  1.0000
  Fe  Fe3       1.0  0.3142239848374189  0.8810343479125535  0.7947648598648671  1.0000
  S   S5        1.0  0.2994863888496605  0.8132918701499574  0.8262635242328634  1.0000
  Fe  Fe4       1.0  0.3754480727604137  0.9438206485732233  0.7563589636356889  1.0000
  S   S6        1.0  0.43740609704221894  0.9479536520812377  0.7321721452436009  1.0000
  S   S7        1.0  0.26415249277318603  0.9364403515729888  0.7863645931087251  1.0000
  S   S8        1.0  0.3307438476933789  0.005379793445472458  0.7454263463413443  1.0000
  Fe  Fe5       1.0  0.24636934577542216  0.9538326250797166  0.44613966609106  1.0000
  S   S9        1.0  0.22239729855985332  0.9956626508046363  0.49225206463800203  1.0000
  S   S10       1.0  0.22348575525213987  0.8761032131217797  0.43806685955912245  1.0000
  Fe  Fe6       1.0  0.29972988903556724  0.03898427461655096  0.4223000103964194  1.0000
  S   S11       1.0  0.27963292931621153  0.08779932122502232  0.4660041164016479  1.0000
  S   S12       1.0  0.34093202703205283  0.07203875890630251  0.38178560941586875  1.0000
  Fe  Fe7       1.0  0.2871365835776586  0.019806681251883784  0.4995665281648621  1.0000
  S   S13       1.0  0.32110780086952206  0.029797975035154245  0.5503331585919579  1.0000
  Fe  Fe8       1.0  0.2172543764139355  0.05897056823344249  0.4541590204660016  1.0000
  S   S14       1.0  0.16420941916769652  0.11170762396676936  0.4541067578897477  1.0000
  S   S15       1.0  0.3121303291927374  0.9724196725495625  0.45651329783818545  1.0000
  S   S16       1.0  0.23647485637703772  0.015683368318524238  0.4073158357748887  1.0000
  Fe  Fe9       1.0  0.8011804878000012  0.3692775705428585  0.7847626530002735  1.0000
  S   S17       1.0  0.7999952590970336  0.3670189166079066  0.8434146466735241  1.0000
  S   S18       1.0  0.7520772300231665  0.40710734041876717  0.7530293359235636  1.0000
  Fe  Fe10      1.0  0.8788970886473237  0.3094036640280011  0.7807261848662703  1.0000
  S   S19       1.0  0.8855955939182114  0.3021593408522972  0.8389074220523326  1.0000
  S   S20       1.0  0.9229062531753571  0.28151996923856026  0.7407464678841762  1.0000
  Fe  Fe11      1.0  0.818376885990628  0.2871107677159286  0.8378479976761464  1.0000
  S   S21       1.0  0.7943992800509642  0.22601392701419384  0.8724684234706775  1.0000
  Fe  Fe12      1.0  0.8667358655688208  0.3822343776670739  0.8398155746626513  1.0000
  S   S22       1.0  0.8928428940763071  0.438060156187241  0.8769225473441095  1.0000
  S   S23       1.0  0.8131835404545754  0.28738531155165875  0.7793088775659369  1.0000
  S   S24       1.0  0.8664678440437992  0.39152219854309706  0.7815301482039169  1.0000
  Fe  Fe13      1.0  0.739221841240489  0.4252253244565914  0.5179031908780125  1.0000
  S   S25       1.0  0.7617738062642964  0.40170465534578975  0.5710729605453355  1.0000
  S   S26       1.0  0.6755197299720307  0.41577149917359574  0.4969003105048389  1.0000
  Fe  Fe14      1.0  0.8227031973939534  0.45757271874861594  0.492931845917531  1.0000
  S   S27       1.0  0.8532643801721345  0.43716127830814633  0.5436322976064669  1.0000
  S   S28       1.0  0.8524274784696662  0.48031558342640757  0.4423843834404079  1.0000
  Fe  Fe15      1.0  0.8145845855405947  0.36905811003836403  0.5423934045098984  1.0000
  S   S29       1.0  0.8422158024930724  0.2945218734020379  0.5537344085290479  1.0000
  Fe  Fe16      1.0  0.7984969947563745  0.4719434717992154  0.5686796257582913  1.0000
  S   S30       1.0  0.8112318294712465  0.5180142924916289  0.6164052917600618  1.0000
  S   S31       1.0  0.7888930025391486  0.3859397071380296  0.48960685748831784  1.0000
  S   S32       1.0  0.77110151601932  0.4990628312221631  0.5177454362307423  1.0000
  Fe  Fe17      1.0  0.5401624911844711  0.24413007009512086  0.3211932375083932  1.0000
  S   S33       1.0  0.5591154909783467  0.26727306799877953  0.3753269118779337  1.0000
  S   S34       1.0  0.4966705011195076  0.2885987014380799  0.28782357833394717  1.0000
  Fe  Fe18      1.0  0.5788766427288277  0.14215183964084743  0.32829330993378225  1.0000
  S   S35       1.0  0.5998527291382746  0.1561666549152374  0.38309977713278665  1.0000
  S   S36       1.0  0.589643731388007  0.0658613788283009  0.30754639334710115  1.0000
  Fe  Fe19      1.0  0.5385279833303983  0.1908521283307465  0.3907310968517932  1.0000
  S   S37       1.0  0.5009143280004712  0.17309028774603297  0.4382279524160933  1.0000
  Fe  Fe20      1.0  0.6183965926772418  0.23040014784106497  0.3618464606691171  1.0000
  S   S38       1.0  0.6809675008811877  0.25657278390575505  0.3764978628381211  1.0000
  S   S39       1.0  0.5160353982980982  0.17001192322156822  0.33751345021193074  1.0000
  S   S40       1.0  0.6015431672285463  0.21400669120048632  0.3060624884073018  1.0000
  Fe  Fe21      1.0  0.7278619242258096  0.827874647979753  0.9281452832858784  1.0000
  S   S41       1.0  0.7625678181461308  0.8966561037537297  0.9415074577020194  1.0000
  S   S42       1.0  0.6635931693030677  0.8208572964692433  0.9466864020133708  1.0000
  Fe  Fe22      1.0  0.7990272311489883  0.7797704516069127  0.8915631292600084  1.0000
  S   S43       1.0  0.8391054228643167  0.8458048105505495  0.9004141609645171  1.0000
  S   S44       1.0  0.828367004386392  0.7117823759618619  0.8683316440379341  1.0000
  Fe  Fe23      1.0  0.8137930931262598  0.8446733272675166  0.9543950169515768  1.0000
  S   S45       1.0  0.8564875909606822  0.8565454821752515  0.9995136967489944  1.0000
  Fe  Fe24      1.0  0.7844611715874228  0.8915127026613012  0.8862520397393207  1.0000
  S   S46       1.0  0.79579260151858  0.9595017166533283  0.8534706363780199  1.0000
  S   S47       1.0  0.7769960032648986  0.7756634365380294  0.9468594195538257  1.0000
  S   S48       1.0  0.7460749377812327  0.8257402950396123  0.8715860117686961  1.0000
  Fe  Fe25      1.0  0.8536624123204126  0.9623104032251789  0.20173887098661994  1.0000
  S   S49       1.0  0.8149387081515987  0.00016621215574685877  0.24157231214253488  1.0000
  S   S50       1.0  0.91812531072893  0.9879950635495374  0.1988557114399693  1.0000
  Fe  Fe26      1.0  0.7870289459762999  0.8922817743024288  0.18029598933063012  1.0000
  S   S51       1.0  0.7424480707424825  0.9224255143732696  0.21882273180387346  1.0000
  S   S52       1.0  0.7654194812913502  0.8342470509092018  0.14281671003454374  1.0000
  Fe  Fe27      1.0  0.7655243731192608  0.996795490561077  0.2012385967684442  1.0000
  S   S53       1.0  0.724236096961139  0.062065600059742154  0.19100485171525372  1.0000
  Fe  Fe28      1.0  0.7957341260980642  0.9233102549884019  0.25587677870676806  1.0000
  S   S54       1.0  0.7972654561533071  0.908055125741798  0.3134861865604834  1.0000
  S   S55       1.0  0.8060815297241484  0.9668228631953575  0.159512362892565  1.0000
  S   S56       1.0  0.8384668416151009  0.8851334640066392  0.21908349934346297  1.0000
  Fe  Fe29      1.0  0.3235463553614633  0.32564762856092677  0.05588874680121103  1.0000
  S   S57       1.0  0.3219257289598279  0.3932846125520081  0.021282911115987346  1.0000
  S   S58       1.0  0.35863758721624256  0.3186700142745519  0.10620221263379581  1.0000
  Fe  Fe30      1.0  0.2719757678663546  0.26446451510150437  0.006005496316730419  1.0000
  S   S59       1.0  0.2667702990693708  0.3258256231566877  0.966286560231724  1.0000
  S   S60       1.0  0.24304739757407312  0.19047839309876144  0.9975906226190827  1.0000
  Fe  Fe31      1.0  0.3328593375889406  0.33844542966143343  0.9780357728724554  1.0000
  S   S61       1.0  0.38225435800419133  0.345046963882006  0.9380567188943345  1.0000
  Fe  Fe32      1.0  0.2558791809181128  0.373850320336969  0.01313185805673811  1.0000
  S   S62       1.0  0.1998653781935449  0.4217040232049614  0.017097516540619084  1.0000
  S   S63       1.0  0.33900287352228314  0.27220669709228756  0.01356441379634532  1.0000
  S   S64       1.0  0.2566892919330713  0.31116038498590487  0.0521138726928263  1.0000
  Fe  Fe33      1.0  0.2868073533944831  0.3674896947120742  0.33899326942546343  1.0000
  S   S65       1.0  0.27018248909943376  0.33507659715376686  0.2870652772852665  1.0000
  S   S66       1.0  0.33820750265252414  0.3390312502138801  0.37279406468361315  1.0000
  Fe  Fe34      1.0  0.21436155703297732  0.43872598462567186  0.33872627820503703  1.0000
  S   S67       1.0  0.19149147185130388  0.412502421043199  0.286621867805895  1.0000
  S   S68       1.0  0.17903555749851713  0.48765382277215863  0.3747980439046943  1.0000
  Fe  Fe35      1.0  0.20649462016304437  0.3360727336766395  0.3071108894445927  1.0000
  S   S69       1.0  0.16763894897270507  0.26790428624751295  0.3079573890685059  1.0000
  Fe  Fe36      1.0  0.2574480528622592  0.41449412959978627  0.2714659353564411  1.0000
  S   S70       1.0  0.2757160679490401  0.45184325080790205  0.22101713898392858  1.0000
  S   S71       1.0  0.2239776276706567  0.36245681763761634  0.3602398653820595  1.0000
  S   S72       1.0  0.2793596523318963  0.44719878312511757  0.32226133125795114  1.0000
  Fe  Fe37      1.0  0.8933996793214678  0.18526344519337093  0.38060161516428465  1.0000
  S   S73       1.0  0.8957683918440218  0.2531557642991945  0.3466519537520314  1.0000
  S   S74       1.0  0.8359008145225679  0.17754459301886913  0.41113886515142756  1.0000
  Fe  Fe38      1.0  0.9723804485096723  0.14290728437912703  0.352018066610185  1.0000
  S   S75       1.0  0.9803618076459488  0.20740237743428525  0.3153894076282254  1.0000
  S   S76       1.0  0.017940226248022606  0.07977079356083938  0.34836399983522043  1.0000
  Fe  Fe39      1.0  0.9618001696181906  0.25394160924857984  0.3609256959055414  1.0000
  S   S77       1.0  0.9961190762922248  0.32475654174663066  0.3687742016104995  1.0000
  Fe  Fe40      1.0  0.9137591782449205  0.20032290938993746  0.30493617174117693  1.0000
  S   S78       1.0  0.883252856424491  0.20275388997950983  0.2526951439068861  1.0000
  S   S79       1.0  0.9584077486238725  0.19019707429374094  0.3989540028002838  1.0000
  S   S80       1.0  0.9067746708105646  0.13162484128501806  0.33751914635715696  1.0000
  Fe  Fe41      1.0  0.007458331366108517  0.6744799022845012  0.41041224301471135  1.0000
  S   S81       1.0  0.9957472641592784  0.649824641927266  0.35550942625302484  1.0000
  S   S82       1.0  0.005284581459827464  0.6202559868299694  0.45556027410193695  1.0000
  Fe  Fe42      1.0  0.019302329006907426  0.7826367596767526  0.3884868999768049  1.0000
  S   S83       1.0  0.0075187131233001026  0.7665878903055231  0.331666434911107  1.0000
  S   S84       1.0  0.035602492174681144  0.8616455698583448  0.40218688647272094  1.0000
  Fe  Fe43      1.0  0.9572523089282422  0.7183214499352375  0.35164999246388795  1.0000
  S   S85       1.0  0.8968375000540938  0.7085167253743156  0.3253626538478599  1.0000
  Fe  Fe44      1.0  0.04712384422443864  0.6997862521085333  0.341181673906291  1.0000
  S   S86       1.0  0.09512670509915719  0.6740530873205149  0.3039432370185095  1.0000
  S   S87       1.0  0.9649792655123685  0.7401650814535967  0.40778420463891923  1.0000
  S   S88       1.0  0.06277396769947395  0.719059376238575  0.3966489112679402  1.0000
  Fe  Fe45      1.0  0.5797411945346851  0.16469970704935868  0.906922129102196  1.0000
  S   S89       1.0  0.5410248662275535  0.14432464836490055  0.9528424346585015  1.0000
  S   S90       1.0  0.605697967092479  0.24080709143682721  0.8996672997490931  1.0000
  Fe  Fe46      1.0  0.5679534918138638  0.06579067112753467  0.871214601043056  1.0000
  S   S91       1.0  0.527958122165801  0.036282350328590285  0.9135307217596148  1.0000
  S   S92       1.0  0.5857816707291806  0.021469061249566712  0.8242562986781473  1.0000
  Fe  Fe47      1.0  0.49945805827691847  0.11213041628670407  0.9122618121723503  1.0000
  S   S93       1.0  0.4318349145569707  0.121568623341086  0.9145753059838327  1.0000
  Fe  Fe48      1.0  0.5733964799956008  0.07072433350674201  0.9499938482523365  1.0000
  S   S94       1.0  0.5923457661334707  0.026388348154209318  0.9972926663639727  1.0000
  S   S95       1.0  0.5351743403349226  0.1386221088124544  0.8663097973557614  1.0000
  S   S96       1.0  0.6162608725304908  0.09396956773256604  0.9076576356335783  1.0000
  Fe  Fe49      1.0  0.07164824989856533  0.6001730006710214  0.8525913420966552  1.0000
  S   S97       1.0  0.07762804465300088  0.5947056503538423  0.9109184579787657  1.0000
  S   S98       1.0  0.0558752691725406  0.5319401853917654  0.8219551860785898  1.0000
  Fe  Fe50      1.0  0.09751025760452742  0.7087697710986766  0.8504166445633342  1.0000
  S   S99       1.0  0.10570451182304234  0.7123656109839483  0.9086045339444292  1.0000
  S   S100      1.0  0.11113845183004306  0.7732054429692856  0.8147440829545254  1.0000
  Fe  Fe51      1.0  0.13540671890941794  0.6374294278507371  0.9033793557279387  1.0000
  S   S101      1.0  0.19733360583630113  0.6170811522963866  0.9248811401702228  1.0000
  Fe  Fe52      1.0  0.04715557883685628  0.6697293238767703  0.9100793883329437  1.0000
  S   S102      1.0  0.9977904921568015  0.6933265973092864  0.9469367436090836  1.0000
  S   S103      1.0  0.13169361746140493  0.6371248247380257  0.8448689320042988  1.0000
  S   S104      1.0  0.03656026668680479  0.6719697014918566  0.8519818649808135  1.0000
  Fe  Fe53      1.0  0.02877434126514511  0.08537118991037951  0.8368350872716747  1.0000
  S   S105      1.0  0.9969956479382348  0.1369369935642506  0.8734856941395057  1.0000
  S   S106      1.0  0.01696019911939195  0.08310230027125166  0.7791771285605638  1.0000
  Fe  Fe54      1.0  0.08118471474036165  0.04011353470181822  0.8939208060368407  1.0000
  S   S107      1.0  0.053061702723873595  0.0860459539002143  0.9360887631467613  1.0000
  S   S108      1.0  0.12928004621795872  0.9821378125066788  0.9041017558670064  1.0000
  Fe  Fe55      1.0  0.9943618372555152  0.07026585628096993  0.9085328139955895  1.0000
  S   S109      1.0  0.938945891281609  0.054643226194234895  0.9400137866464198  1.0000
  Fe  Fe56      1.0  0.058311157696521704  0.14880963652506374  0.8974299488963577  1.0000
  S   S110      1.0  0.07769429984637788  0.22452826359203612  0.9154827458962006  1.0000
  S   S111      1.0  0.021514433654999277  0.017293244745693048  0.8701668098051826  1.0000
  S   S112      1.0  0.09093033574246218  0.10399234379159707  0.8569383892669854  1.0000
  C   C1        1.0  0.15526879241714184  0.5377860437549186  0.3535477292010266  1.0000
  C   C2        1.0  0.16570868580064455  0.5517628900803334  0.3194318701426346  1.0000
  C   C3        1.0  0.1466650688996929  0.593219650184143  0.30359844661781127  1.0000
  C   C4        1.0  0.11659701519975646  0.619579990311146  0.32163767099192225  1.0000
  C   C5        1.0  0.10550002932931189  0.6043427336803041  0.3552203147454494  1.0000
  C   C6        1.0  0.12549074121293644  0.5644269369275634  0.37143318754951204  1.0000
  H   H1        1.0  0.18886111979450337  0.5312097722084139  0.3055651049527004  1.0000
  H   H2        1.0  0.15526303752727721  0.6048735034662038  0.2775506630135883  1.0000
  H   H3        1.0  0.08225634253432734  0.6240784024975505  0.3692896954456277  1.0000
  H   H4        1.0  0.1178322875085821  0.5543329401675873  0.3979294083321421  1.0000
  C   C7        1.0  0.12137354419261615  0.2851318083160206  0.3270232084743142  1.0000
  C   C8        1.0  0.10001680865651386  0.25091965128831484  0.3474371030613756  1.0000
  C   C9        1.0  0.06173549594736589  0.2636005107316641  0.36065343346028145  1.0000
  C   C10       1.0  0.0451452947514884  0.3107769163968905  0.3541327921577786  1.0000
  C   C11       1.0  0.06711353052656253  0.3456570981908104  0.3348032946024504  1.0000
  C   C12       1.0  0.1051652743454057  0.3327355924946291  0.32116371359859464  1.0000
  H   H5        1.0  0.11319821208861927  0.21493752916147138  0.3534925841871532  1.0000
  H   H6        1.0  0.04507139042605297  0.23708047981438554  0.37619579523117114  1.0000
  H   H7        1.0  0.05416191149230732  0.38192267459598256  0.32920666242619867  1.0000
  H   H8        1.0  0.12125342672062961  0.3592003809326542  0.30520101230293595  1.0000
  C   C13       1.0  0.19948354785705075  0.47506988374721043  0.9906547433745346  1.0000
  C   C14       1.0  0.1636331166242506  0.5032342776801254  0.9877540128550829  1.0000
  C   C15       1.0  0.16270499826407814  0.5466444021937175  0.9672582966174316  1.0000
  C   C16       1.0  0.19777127112578938  0.5622870948864535  0.9499882443967905  1.0000
  C   C17       1.0  0.2337184195735266  0.5342281136144743  0.9530497944716514  1.0000
  C   C18       1.0  0.23448982453891923  0.4903052755604514  0.9731227015445627  1.0000
  H   H9        1.0  0.13658884817184336  0.4916449602567684  0.0014826050302836347  1.0000
  H   H10       1.0  0.13522366119209067  0.568798999418731  0.9656880341181163  1.0000
  H   H11       1.0  0.2609562421358464  0.5463820667331717  0.9398603781044644  1.0000
  H   H12       1.0  0.2622648591810429  0.46865950323120625  0.9753930109812587  1.0000
  C   C19       1.0  0.39515784313812236  0.28419739235880653  0.9259982990353759  1.0000
  C   C20       1.0  0.434949866137754  0.2722941843412815  0.9159487656766585  1.0000
  C   C21       1.0  0.4464602420671263  0.22227615163256673  0.9115635479832296  1.0000
  C   C22       1.0  0.417943471170928  0.18446307811668775  0.9168041062198176  1.0000
  C   C23       1.0  0.3777014014259215  0.19676500051317022  0.9244574797403008  1.0000
  C   C24       1.0  0.3663654565080696  0.24641897166547205  0.9293948053550676  1.0000
  H   H13       1.0  0.4572261673826881  0.3015120342811979  0.9128726531718002  1.0000
  H   H14       1.0  0.4775683656626947  0.21310154774654824  0.9049947795805217  1.0000
  H   H15       1.0  0.35543273580962614  0.167846309563574  0.9272707532961281  1.0000
  H   H16       1.0  0.3352994472624841  0.25544981044089143  0.9361950071004326  1.0000
  C   C25       1.0  0.12318781387298894  0.21564599232001982  0.9390970463200584  1.0000
  C   C26       1.0  0.14200187706235867  0.25544765707910855  0.9561372677844127  1.0000
  C   C27       1.0  0.17852149610219745  0.24765413550940255  0.9747683809461959  1.0000
  C   C28       1.0  0.19614839278954135  0.20010166956339284  0.9763705422923198  1.0000
  C   C29       1.0  0.1767635841211996  0.16022899836595628  0.9600641644667217  1.0000
  C   C30       1.0  0.14065970000872358  0.16817258872791527  0.9411326910488388  1.0000
  H   H17       1.0  0.12841136693494906  0.2921092840078292  0.9551249357746654  1.0000
  H   H18       1.0  0.19270047151158923  0.2783449932190335  0.9882141292865994  1.0000
  H   H19       1.0  0.18965999093713656  0.12324271937758358  0.9617242052536435  1.0000
  H   H20       1.0  0.12650385710049117  0.1374477624713537  0.9279376970630322  1.0000
  C   C31       1.0  0.3355710859869236  0.35547202647874365  0.13803773598970426  1.0000
  C   C32       1.0  0.32324236083500035  0.404126849398251  0.13004707665151471  1.0000
  C   C33       1.0  0.305411583686439  0.4337027488941868  0.15589746641381355  1.0000
  C   C34       1.0  0.2983157481412179  0.4140043934884634  0.189304856668458  1.0000
  C   C35       1.0  0.31030359830415205  0.3651914926659451  0.1970901807377458  1.0000
  C   C36       1.0  0.32955290832704665  0.3362204129482486  0.17167327439430813  1.0000
  H   H21       1.0  0.3282368658793028  0.4192386014209579  0.10412235782515133  1.0000
  H   H22       1.0  0.2969640787411502  0.4717789031648354  0.14989797942718328  1.0000
  H   H23       1.0  0.30524228149834315  0.3497250157344001  0.2226877055039359  1.0000
  H   H24       1.0  0.33903203314512337  0.2985097533191431  0.17784151479928267  1.0000
  C   C37       1.0  0.8968648580687152  0.1469617674629946  0.23263837662342254  1.0000
  C   C38       1.0  0.9319370210063181  0.12150856476267013  0.24386322193054105  1.0000
  C   C39       1.0  0.9406191417193385  0.07399485185554422  0.23103595038514002  1.0000
  C   C40       1.0  0.9134262375801387  0.05135973657366932  0.20782832957506553  1.0000
  C   C41       1.0  0.8790020865992146  0.07742019249460785  0.1957845625126539  1.0000
  C   C42       1.0  0.8709984562493656  0.12556172623141015  0.20782007861293805  1.0000
  H   H25       1.0  0.9517772707828652  0.13791539332266378  0.2631480414740473  1.0000
  H   H26       1.0  0.9670497775817154  0.05390866017117091  0.24058191714890842  1.0000
  H   H27       1.0  0.857850017905153  0.059908868161126616  0.1779042849324043  1.0000
  H   H28       1.0  0.8437608696436152  0.14505880870964227  0.19921110850419124  1.0000
  C   C43       1.0  0.8221443079635092  0.8510488798153608  0.3190456706317708  1.0000
  C   C44       1.0  0.8166282036750663  0.813640610058631  0.29426314967113815  1.0000
  C   C45       1.0  0.8392292954907202  0.7695036443725864  0.29677694085405903  1.0000
  C   C46       1.0  0.8684721358693044  0.7635751666774415  0.3232607117542306  1.0000
  C   C47       1.0  0.8741852010048776  0.8010770309170423  0.348075078928519  1.0000
  C   C48       1.0  0.8501688238887636  0.8443494419858744  0.34648423357961317  1.0000
  H   H29       1.0  0.7948276457267833  0.8187057720749753  0.2731160733812241  1.0000
  H   H30       1.0  0.8347518637081764  0.7404831878425583  0.27762173248919175  1.0000
  H   H31       1.0  0.8968036848888731  0.7966326167931038  0.36857852896799487  1.0000
  H   H32       1.0  0.8542457634147551  0.873356473990815  0.3656863247467519  1.0000
  C   C49       1.0  0.8338092282965702  0.9918505087304084  0.8762569660649502  1.0000
  C   C50       1.0  0.8316254325798501  0.9950885880082592  0.9126627780722404  1.0000
  C   C51       1.0  0.8636010932461285  0.015801387765912667  0.9318735329177569  1.0000
  C   C52       1.0  0.8980549165275834  0.03335646593256447  0.9147622576849441  1.0000
  C   C53       1.0  0.8998801804572696  0.03207724857496963  0.8781503745549815  1.0000
  C   C54       1.0  0.8675147784143293  0.011504439471240246  0.8588253164350781  1.0000
  H   H33       1.0  0.805298789027799  0.9814950131028262  0.9262146452093173  1.0000
  H   H34       1.0  0.862068882372123  0.016915322617704343  0.9601563596900493  1.0000
  H   H35       1.0  0.9264595777877861  0.04593447974961018  0.8647710742296915  1.0000
  H   H36       1.0  0.8693572375812613  0.009064009056339417  0.8306184139882046  1.0000
  C   C55       1.0  0.8750110703275802  0.7038175520982736  0.8906170821470498  1.0000
  C   C56       1.0  0.9049036067226751  0.6712775175570402  0.878125526426913  1.0000
  C   C57       1.0  0.9424876878350001  0.6668310769102909  0.895754073727069  1.0000
  C   C58       1.0  0.9504908964690963  0.6956540383859442  0.9253963123133959  1.0000
  C   C59       1.0  0.9205311359565013  0.7276934868818482  0.9379196929328386  1.0000
  C   C60       1.0  0.8828154915269313  0.731248765886487  0.920896171588756  1.0000
  H   H37       1.0  0.899473692941048  0.6501350948257181  0.8546274945652769  1.0000
  H   H38       1.0  0.9651013908494116  0.6409817367881867  0.8864408487384997  1.0000
  H   H39       1.0  0.9267172105682052  0.7504927809382969  0.960453176153865  1.0000
  H   H40       1.0  0.8598702392250929  0.7554897371852177  0.9312922349635578  1.0000
  C   C61       1.0  0.6449393156638638  0.8782820325229064  0.9612953141282461  1.0000
  C   C62       1.0  0.615512476645233  0.8794709235834037  0.9875313795482931  1.0000
  C   C63       1.0  0.5998099734358202  0.9251310244302985  0.9989593575153495  1.0000
  C   C64       1.0  0.612560995926323  0.9695651979181794  0.9833715938394185  1.0000
  C   C65       1.0  0.64146766174951  0.9683996669837968  0.9567215616202784  1.0000
  C   C66       1.0  0.6580379671824836  0.9228480998643297  0.9460085662185242  1.0000
  H   H41       1.0  0.6051830936655779  0.8450893533833078  0.9992990311733568  1.0000
  H   H42       1.0  0.5773321250205505  0.9259761930153355  0.019496553114416892  1.0000
  H   H43       1.0  0.6515281057427738  0.002693982928233307  0.944728197825704  1.0000
  H   H44       1.0  0.6801374372358329  0.9222649113854473  0.9252474693159763  1.0000
  C   C67       1.0  0.82968583136925  0.8541370556890654  0.038821366481555986  1.0000
  C   C68       1.0  0.7910526036285811  0.8325439727616006  0.039894037382388836  1.0000
  C   C69       1.0  0.7716690515442668  0.825553747477934  0.07204705044181314  1.0000
  C   C70       1.0  0.790280390013314  0.8417838529600526  0.10295785260356925  1.0000
  C   C71       1.0  0.8283140531024022  0.8648268118759909  0.10177484178555685  1.0000
  C   C72       1.0  0.8481103068025959  0.8707810513783962  0.06971034354616878  1.0000
  H   H45       1.0  0.7764869482824984  0.8200024693904929  0.01610827776023993  1.0000
  H   H46       1.0  0.7421137239455332  0.8079584100717643  0.07293250200676771  1.0000
  H   H47       1.0  0.8429226610669976  0.8770866929875628  0.12568000894503448  1.0000
  H   H48       1.0  0.8779187349732416  0.8877457332387586  0.0689244590493796  1.0000
  C   C73       1.0  0.4522336090863992  0.29779482980336025  0.31213445992303773  1.0000
  C   C74       1.0  0.41402634316027154  0.2946992244995632  0.2958399955046045  1.0000
  C   C75       1.0  0.3786521809777909  0.30556710977826296  0.3147003768495133  1.0000
  C   C76       1.0  0.38146627374887143  0.3201064428982156  0.3497244639324823  1.0000
  C   C77       1.0  0.4195213795471771  0.3212828356595576  0.3663434152471452  1.0000
  C   C78       1.0  0.4548478067817683  0.3103340020316754  0.34754299996792626  1.0000
  H   H49       1.0  0.4118060865657486  0.2839247100928444  0.26864886460728377  1.0000
  H   H50       1.0  0.3493585422301624  0.30293724201759586  0.3020172515080549  1.0000
  H   H51       1.0  0.4218138469441017  0.3321302761681705  0.3935168552054444  1.0000
  H   H52       1.0  0.4841472816794178  0.31346716603786684  0.36020340312622456  1.0000
  C   C79       1.0  0.6274794117818644  0.06663172676263085  0.27565180795230076  1.0000
  C   C80       1.0  0.6270248005729001  0.10247088007057781  0.24890072552380277  1.0000
  C   C81       1.0  0.6568346518602122  0.10120266481482565  0.22276539942696844  1.0000
  C   C82       1.0  0.6874987516428305  0.06482447623711751  0.22393616395539717  1.0000
  C   C83       1.0  0.6888238115311921  0.030622795700055327  0.2516329362401725  1.0000
  C   C84       1.0  0.6584426518813788  0.030861576634283683  0.27705014163281133  1.0000
  H   H53       1.0  0.6030759530201075  0.13023417920246372  0.24779159461564929  1.0000
  H   H54       1.0  0.6559585322218707  0.12810552166685052  0.20158366486515383  1.0000
  H   H55       1.0  0.7132591764144723  0.0039057748629918176  0.2536671239721135  1.0000
  H   H56       1.0  0.6592223036539496  0.0035743322526844423  0.2980057586085821  1.0000
  C   C85       1.0  0.9652601083979463  0.5773690840851384  0.452207339104941  1.0000
  C   C86       1.0  0.9465544428921646  0.5592560808300394  0.4825106232109899  1.0000
  C   C87       1.0  0.9126111446670166  0.5277936381534719  0.4799214537578838  1.0000
  C   C88       1.0  0.8978664788745431  0.5137293873459179  0.44698645292823935  1.0000
  C   C89       1.0  0.9180635123216265  0.5295154287268923  0.4168451335291915  1.0000
  C   C90       1.0  0.951371078681826  0.5616371409588569  0.41944089993556277  1.0000
  H   H57       1.0  0.9573589296081529  0.5710025631822897  0.5079902381514556  1.0000
  H   H58       1.0  0.8971734277994  0.5158081438240916  0.5033577850722094  1.0000
  H   H59       1.0  0.9072500654280408  0.5179999330245578  0.3913220614577099  1.0000
  H   H60       1.0  0.9663720432495966  0.57382875607832  0.3960171330872053  1.0000
  C   C91       1.0  0.8405957176413426  0.26093412503147  0.5146378680590052  1.0000
  C   C92       1.0  0.8763676301217672  0.25290672713461276  0.4958754062348652  1.0000
  C   C93       1.0  0.8750254896668336  0.22742743683892874  0.46398489427480516  1.0000
  C   C94       1.0  0.8380769449953082  0.20902282058249336  0.4511698943454718  1.0000
  C   C95       1.0  0.8023052573627819  0.21691230924275426  0.47001677767200206  1.0000
  C   C96       1.0  0.8034457974915821  0.24352062362102592  0.5014882667949782  1.0000
  H   H61       1.0  0.9050512052557629  0.2667963691935223  0.5058359718925755  1.0000
  H   H62       1.0  0.9026805451245984  0.22172144683874853  0.44960425824627  1.0000
  H   H63       1.0  0.7737276975123691  0.20255957964537974  0.46021531448365827  1.0000
  H   H64       1.0  0.7756891346844503  0.2500398434653218  0.5158358334853251  1.0000
  C   C97       1.0  0.675950519554539  0.37076174563026476  0.46392129135502413  1.0000
  C   C98       1.0  0.6991746828447293  0.32733489665275334  0.468071848389669  1.0000
  C   C99       1.0  0.7004472388418987  0.29216063710171003  0.44116962174379304  1.0000
  C   C100      1.0  0.6782429795605969  0.3001276843711143  0.41022308092675774  1.0000
  C   C101      1.0  0.6539732112836262  0.34278056595679773  0.4064525245153542  1.0000
  C   C102      1.0  0.6527784596496521  0.3780638967034258  0.43335372495529006  1.0000
  H   H65       1.0  0.7162690736381649  0.3208551281259177  0.49202739086111263  1.0000
  H   H66       1.0  0.7186226688774553  0.25876549318274505  0.4443801862785677  1.0000
  H   H67       1.0  0.6366105307135299  0.3488920201145546  0.3825899563237666  1.0000
  H   H68       1.0  0.6345820534426436  0.41150524424675106  0.43020877452149575  1.0000
  C   C103      1.0  0.009783823131672253  0.506954238876347  0.8362973343805864  1.0000
  C   C104      1.0  0.9941954562647228  0.4641071249949277  0.8205378330849153  1.0000
  C   C105      1.0  0.9581747542987618  0.4427190661256629  0.8329319142082814  1.0000
  C   C106      1.0  0.9379169600460856  0.464068719964495  0.8612195532963162  1.0000
  C   C107      1.0  0.9534574610146546  0.5069429644337788  0.8769222351145445  1.0000
  C   C108      1.0  0.9892849012368132  0.5284798801363726  0.8643754397895851  1.0000
  H   H69       1.0  0.010008892610336106  0.4473948431420623  0.7987896074355452  1.0000
  H   H70       1.0  0.9463925770466943  0.4094311805072746  0.8208117373217977  1.0000
  H   H71       1.0  0.9377120973548471  0.5236953566858855  0.8986891175512642  1.0000
  H   H72       1.0  0.0011090161558684475  0.5616289730756404  0.8765440044901021  1.0000
  C   C109      1.0  0.9465649615431376  0.22453928196209746  0.7508436118235757  1.0000
  C   C110      1.0  0.9762371743969697  0.2059035845584904  0.7282747661356327  1.0000
  C   C111      1.0  0.9967847701184547  0.1614300145124924  0.7364250418437922  1.0000
  C   C112      1.0  0.9879238741826101  0.13567875173421573  0.7673085813085434  1.0000
  C   C113      1.0  0.9571170185380066  0.153304961568818  0.7892291917903076  1.0000
  C   C114      1.0  0.9364731461120782  0.19782328410720432  0.7810639530794607  1.0000
  H   H73       1.0  0.9839264830808703  0.22635920450794242  0.7047921437589443  1.0000
  H   H74       1.0  0.020415267225478484  0.14783665011034275  0.7193564104597452  1.0000
  H   H75       1.0  0.9488571234448562  0.13228752162308743  0.8122232554044984  1.0000
  H   H76       1.0  0.9129072714539953  0.21145060661517162  0.7981176613930071  1.0000
  C   C115      1.0  0.7426107963933402  0.23335425413743735  0.881950523166681  1.0000
  C   C116      1.0  0.7245404928043503  0.20182746171802537  0.9065877445958223  1.0000
  C   C117      1.0  0.6824399773066919  0.204043949437867  0.9121581613868226  1.0000
  C   C118      1.0  0.6585146439632477  0.23873284576014636  0.8937574232137819  1.0000
  C   C119      1.0  0.67680027988289  0.27140330204658925  0.8700048038405034  1.0000
  C   C120      1.0  0.7187687992416516  0.2683355496536004  0.8637802954811331  1.0000
  H   H77       1.0  0.7430328384975797  0.17548024966420298  0.9212502758320706  1.0000
  H   H78       1.0  0.6685623845600626  0.17957540289448848  0.9311386393472926  1.0000
  H   H79       1.0  0.6583322048386926  0.2983143019699402  0.8557733151787057  1.0000
  H   H80       1.0  0.7324151281741039  0.29250971839633383  0.8444938529612106  1.0000
  C   C121      1.0  0.7683034272933565  0.4396407811846582  0.715679378197422  1.0000
  C   C122      1.0  0.743397460391383  0.4406565816269158  0.6857531116987186  1.0000
  C   C123      1.0  0.7562533479499494  0.46514198817438135  0.6552772351600906  1.0000
  C   C124      1.0  0.7936238198604059  0.48983078201647606  0.6549274267055084  1.0000
  C   C125      1.0  0.8180043165354005  0.49015887914599837  0.6851980258238345  1.0000
  C   C126      1.0  0.805686428681787  0.4643906753936881  0.715357849443242  1.0000
  H   H81       1.0  0.7143408162509817  0.4218486791598268  0.6859602931430486  1.0000
  H   H82       1.0  0.7370284846087465  0.46539401184203943  0.63215239945845  1.0000
  H   H83       1.0  0.8469149859828188  0.5092974952172007  0.6849670751990645  1.0000
  H   H84       1.0  0.8248906319678143  0.4642262600677105  0.7383896601681879  1.0000
  C   C127      1.0  0.38189983964023283  0.10489583134052816  0.40007921488689113  1.0000
  C   C128      1.0  0.39650727140638165  0.09369575657338802  0.4337660405398178  1.0000
  C   C129      1.0  0.4321064659361235  0.11662331502465628  0.4463281151121024  1.0000
  C   C130      1.0  0.45254279015948407  0.15143189781735988  0.42550127683724637  1.0000
  C   C131      1.0  0.43596280525917513  0.16525572802328092  0.3930317464932264  1.0000
  C   C132      1.0  0.4012434692712386  0.14133977769185413  0.3800200967176184  1.0000
  H   H85       1.0  0.38135945070451976  0.06595965321145303  0.4495878867576925  1.0000
  H   H86       1.0  0.444486631302993  0.10616722573379  0.4716775014150328  1.0000
  H   H87       1.0  0.4499261615079997  0.1944292861141086  0.37781245355097554  1.0000
  H   H88       1.0  0.3895545501041974  0.15104883972966188  0.35428922575087546  1.0000
  C   C133      1.0  0.12606705281319036  0.10355579374571411  0.4222528522017624  1.0000
  C   C134      1.0  0.1258370248417181  0.06265594809693376  0.39969666008322613  1.0000
  C   C135      1.0  0.09287236706604769  0.05557769850244543  0.3765103439733335  1.0000
  C   C136      1.0  0.06010269474956983  0.08920238113440848  0.3761310356945913  1.0000
  C   C137      1.0  0.0610928005388732  0.13042751207998338  0.39808473963984203  1.0000
  C   C138      1.0  0.09386223172274408  0.13764882549904445  0.421032088713885  1.0000
  H   H89       1.0  0.15042919488188267  0.035937486408860186  0.40063159023336997  1.0000
  H   H90       1.0  0.09240858709146203  0.023633264266978316  0.3594222428288663  1.0000
  H   H91       1.0  0.03640839988089728  0.15668573512506168  0.3977534985974176  1.0000
  H   H92       1.0  0.0938826409684208  0.16944539210841025  0.43830808672261634  1.0000
  C   C139      1.0  0.17080881496774303  0.8740313186660172  0.42988496774066276  1.0000
  C   C140      1.0  0.15092264443372502  0.9127829007236673  0.41193613146349706  1.0000
  C   C141      1.0  0.1092334580283729  0.9091546565594263  0.40385635380723267  1.0000
  C   C142      1.0  0.08735694588299166  0.8667391898092863  0.4136511584306767  1.0000
  C   C143      1.0  0.10702761456431752  0.8286856190812932  0.4324543700332633  1.0000
  C   C144      1.0  0.14869788440359394  0.8321972106849531  0.4403846309174409  1.0000
  H   H93       1.0  0.16784109492652377  0.9450013233521867  0.40355551164943915  1.0000
  H   H94       1.0  0.09412144010301948  0.9387744163793771  0.38942014802465913  1.0000
  H   H95       1.0  0.0900076289584328  0.7968108825312072  0.4413773522624296  1.0000
  H   H96       1.0  0.16376128086575173  0.8025680365792541  0.45487835699574836  1.0000
  C   C145      1.0  0.47759948827392756  0.9692811053168394  0.7586076028445146  1.0000
  C   C146      1.0  0.5170557452694385  0.9682836072350103  0.7451608534806969  1.0000
  C   C147      1.0  0.5499552039813418  0.9849560585338605  0.7653714357447847  1.0000
  C   C148      1.0  0.5435593250429562  0.0034416776944099503  0.7989938005852952  1.0000
  C   C149      1.0  0.5040426477226182  0.004822076187482649  0.8125578177418222  1.0000
  C   C150      1.0  0.47105715341292814  0.9873266522103749  0.7924306167034567  1.0000
  H   H97       1.0  0.5222845168381841  0.9543037456870572  0.719075245700581  1.0000
  H   H98       1.0  0.5804389003760133  0.9835928740560576  0.7548684815616661  1.0000
  H   H99       1.0  0.49899105753536543  0.01864740517732244  0.8386780095703387  1.0000
  H   H100      1.0  0.44069234726184175  0.9877794223626244  0.80302700634769  1.0000
  C   C151      1.0  0.24978515289996361  0.033602563644992145  0.8587624972983686  1.0000
  C   C152      1.0  0.24308518609409566  0.9829722413163986  0.8652608362201543  1.0000
  C   C153      1.0  0.2065883757290517  0.9673009818536681  0.8804422124387333  1.0000
  C   C154      1.0  0.17685687222950566  0.002287848798815606  0.8893854900070535  1.0000
  C   C155      1.0  0.18459341841853075  0.05300167712305437  0.8846735802635276  1.0000
  C   C156      1.0  0.22084727397716217  0.06867571083607005  0.869111904842054  1.0000
  H   H101      1.0  0.26614350835824996  0.9557416596233312  0.8588691790183275  1.0000
  H   H102      1.0  0.20105899265710797  0.9280029703017759  0.8845293292598038  1.0000
  H   H103      1.0  0.16256746398467198  0.08025591157632306  0.8928684940624988  1.0000
  H   H104      1.0  0.2260642232390871  0.1079393706068541  0.8646431825580527  1.0000
  C   C157      1.0  0.16285939655019402  0.7877199511613646  0.8186237912734196  1.0000
  C   C158      1.0  0.18369612577076108  0.7785848300438903  0.8500864358148507  1.0000
  C   C159      1.0  0.22538034684818758  0.7885434022552998  0.8528327584122027  1.0000
  C   C160      1.0  0.24656667800030047  0.8064219056524098  0.8238585343759957  1.0000
  C   C161      1.0  0.22564261030529176  0.8165266501202961  0.7925138238088787  1.0000
  C   C162      1.0  0.18370486834383443  0.807483597444394  0.7899761769464163  1.0000
  H   H105      1.0  0.16766578601131243  0.7643398368628446  0.8724941300654456  1.0000
  H   H106      1.0  0.24113383378062334  0.7824403084426407  0.8774686918930603  1.0000
  H   H107      1.0  0.24196395341603943  0.8299344174030839  0.7698863349238877  1.0000
  H   H108      1.0  0.16769942719697326  0.8143385011729792  0.7655319163892578  1.0000
  C   C163      1.0  0.2954789474494991  0.009300019168902107  0.5877845024950471  1.0000
  C   C164      1.0  0.3083213226180845  0.026348918456607695  0.6205896206316872  1.0000
  C   C165      1.0  0.2912807388722453  0.006863230566877876  0.6511962416244461  1.0000
  C   C166      1.0  0.26148425683464854  0.9700488115545545  0.6491595604676967  1.0000
  C   C167      1.0  0.24777504363728248  0.9539327904183994  0.6163273492940925  1.0000
  C   C168      1.0  0.26491202647958156  0.9733739314625663  0.5856184500218081  1.0000
  H   H109      1.0  0.3317018181002296  0.05446707721728927  0.6223287420849108  1.0000
  H   H110      1.0  0.30121323861565574  0.020389704814960607  0.6763334244253026  1.0000
  H   H111      1.0  0.2247238749745247  0.9253942600909102  0.6146628136493908  1.0000
  H   H112      1.0  0.2553288700958329  0.959452780729296  0.560408091910824  1.0000
  N   N1        1.0  0.46752022087541695  0.26745062959076327  0.025311254297800456  1.0000
  C   C169      1.0  0.5122022254112351  0.2670950249126731  0.030380081779763257  1.0000
  C   C170      1.0  0.4472945301588676  0.2657152568551058  0.05973301323422375  1.0000
  C   C171      1.0  0.45547037238674104  0.22359580407038804  0.0045406115122081925  1.0000
  C   C172      1.0  0.455168349636585  0.3134065362778131  0.006491769897660538  1.0000
  H   H113      1.0  0.5283082319232876  0.26896631279661287  0.004820993562049347  1.0000
  H   H114      1.0  0.5226968024136057  0.232535143865642  0.044007617926751896  1.0000
  H   H115      1.0  0.5224095307841288  0.2993930250271404  0.04624503405654856  1.0000
  H   H116      1.0  0.4544934763053049  0.29908715209680525  0.07572578379846262  1.0000
  H   H117      1.0  0.4135651315761642  0.26468252361102795  0.05681356447887076  1.0000
  H   H118      1.0  0.45656418452529135  0.23219819113053197  0.07512785004753542  1.0000
  H   H119      1.0  0.4223138514120451  0.22416730412432306  0.9981680341544327  1.0000
  H   H120      1.0  0.46237294055484696  0.18817631404617763  0.018666101265404578  1.0000
  H   H121      1.0  0.47203407810028697  0.2223507552093329  0.9793032065596764  1.0000
  H   H122      1.0  0.42157912095794625  0.3153643557014667  0.002729639181694221  1.0000
  H   H123      1.0  0.468956204625104  0.31551437892553325  0.9799995827408704  1.0000
  H   H124      1.0  0.46428935906811747  0.3473554112798518  0.021033946791018332  1.0000
  N   N2        1.0  0.8272930139823972  0.5541291173126629  0.8199900370171606  1.0000
  C   C173      1.0  0.7931202146654963  0.5216486111105338  0.8094709315164876  1.0000
  C   C174      1.0  0.8198133610389272  0.6052273617022405  0.8067780819429934  1.0000
  C   C175      1.0  0.8656034451795248  0.5347176019595343  0.805149417794599  1.0000
  C   C176      1.0  0.8306528584521942  0.5548948525946596  0.8586060824329336  1.0000
  H   H125      1.0  0.7981860176327084  0.48250974727726786  0.8183628906634369  1.0000
  H   H126      1.0  0.7890786796614392  0.5208018552596431  0.7805134124897292  1.0000
  H   H127      1.0  0.7638288962250822  0.5345207597753457  0.820785416096076  1.0000
  H   H128      1.0  0.7915954498233071  0.6215294034972111  0.8180202131248608  1.0000
  H   H129      1.0  0.8451737554061994  0.6306231533205693  0.8139962216490075  1.0000
  H   H130      1.0  0.816611133611142  0.6060791330918306  0.777752765850498  1.0000
  H   H131      1.0  0.8643833657119748  0.5340957161163695  0.7760336464059544  1.0000
  H   H132      1.0  0.8718652152949389  0.4960418864383743  0.8143067168376124  1.0000
  H   H133      1.0  0.8922455576287832  0.5576440398970148  0.8131507120733055  1.0000
  H   H134      1.0  0.8571253379166908  0.5773661099245091  0.8674840988674087  1.0000
  H   H135      1.0  0.8348290231147967  0.5167234685514009  0.8695726133363195  1.0000
  H   H136      1.0  0.8029715141258198  0.5712744695242158  0.8706658054878886  1.0000
  N   N3        1.0  0.8406658576497684  0.6555990792279306  0.41713168821098684  1.0000
  C   C177      1.0  0.8552840628459536  0.6245044363431229  0.38798486368291873  1.0000
  C   C178      1.0  0.7979418612536564  0.6428248324078818  0.4248617797586875  1.0000
  C   C179      1.0  0.843267501625969  0.7086445779597642  0.4070713406925376  1.0000
  C   C180      1.0  0.8662068048521823  0.6463468245503017  0.44857451794200454  1.0000
  H   H137      1.0  0.8881162703880002  0.6312133045904462  0.38262339773806214  1.0000
  H   H138      1.0  0.8384172224452392  0.6328407832612315  0.3632028660708684  1.0000
  H   H139      1.0  0.8515495588542586  0.5841920231592883  0.3938520166005909  1.0000
  H   H140      1.0  0.7778769167162071  0.649274685954834  0.40162055217662446  1.0000
  H   H141      1.0  0.79508919775432  0.6028911121355097  0.43258604747309837  1.0000
  H   H142      1.0  0.785916399321162  0.6655122732431171  0.44678548764025633  1.0000
  H   H143      1.0  0.8323410664826728  0.7334485514262106  0.4282458965905884  1.0000
  H   H144      1.0  0.8248638428394328  0.7169111775380713  0.3830754449527746  1.0000
  H   H145      1.0  0.8751994474897509  0.7191360631509606  0.4011626302554124  1.0000
  H   H146      1.0  0.8570621121852205  0.670466790736638  0.4707493703300418  1.0000
  H   H147      1.0  0.8990085730545326  0.6534912991749151  0.44331959460120696  1.0000
  H   H148      1.0  0.8636053791981574  0.6071368015947464  0.45766523984437296  1.0000
  N   N4        1.0  0.9422144504250212  0.9350593433721486  0.3025776784360741  1.0000
  C   C181      1.0  0.908429026136536  0.9716498332631447  0.30209160785226014  1.0000
  C   C182      1.0  0.9508714865801695  0.9192350477469714  0.33903998130956803  1.0000
  C   C183      1.0  0.9789954702728442  0.9581190310289316  0.2876539581880904  1.0000
  C   C184      1.0  0.9306366055063295  0.8913812448683562  0.28140566759803454  1.0000
  H   H149      1.0  0.8799789358566906  0.9553404961545989  0.3128404614038569  1.0000
  H   H150      1.0  0.9013854170660789  0.9845274065600713  0.2749379782304286  1.0000
  H   H151      1.0  0.9159950633065053  0.005169533404071558  0.31780031416028864  1.0000
  H   H152      1.0  0.9602714626273119  0.9512869816912053  0.3555522128412079  1.0000
  H   H153      1.0  0.9236956378387644  0.9021553423685698  0.3512813497831085  1.0000
  H   H154      1.0  0.975935034197324  0.8911597728900426  0.34040246407944397  1.0000
  H   H155      1.0  0.9738707430349225  0.9689543780800842  0.25977347106701937  1.0000
  H   H156      1.0  0.005370913918167908  0.9319870826596063  0.2885679380009876  1.0000
  H   H157      1.0  0.9877738264646906  0.9922400513735896  0.3022973004480223  1.0000
  H   H158      1.0  0.9549066536039595  0.8623345907546075  0.28181093881337343  1.0000
  H   H159      1.0  0.92478883325778  0.9020722879089387  0.25356549907826387  1.0000
  H   H160      1.0  0.9023082597702758  0.8738570786252613  0.29124929166922836  1.0000
  N   N5        1.0  0.08577552449623815  0.15183511945500497  0.26304313720420647  1.0000
  C   C185      1.0  0.1031627621817155  0.14137320436634096  0.29813431177638217  1.0000
  C   C186      1.0  0.04788967955302903  0.1230139365675067  0.2583983965239127  1.0000
  C   C187      1.0  0.11541961448304772  0.13732397878732372  0.23603680922826278  1.0000
  C   C188      1.0  0.07677005758149424  0.20565070295340176  0.2597000919891151  1.0000
  H   H161      1.0  0.13170417083831953  0.16269788017929346  0.3027235016569396  1.0000
  H   H162      1.0  0.1101531654020893  0.10112815277464726  0.3018548308274613  1.0000
  H   H163      1.0  0.08136207956046193  0.15190134462340876  0.31901359515930505  1.0000
  H   H164      1.0  0.03309723282374111  0.13073422659567635  0.23258560777291287  1.0000
  H   H165      1.0  0.05370888719796274  0.08226097481616536  0.2604099655613133  1.0000
  H   H166      1.0  0.025410615602902142  0.13208446875249225  0.27900480309879533  1.0000
  H   H167      1.0  0.10324217439437033  0.14487794681913702  0.2092247393737612  1.0000
  H   H168      1.0  0.123024413844254  0.09697183128295173  0.23782144743866757  1.0000
  H   H169      1.0  0.1443850402085476  0.1584035906700092  0.23898789457437913  1.0000
  H   H170      1.0  0.056615014184716816  0.2187678059591968  0.2810063134534671  1.0000
  H   H171      1.0  0.06147037321098181  0.2147207813832327  0.2343473505542777  1.0000
  H   H172      1.0  0.10503301896997597  0.22824795042670537  0.2614239562501914  1.0000
  N   N6        1.0  0.9696885624742784  0.8718639121249092  0.9107656474389445  1.0000
  C   C189      1.0  0.9638574434006968  0.8282715437625163  0.8878339081928706  1.0000
  C   C190      1.0  0.947455802306873  0.9152730747382799  0.8960419149565234  1.0000
  C   C191      1.0  0.013582358191417843  0.8835386868856611  0.9133114249076173  1.0000
  C   C192      1.0  0.9538903827746924  0.8604129457305711  0.946007666003003  1.0000
  H   H173      1.0  0.9803097190112082  0.7948701562141168  0.8982755589001356  1.0000
  H   H174      1.0  0.9754075468397211  0.8354799791288281  0.8609821017180463  1.0000
  H   H175      1.0  0.9310941327056397  0.8182173957927387  0.8853955026049244  1.0000
  H   H176      1.0  0.951797774918097  0.9488492744336235  0.9125898673826323  1.0000
  H   H177      1.0  0.958000037058344  0.9247527062770546  0.869229751140847  1.0000
  H   H178      1.0  0.9140966478403499  0.9084291919124178  0.8944023304113385  1.0000
  H   H179      1.0  0.01916954673193172  0.9162459977762019  0.9304657462291358  1.0000
  H   H180      1.0  0.026508975714208738  0.8925209286652723  0.8871854091580642  1.0000
  H   H181      1.0  0.03137234788550014  0.8515605683627965  0.9242683841022876  1.0000
  H   H182      1.0  0.9568819123410266  0.8928664721295173  0.9638404139762364  1.0000
  H   H183      1.0  0.9704224159632564  0.8283528559585149  0.958179430341234  1.0000
  H   H184      1.0  0.9209610718598724  0.8507367403629489  0.9449347445068336  1.0000
  N   N7        1.0  0.48625934237779866  0.01617949257484219  0.3553818210355095  1.0000
  C   C193      1.0  0.5105948545343729  0.9742006280126  0.34181685789029476  1.0000
  C   C194      1.0  0.47349519137144036  0.04894149238578005  0.3260123815496357  1.0000
  C   C195      1.0  0.5111084176638341  0.044882427849911144  0.3805385997768539  1.0000
  C   C196      1.0  0.44979030950714544  0.9967508684977937  0.37315885498739554  1.0000
  H   H185      1.0  0.5210469747427674  0.9489623618110912  0.3632996167990768  1.0000
  H   H186      1.0  0.5383041588235397  0.9876223052036976  0.32813586662488914  1.0000
  H   H187      1.0  0.4928560012290125  0.9518327385509714  0.3226693965939302  1.0000
  H   H188      1.0  0.4553727867021841  0.08129409034815072  0.33540272204460164  1.0000
  H   H189      1.0  0.5003169057419921  0.06395856298147962  0.3118166325173666  1.0000
  H   H190      1.0  0.4544001555791082  0.02875006423376103  0.3066273229285107  1.0000
  H   H191      1.0  0.49393134004296946  0.07731178232649949  0.3908338824696294  1.0000
  H   H192      1.0  0.5390941513286516  0.05971464742226518  0.3680973998926046  1.0000
  H   H193      1.0  0.52088917280522  0.021719892413295527  0.4033392578827865  1.0000
  H   H194      1.0  0.4308607469274756  0.027487299333922355  0.38366624746112965  1.0000
  H   H195      1.0  0.45813256838538297  0.9720332507185727  0.3955804389318959  1.0000
  H   H196      1.0  0.4300223705440419  0.9753600737754373  0.3549181543441322  1.0000
  N   N8        1.0  0.9022070634082381  0.20450026950086098  0.9266497501531687  1.0000
  C   C197      1.0  0.8713485564861762  0.17579808839932978  0.9460581769677966  1.0000
  C   C198      1.0  0.9425964730676636  0.19767469036291402  0.9434750932670967  1.0000
  C   C199      1.0  0.8911386885817335  0.25788520356913885  0.9268618768116325  1.0000
  C   C200      1.0  0.90369994218701  0.18657987647133334  0.8901765657958117  1.0000
  H   H197      1.0  0.8405895363018665  0.1801806106806527  0.9338356574884855  1.0000
  H   H198      1.0  0.8693191915953873  0.18804422138963786  0.973735349722851  1.0000
  H   H199      1.0  0.878793586038973  0.1353060717537904  0.9463418594193757  1.0000
  H   H200      1.0  0.9667491766874389  0.21826583098196575  0.9291630225003993  1.0000
  H   H201      1.0  0.9426915971094779  0.21086385597350307  0.9710037520859699  1.0000
  H   H202      1.0  0.9518446374520882  0.15781686828777586  0.9440634101149309  1.0000
  H   H203      1.0  0.913924385903665  0.2806714635322856  0.9126005210560767  1.0000
  H   H204      1.0  0.8892613518113102  0.27244042334508906  0.9539884121854393  1.0000
  H   H205      1.0  0.8609729837693054  0.2645400697694871  0.9140852944523307  1.0000
  H   H206      1.0  0.9269186151362357  0.20688439832000818  0.8746556286984927  1.0000
  H   H207      1.0  0.8740314085235086  0.1917545865675989  0.8764687702203264  1.0000
  H   H208      1.0  0.9109536498209275  0.1460955235998429  0.8892473852008209  1.0000
  N   N9        1.0  0.5649721874830954  0.28491135234938403  0.48906612760878887  1.0000
  C   C201      1.0  0.5484885791353413  0.25053737750040755  0.5156914944621124  1.0000
  C   C202      1.0  0.5937495474294199  0.25755810017708936  0.4666154662360695  1.0000
  C   C203      1.0  0.5863807736042637  0.32631696424963874  0.5065661110453401  1.0000
  C   C204      1.0  0.5312473312690942  0.3051797438133501  0.4672950082936077  1.0000
  H   H209      1.0  0.5322066721285906  0.21884278428140636  0.5032056942771445  1.0000
  H   H210      1.0  0.5263925098724941  0.26969466642263373  0.5330008120494277  1.0000
  H   H211      1.0  0.5732039666637114  0.23460173634854856  0.5325049759566719  1.0000
  H   H212      1.0  0.6204880009249093  0.24328098826237343  0.4817800558468601  1.0000
  H   H213      1.0  0.5788964520359584  0.22517155016490148  0.4538041688457564  1.0000
  H   H214      1.0  0.6056030833322875  0.2818387465747642  0.44550522312987306  1.0000
  H   H215      1.0  0.6137483040422596  0.31309640047758125  0.5214107465967937  1.0000
  H   H216      1.0  0.566260641836462  0.34618379040665864  0.5251865872562155  1.0000
  H   H217      1.0  0.5970679075722097  0.3544380163223864  0.4872933372751637  1.0000
  H   H218      1.0  0.5427256746272098  0.3308586514118924  0.4466620554913626  1.0000
  H   H219      1.0  0.508957402936791  0.326175267047203  0.48332764185870125  1.0000
  H   H220      1.0  0.5142940238920706  0.2750144332028049  0.4537450083137854  1.0000
  N   N10       1.0  0.7247837836911297  0.08592219885354369  0.8357247818451621  1.0000
  C   C205      1.0  0.7008393003716343  0.1318764877152354  0.8292936888001337  1.0000
  C   C206      1.0  0.6977000171811062  0.04223978266187145  0.8335738694728935  1.0000
  C   C207      1.0  0.7436668839500806  0.08781718028461505  0.8709336843900264  1.0000
  C   C208      1.0  0.7570867902698464  0.08177792461896716  0.8091688334826638  1.0000
  H   H221      1.0  0.7205821155497213  0.16543218351348488  0.8298969789315275  1.0000
  H   H222      1.0  0.676909943384483  0.13709915064665212  0.849443811570661  1.0000
  H   H223      1.0  0.6853011649264698  0.1312114265186144  0.8033156332936003  1.0000
  H   H224      1.0  0.6732331389157676  0.044016292357439646  0.8535070318520818  1.0000
  H   H225      1.0  0.6824601439821817  0.03983017397430633  0.8075067097517586  1.0000
  H   H226      1.0  0.7149552868603428  0.00691297562775306  0.8379981355311183  1.0000
  H   H227      1.0  0.7608634874154725  0.05304617878625906  0.8770584609990313  1.0000
  H   H228      1.0  0.7203392535206072  0.0926238319930075  0.8916076876484765  1.0000
  H   H229      1.0  0.7655635348315403  0.11918517366041281  0.8729962000874946  1.0000
  H   H230      1.0  0.775923522640028  0.04763832193078921  0.8133896289473669  1.0000
  H   H231      1.0  0.7781094582423967  0.11417940940605509  0.8102447136247843  1.0000
  H   H232      1.0  0.7440560040651255  0.08003989517063159  0.7822414466405643  1.0000
  N   N11       1.0  0.710324868996578  0.9708403138164838  0.08104711632910687  1.0000
  C   C209      1.0  0.7498650455640513  0.9609163124573428  0.0641615853787516  1.0000
  C   C210      1.0  0.7016569530868162  0.9308191553636866  0.10659427861988145  1.0000
  C   C211      1.0  0.6778080341935835  0.9724084415885023  0.05404682595580401  1.0000
  C   C212      1.0  0.7119799774175971  0.019095891008741317  0.09938953099925918  1.0000
  H   H233      1.0  0.7580783280757554  0.9911512966768261  0.04553401392118572  1.0000
  H   H234      1.0  0.7491772181088434  0.9255764724611798  0.049141801943037855  1.0000
  H   H235      1.0  0.7749575250634907  0.9574415455512635  0.08382734879292995  1.0000
  H   H236      1.0  0.7251168893950665  0.9293199531645693  0.12778150287263634  1.0000
  H   H237      1.0  0.6716990774340738  0.9364712483467013  0.11938343397996176  1.0000
  H   H238      1.0  0.7013632997164343  0.8935633684151328  0.09398679721180181  1.0000
  H   H239      1.0  0.6833364573639974  0.002009657823326627  0.034141694335473316  1.0000
  H   H240      1.0  0.6474413398448906  0.9801239830991868  0.06563409730048785  1.0000
  H   H241      1.0  0.6756454340447874  0.9364252724482096  0.03983885670881038  1.0000
  H   H242      1.0  0.6830600206912854  0.027141459178215088  0.11333877713546259  1.0000
  H   H243      1.0  0.7175438681629827  0.05043712032663139  0.08091626185655841  1.0000
  H   H244      1.0  0.7367563111000882  0.01952734306952575  0.11947184938385867  1.0000
  N   N12       1.0  0.4007051260596288  0.12308643276701892  0.8080653720188365  1.0000
  C   C213      1.0  0.4178780764663756  0.16758765556306626  0.8251655939697438  1.0000
  C   C214      1.0  0.42780283865713953  0.10694483647352328  0.7795517283532037  1.0000
  C   C215      1.0  0.3599397764827674  0.13531788175486595  0.7936205607387286  1.0000
  C   C216      1.0  0.3971192622987096  0.08246756168090452  0.8340777765617301  1.0000
  H   H245      1.0  0.42247870579201685  0.19852532744172777  0.806156105213325  1.0000
  H   H246      1.0  0.44777919978348946  0.15921382010899746  0.8379017417120149  1.0000
  H   H247      1.0  0.39733116207626223  0.18163825906570613  0.845954659842971  1.0000
  H   H248      1.0  0.4160570531592281  0.07283624301645132  0.7665180456106404  1.0000
  H   H249      1.0  0.4308020024207857  0.13635034312039007  0.7591287908543258  1.0000
  H   H250      1.0  0.4589697775479127  0.09816836241096283  0.7896453196501574  1.0000
  H   H251      1.0  0.34590010917087344  0.10260003027024212  0.7806357608117326  1.0000
  H   H252      1.0  0.36126867566502757  0.16609835542590812  0.774083352807072  1.0000
  H   H253      1.0  0.33864113367478166  0.1468809696779323  0.81467072095708  1.0000
  H   H254      1.0  0.4272952768965987  0.07206003367191816  0.8455089196635905  1.0000
  H   H255      1.0  0.38366589915482036  0.04854354228103142  0.8222551047755895  1.0000
  H   H256      1.0  0.3771152526421819  0.0935111634182324  0.8561400198691187  1.0000
  N   N13       1.0  0.8066251356756874  0.3457399956754455  0.38787757156744396  1.0000
  C   C217      1.0  0.8279912330801606  0.3698951905257919  0.35849136033676304  1.0000
  C   C218      1.0  0.8359145878247348  0.3356686450289117  0.4167016760191966  1.0000
  C   C219      1.0  0.788455637207852  0.2983094110127964  0.37627689941077896  1.0000
  C   C220      1.0  0.7740553755036989  0.3793265678341821  0.4001347024187276  1.0000
  H   H257      1.0  0.8531551477637861  0.34619995294362815  0.3486477158221581  1.0000
  H   H258      1.0  0.8417168700488509  0.4058831139112413  0.36676247238124554  1.0000
  H   H259      1.0  0.8069069989445066  0.3776462192747341  0.3361495517396816  1.0000
  H   H260      1.0  0.8209729439138275  0.3166108668933579  0.43906833151560687  1.0000
  H   H261      1.0  0.8611868152630981  0.3109434969433057  0.40820940119425037  1.0000
  H   H262      1.0  0.849701716052417  0.3706176556473174  0.42677651233236835  1.0000
  H   H263      1.0  0.7729795578164766  0.27884663580580643  0.398254289608261  1.0000
  H   H264      1.0  0.8119759767690152  0.2721693351251693  0.3665111128150055  1.0000
  H   H265      1.0  0.7652783100154755  0.30424366933390895  0.35522383321129275  1.0000
  H   H266      1.0  0.786629234609087  0.4152385275106657  0.40972899878655683  1.0000
  H   H267      1.0  0.7570297615177699  0.362275155698218  0.4220076149439939  1.0000
  H   H268      1.0  0.7514476910091371  0.3877238195038826  0.37903835045293044  1.0000
  N   N14       1.0  0.131693256810242  0.9601164371105703  0.7853877945943053  1.0000
  C   C221      1.0  0.14870330852350108  0.9415987219399897  0.7521698051777301  1.0000
  C   C222      1.0  0.13538331907631254  0.9208575422782473  0.8125409634654184  1.0000
  C   C223      1.0  0.08829308282629952  0.9733847210368237  0.7801916606872928  1.0000
  C   C224      1.0  0.15432180487967362  0.0046882649699435675  0.7967300661574702  1.0000
  H   H269      1.0  0.1469561836909346  0.9703471654967237  0.7310907391711112  1.0000
  H   H270      1.0  0.13219475152609086  0.9080679624287419  0.7428174517044186  1.0000
  H   H271      1.0  0.18132414848520395  0.9308676913076532  0.7551945305301452  1.0000
  H   H272      1.0  0.1225726069291753  0.9332778189161504  0.8379024872888271  1.0000
  H   H273      1.0  0.11891410745555699  0.8864430364040209  0.8048074232090592  1.0000
  H   H274      1.0  0.16778360301183584  0.9103449684538213  0.8174971889615019  1.0000
  H   H275      1.0  0.07461913897770099  0.9878402413347849  0.8047149530277994  1.0000
  H   H276      1.0  0.07007559342480961  0.9407001603555675  0.7717899402106952  1.0000
  H   H277      1.0  0.08427950762461998  0.0031214568351936034  0.7599689102491912  1.0000
  H   H278      1.0  0.15246579709572156  0.0349785081805436  0.776773592502786  1.0000
  H   H279      1.0  0.1870833397702965  0.9961206583320042  0.8014932026778238  1.0000
  H   H280      1.0  0.14185110691938682  0.01976111365027533  0.8215149127096624  1.0000
  N   N15       1.0  0.4103964654516338  0.43337286075945985  0.2491711755060604  1.0000
  C   C225      1.0  0.37527496765047363  0.4103766821087328  0.26681138862297576  1.0000
  C   C226      1.0  0.44704916962036495  0.4020621040389142  0.25479622390307705  1.0000
  C   C227      1.0  0.417414639918806  0.4833379714545638  0.2639153807352379  1.0000
  C   C228      1.0  0.4016846368255051  0.43776380714919383  0.21124416311688077  1.0000
  H   H281      1.0  0.3689407635109796  0.3726853524191446  0.25627880041248885  1.0000
  H   H282      1.0  0.3471039557907246  0.4330178277841522  0.2631152371848654  1.0000
  H   H283      1.0  0.3806713221803945  0.4064960101222834  0.2955290154402238  1.0000
  H   H284      1.0  0.4541249032374029  0.39706602313776285  0.2831827568217711  1.0000
  H   H285      1.0  0.4430158610028677  0.36417578894555835  0.24364861026679435  1.0000
  H   H286      1.0  0.47437879958138585  0.4184690446695084  0.24230616455027812  1.0000
  H   H287      1.0  0.4436448042383478  0.5020065847685682  0.25119989631623113  1.0000
  H   H288      1.0  0.42401912150925275  0.4811430408563054  0.2925413648869999  1.0000
  H   H289      1.0  0.3901328751307056  0.5077058619206165  0.2602425399664982  1.0000
  H   H290      1.0  0.37413192400557305  0.4611215014126566  0.2061065898795513  1.0000
  H   H291      1.0  0.395937277876908  0.4006500603643028  0.1993704179783165  1.0000
  H   H292      1.0  0.4275346271797071  0.4548256423695887  0.19698013081309573  1.0000
  N   N16       1.0  0.29983781576409685  0.06469804504666787  0.9582384553317241  1.0000
  C   C229      1.0  0.34475702251670054  0.0665863483328597  0.9604617381061962  1.0000
  C   C230      1.0  0.2847755410145488  0.10574519919968962  0.9356097112883511  1.0000
  C   C231      1.0  0.2825176362255554  0.06984871782051073  0.9936169773219591  1.0000
  C   C232      1.0  0.28724913858412676  0.016620013818534177  0.943165815233815  1.0000
  H   H293      1.0  0.35728011595930664  0.03590725406677997  0.9770546537983491  1.0000
  H   H294      1.0  0.3553557053161706  0.10235738302291097  0.9718336692969123  1.0000
  H   H295      1.0  0.35872599211165673  0.06335160215524273  0.9340897575655447  1.0000
  H   H296      1.0  0.2510863992047574  0.10493009932550801  0.9328196157488018  1.0000
  H   H297      1.0  0.29241720304357166  0.14269227598694711  0.9467605360943058  1.0000
  H   H298      1.0  0.29777230472962496  0.1037319310760454  0.9088363753572397  1.0000
  H   H299      1.0  0.2928222834962732  0.10485552319383085  0.006291623188077411  1.0000
  H   H300      1.0  0.291653499898917  0.03837903894492568  0.011040428524047519  1.0000
  H   H301      1.0  0.24860261029030312  0.07138460517712521  0.9925993859664896  1.0000
  H   H302      1.0  0.2535041381275903  0.014576162102227565  0.9401644574563508  1.0000
  H   H303      1.0  0.29713613295172403  0.9846995644048104  0.9598861018175964  1.0000
  H   H304      1.0  0.30072451080184165  0.011135968042620846  0.9168228387853994  1.0000
  N   N17       1.0  0.06983660346498254  0.9953817343230199  0.4903986471554971  1.0000
  C   C233      1.0  0.11227708079615567  0.9790741995700126  0.4845906940542252  1.0000
  C   C234      1.0  0.0514570782045092  0.963943155176141  0.5178690221599994  1.0000
  C   C235      1.0  0.04608877350311964  0.9904786206756672  0.4575561282700638  1.0000
  C   C236      1.0  0.06956694254857786  0.04794650105697374  0.501614641555499  1.0000
  H   H305      1.0  0.12694305291435742  0.0013804897636613413  0.46356168189007546  1.0000
  H   H306      1.0  0.11379168171327128  0.9392603212153259  0.4768292340858729  1.0000
  H   H307      1.0  0.1312640963570575  0.983264846860288  0.5086542689501391  1.0000
  H   H308      1.0  0.01942481934353646  0.9752875234464059  0.5230210762497  1.0000
  H   H309      1.0  0.0511269263804376  0.924039568238122  0.5100580423016414  1.0000
  H   H310      1.0  0.0687587316583665  0.9665010689242879  0.5429891035061086  1.0000
  H   H311      1.0  0.059387991618015584  0.013142969181831889  0.4361302401665698  1.0000
  H   H312      1.0  0.014036294242256053  0.0031108667153167957  0.4607870953898697  1.0000
  H   H313      1.0  0.045276672949904236  0.9511876645951706  0.4484910288757764  1.0000
  H   H314      1.0  0.038059500405877016  0.061754370329763386  0.5061374461455764  1.0000
  H   H315      1.0  0.08338546578577993  0.07256796058764658  0.4814943137271748  1.0000
  H   H316      1.0  0.08744158365265557  0.053129000950288496  0.5262089801226858  1.0000
  N   N18       1.0  0.26700961383650473  0.6466879795582636  0.8370926834339162  1.0000
  C   C237      1.0  0.30927891115819517  0.6377516373888857  0.8256901971637237  1.0000
  C   C238      1.0  0.2675363408814497  0.6764520967278705  0.8694890300134805  1.0000
  C   C239      1.0  0.2468703490008373  0.5985629616131006  0.8438970062862367  1.0000
  C   C240      1.0  0.2444424111197752  0.6741273896609989  0.8093531318440348  1.0000
  H   H317      1.0  0.32712426970019837  0.6172610827899611  0.8461237402035886  1.0000
  H   H318      1.0  0.32523669820361706  0.673533676033274  0.8204342923757044  1.0000
  H   H319      1.0  0.3100914334775232  0.6154974840677102  0.8012384387852373  1.0000
  H   H320      1.0  0.23608269644883292  0.6861859541852124  0.8778449102295373  1.0000
  H   H321      1.0  0.2820118201451098  0.6557653118593038  0.8916847979103267  1.0000
  H   H322      1.0  0.2844790153644692  0.7118710045372362  0.8658202905605223  1.0000
  H   H323      1.0  0.21482067482364742  0.6041765767872463  0.8521291243240332  1.0000
  H   H324      1.0  0.2623005752511094  0.5775054451277476  0.86546997047673  1.0000
  H   H325      1.0  0.24633662029528605  0.5747003974882409  0.8202269445738811  1.0000
  H   H326      1.0  0.2129029143441523  0.6835345055316326  0.8176974910482151  1.0000
  H   H327      1.0  0.24197353991999526  0.6521014288204501  0.7848918940452426  1.0000
  H   H328      1.0  0.25970514141192896  0.709802374077903  0.8027126858110903  1.0000
  N   N19       1.0  0.047932349042371404  0.4491637935584756  0.42522745011881236  1.0000
  C   C241      1.0  0.0652207988451712  0.48812332780075546  0.44802068866727046  1.0000
  C   C242      1.0  0.0431694320147369  0.4688021929206997  0.3891837955963637  1.0000
  C   C243      1.0  0.00771568652840271  0.4339988589125194  0.4386267648694274  1.0000
  C   C244      1.0  0.075671109422114  0.40566692226521983  0.42501561128304205  1.0000
  H   H329      1.0  0.09655064329380508  0.49824134935179276  0.4398487865483149  1.0000
  H   H330      1.0  0.06708053087206428  0.47554070113927893  0.475783122846779  1.0000
  H   H331      1.0  0.04632181045438527  0.5226762643643174  0.44727956877490105  1.0000
  H   H332      1.0  0.028633274794181544  0.4408672547417545  0.37173092638353183  1.0000
  H   H333      1.0  0.023793409344542216  0.5029178193753824  0.3884881399295519  1.0000
  H   H334      1.0  0.07315525544894694  0.4785564117749512  0.37764533634528175  1.0000
  H   H335      1.0  0.9862844488869703  0.46612414440312266  0.4396246588666386  1.0000
  H   H336      1.0  0.01013817105079573  0.4181588147883018  0.46553581218270523  1.0000
  H   H337      1.0  0.9934903524958762  0.40515179008175894  0.4216859750739495  1.0000
  H   H338      1.0  0.0629063450162534  0.37499019870454897  0.40898280731200154  1.0000
  H   H339      1.0  0.0809515876169078  0.39065638957241217  0.4518710722143038  1.0000
  H   H340      1.0  0.10587839648849481  0.4154082746772874  0.4137894504328979  1.0000
  N   N20       1.0  0.577497964075258  0.8709790414972178  0.866014114817763  1.0000
  C   C245      1.0  0.5717015562248648  0.8227242398452657  0.8840296535211324  1.0000
  C   C246      1.0  0.5633699937767636  0.9116655420598059  0.8888463386771537  1.0000
  C   C247      1.0  0.5537958680345173  0.8717980872390207  0.8329481881634475  1.0000
  C   C248      1.0  0.6211335538776284  0.8778493715653198  0.8581836348168271  1.0000
  H   H341      1.0  0.588264691285378  0.8215177048388012  0.9095886175843619  1.0000
  H   H342      1.0  0.583444353164746  0.7912387216966662  0.8681779484364629  1.0000
  H   H343      1.0  0.5390049035466048  0.8157766234720377  0.8895240618038694  1.0000
  H   H344      1.0  0.5681606943819932  0.9486625919102805  0.8764183331970833  1.0000
  H   H345      1.0  0.53038379684341  0.9084163968850378  0.8947432164693365  1.0000
  H   H346      1.0  0.5800887655555025  0.9116913258186904  0.9142832160364213  1.0000
  H   H347      1.0  0.5587497339559048  0.9070470461477903  0.8182553554796996  1.0000
  H   H348      1.0  0.5205168497840005  0.8687681650969163  0.837760357329861  1.0000
  H   H349      1.0  0.5628039344459898  0.8407246719723104  0.8154800088504105  1.0000
  H   H350      1.0  0.6401306970499219  0.8754064195387881  0.8823431312761615  1.0000
  H   H351      1.0  0.6267915360288868  0.9148613163111435  0.8458572984683483  1.0000
  H   H352      1.0  0.6325834774668645  0.8487444642743406  0.840115454158649  1.0000
  N   N21       1.0  0.19038991952716158  0.7421219040125809  0.35965008364180606  1.0000
  C   C249      1.0  0.22506561436152067  0.7671566219276109  0.37687601513731106  1.0000
  C   C250      1.0  0.17104949291099636  0.7079305816551861  0.38488034709749874  1.0000
  C   C251      1.0  0.20512245019266728  0.7135717336789014  0.32928593043396565  1.0000
  C   C252      1.0  0.16023843899470866  0.7797033470977351  0.3476243086200861  1.0000
  H   H353      1.0  0.2151861562939648  0.7870946387090555  0.4007656742082453  1.0000
  H   H354      1.0  0.2392733805429313  0.7952266823906962  0.35934658282217674  1.0000
  H   H355      1.0  0.24901899148399387  0.7400514075410045  0.3851912121793676  1.0000
  H   H356      1.0  0.1925920033609342  0.6785762944374352  0.39428951878424323  1.0000
  H   H357      1.0  0.1594873034765674  0.728191819476452  0.40813835415636796  1.0000
  H   H358      1.0  0.1446868826500511  0.6887959823725811  0.37272335902723824  1.0000
  H   H359      1.0  0.17948939748819848  0.6954032632693716  0.31514882014243395  1.0000
  H   H360      1.0  0.22667977921383747  0.6835187968525397  0.3374886439046437  1.0000
  H   H361      1.0  0.2208014993854541  0.7380093647899936  0.31011868967767464  1.0000
  H   H362      1.0  0.13335385215578208  0.7618786630386084  0.3349742098394671  1.0000
  H   H363      1.0  0.17356060236490264  0.8059251315106035  0.3282859236119642  1.0000
  H   H364      1.0  0.14867679448163912  0.8022164035794632  0.3697638104377672  1.0000
  N   N22       1.0  0.18298298103633762  0.4443302205071036  0.12205457798418573  1.0000
  C   C253      1.0  0.21415211186246622  0.41024347515731274  0.10789130068958186  1.0000
  C   C254      1.0  0.20298099099303016  0.48344134227603364  0.1429726163334446  1.0000
  C   C255      1.0  0.1549080843185182  0.4158815340128407  0.14453713833486237  1.0000
  C   C256      1.0  0.15991602406071703  0.46769763548545845  0.09284343819538843  1.0000
  H   H365      1.0  0.23175389941961164  0.39118294252369273  0.1291414552914727  1.0000
  H   H366      1.0  0.23624748077545418  0.43039306428770757  0.0910511975182775  1.0000
  H   H367      1.0  0.20006884164452565  0.38091880954611734  0.09132335060192087  1.0000
  H   H368      1.0  0.18046642728604775  0.5104036842765246  0.15353298088756473  1.0000
  H   H369      1.0  0.2197436214061258  0.4671704141518943  0.16574336569674242  1.0000
  H   H370      1.0  0.22529106485442799  0.5047116661014578  0.12708998134878824  1.0000
  H   H371      1.0  0.13094473513841437  0.44036869611070856  0.15572458723951654  1.0000
  H   H372      1.0  0.17150682746312768  0.3979423852359832  0.16689080760043384  1.0000
  H   H373      1.0  0.13943593610790508  0.38589596186222735  0.1295416971233898  1.0000
  H   H374      1.0  0.18037539908205374  0.48923931461458847  0.07528814592913147  1.0000
  H   H375      1.0  0.13605374334938702  0.493627568523831  0.10242959941946994  1.0000
  H   H376      1.0  0.14471620978351674  0.4392095213649081  0.07625475045583197  1.0000
  N   N23       1.0  0.27078143409656696  0.20443742989690805  0.3902362255077997  1.0000
  C   C257      1.0  0.2447835270930042  0.15978333201574002  0.391488416306725  1.0000
  C   C258      1.0  0.24524363432396787  0.24916507278333522  0.39494065573261  1.0000
  C   C259      1.0  0.29134264683680844  0.2070103267287775  0.3560115578180003  1.0000
  C   C260      1.0  0.30166080309957455  0.20205669206480636  0.4185771448373259  1.0000
  H   H377      1.0  0.2293845679668501  0.1563655492487528  0.4171914026783893  1.0000
  H   H378      1.0  0.26291897254654667  0.12524759287272436  0.38748843202510613  1.0000
  H   H379      1.0  0.220536198816826  0.16118441495598002  0.37096480932997644  1.0000
  H   H380      1.0  0.26429644065569746  0.28328714289730583  0.3955396756720918  1.0000
  H   H381      1.0  0.22238729767493826  0.25328111274694853  0.3733764245831933  1.0000
  H   H382      1.0  0.22819008393959359  0.24757722622806289  0.41997670068314036  1.0000
  H   H383      1.0  0.26891294629260004  0.20980632877539174  0.33405984944889366  1.0000
  H   H384      1.0  0.3106422902000136  0.1734375864786284  0.3516743823567957  1.0000
  H   H385      1.0  0.311549465797927  0.2400453975350063  0.354326320507432  1.0000
  H   H386      1.0  0.3206681440799065  0.16797387240977235  0.41662368638570346  1.0000
  H   H387      1.0  0.2872503702530074  0.20153986633341447  0.44483265240738845  1.0000
  H   H388      1.0  0.3225643570235817  0.2346061625395155  0.4175203134102195  1.0000
  N   N24       1.0  0.8586643343251872  0.3382193884505409  0.6585525160053928  1.0000
  C   C261      1.0  0.8341379473659604  0.36119302074103343  0.6302178166140705  1.0000
  C   C262      1.0  0.8882000310553586  0.37495928474388934  0.6719455983271325  1.0000
  C   C263      1.0  0.8807154598731439  0.29450887679703214  0.644801009171365  1.0000
  C   C264      1.0  0.831396969607955  0.32235335114878844  0.687033097377379  1.0000
  H   H389      1.0  0.811476917127087  0.33454793560308677  0.6194814732885441  1.0000
  H   H390      1.0  0.8536254428216479  0.37347089131068645  0.6081697155689001  1.0000
  H   H391      1.0  0.8171787549630284  0.3942763688080177  0.6395802473770769  1.0000
  H   H392      1.0  0.9076200084937381  0.3588535556911849  0.6931696324123071  1.0000
  H   H393      1.0  0.9087456709414646  0.38819483854973547  0.6508800014962055  1.0000
  H   H394      1.0  0.8725154136194074  0.408089863751548  0.6828424450845864  1.0000
  H   H395      1.0  0.8996626238254163  0.27618220345726613  0.6655531855857904  1.0000
  H   H396      1.0  0.9011889054660768  0.30517019423166597  0.6229528881515448  1.0000
  H   H397      1.0  0.8592615434252274  0.26626198865328654  0.6342236942421916  1.0000
  H   H398      1.0  0.8082129814914282  0.2954552324150062  0.6775664858011357  1.0000
  H   H399      1.0  0.8148447718468343  0.35451860198709423  0.6984676842209927  1.0000
  H   H400      1.0  0.8487441723416423  0.3039047013786282  0.7085532436567722  1.0000
  N   N25       1.0  0.7651297115211274  0.13826751186466524  0.3039141093835969  1.0000
  C   C265      1.0  0.7229464251399033  0.1568124925720558  0.299332170158171  1.0000
  C   C266      1.0  0.7645657284458685  0.08923845921493558  0.3216795068624623  1.0000
  C   C267      1.0  0.7884524877039364  0.17387168343042206  0.3254211469676718  1.0000
  C   C268      1.0  0.7845744385856485  0.1331725865569071  0.2693294697233271  1.0000
  H   H401      1.0  0.7221275518112098  0.1933826216607273  0.28553096270918293  1.0000
  H   H402      1.0  0.7075645061474601  0.16174656353104078  0.32498942378578194  1.0000
  H   H403      1.0  0.7042657522570325  0.1305267416398319  0.2837109323201159  1.0000
  H   H404      1.0  0.7959270162242811  0.07414269937978513  0.3255828319874121  1.0000
  H   H405      1.0  0.7501977414619743  0.09170800068202034  0.34791104954661717  1.0000
  H   H406      1.0  0.7471838019314151  0.06142615349905989  0.3061343099925236  1.0000
  H   H407      1.0  0.7903349767653532  0.2108923705831411  0.31237114376491387  1.0000
  H   H408      1.0  0.8201604106211292  0.16060764265224267  0.3300927879012584  1.0000
  H   H409      1.0  0.7742837358384519  0.17917103782213842  0.35156383779018835  1.0000
  H   H410      1.0  0.8164181461250682  0.11905574758703064  0.27186885368210223  1.0000
  H   H411      1.0  0.7860628757505327  0.16947428094766723  0.25520910231510147  1.0000
  H   H412      1.0  0.7676037334954364  0.10685990426083603  0.25223651822721305  1.0000
  N   N26       1.0  0.8926993848537697  0.7131567924321  0.04496070321308187  1.0000
  C   C269      1.0  0.915812400009667  0.7601543817678379  0.04675486710569299  1.0000
  C   C270      1.0  0.9191489172898452  0.6733967446618482  0.030969192662868794  1.0000
  C   C271      1.0  0.8567675541598169  0.7199077874436958  0.02180123398620748  1.0000
  C   C272      1.0  0.8789655902883429  0.6993038499790033  0.08045611902089855  1.0000
  H   H413      1.0  0.8971731855216137  0.7905147993489268  0.058137188007967744  1.0000
  H   H414      1.0  0.925245673566149  0.7730699308814764  0.02033582282317692  1.0000
  H   H415      1.0  0.9437708781462376  0.7560924688208847  0.06318543867850934  1.0000
  H   H416      1.0  0.9026646665243059  0.6374498200662422  0.02885958169777458  1.0000
  H   H417      1.0  0.9303731794129738  0.6829202816003772  0.004354157976061979  1.0000
  H   H418      1.0  0.9464955320981646  0.667145472499877  0.04786048717500257  1.0000
  H   H419      1.0  0.8397154280379777  0.6846017295284252  0.018292267469860898  1.0000
  H   H420      1.0  0.8654965425259918  0.7335595281131295  0.9954283807114948  1.0000
  H   H421      1.0  0.8352460667595859  0.7477799557127781  0.03254634682654678  1.0000
  H   H422      1.0  0.9051921460806337  0.694005537098212  0.09877360842370031  1.0000
  H   H423      1.0  0.861200886591048  0.6641409099136699  0.08013383278520235  1.0000
  H   H424      1.0  0.8589783299620256  0.7287726739511555  0.09170260605324865  1.0000
  N   N27       1.0  0.09222982984019246  0.4071275648617483  0.8953849419388157  1.0000
  C   C273      1.0  0.1030316042125905  0.42063304864667367  0.8590732239416016  1.0000
  C   C274      1.0  0.05684410103350768  0.43729456797966976  0.906332306926329  1.0000
  C   C275      1.0  0.12724422397820523  0.4169908020724275  0.9189310884895819  1.0000
  C   C276      1.0  0.0817191046835013  0.3537086096768847  0.897078139520768  1.0000
  H   H425      1.0  0.1290052635094332  0.3978981804008012  0.8495095195654145  1.0000
  H   H426      1.0  0.11171766960732876  0.4605644109351363  0.8569291255798958  1.0000
  H   H427      1.0  0.07688068544662663  0.41508536291819803  0.8407467546340195  1.0000
  H   H428      1.0  0.02957868011640774  0.4296590180073592  0.8897028150085676  1.0000
  H   H429      1.0  0.0484664507779089  0.42935925937791464  0.9339419188436027  1.0000
  H   H430      1.0  0.06317651599030394  0.47788076894540127  0.9039903978117964  1.0000
  H   H431      1.0  0.12031666524541929  0.40708849526598084  0.9465916043899888  1.0000
  H   H432      1.0  0.1359173226731729  0.4570309399845145  0.9183610429717588  1.0000
  H   H433      1.0  0.15453946074154223  0.3949023427631871  0.9113882910327473  1.0000
  H   H434      1.0  0.07270908389300068  0.3421882375877993  0.9239437195847489  1.0000
  H   H435      1.0  0.1078584699688252  0.32957090827064695  0.8895313275273304  1.0000
  H   H436      1.0  0.055891328566618936  0.3446493869824516  0.879177959963525  1.0000
  N   N28       1.0  0.4026993205522292  0.9209763693722776  0.6261575416442471  1.0000
  C   C277      1.0  0.3733935818277884  0.9289156773627241  0.6547190277993088  1.0000
  C   C278      1.0  0.3899973283280998  0.9503944104855151  0.5951013879685665  1.0000
  C   C279      1.0  0.40366968109022433  0.8675920677059278  0.6171192013574488  1.0000
  C   C280      1.0  0.4436227423434376  0.9368913780988538  0.6378271462532872  1.0000
  H   H437      1.0  0.38205192262143883  0.9068892828974093  0.6783700536725847  1.0000
  H   H438      1.0  0.3419555716257988  0.917896785675373  0.6468906163552977  1.0000
  H   H439      1.0  0.37228601651725396  0.9686452012818816  0.6627385500832924  1.0000
  H   H440      1.0  0.3883883494738025  0.9908862810842645  0.6010037167692075  1.0000
  H   H441      1.0  0.41139690108521204  0.9456868514824904  0.5729654465529932  1.0000
  H   H442      1.0  0.35924914242869277  0.9391938139037647  0.5855658920500065  1.0000
  H   H443      1.0  0.4254367063194522  0.8601342868242099  0.595596548311655  1.0000
  H   H444      1.0  0.37308172813030255  0.8545589804447311  0.6083863312594554  1.0000
  H   H445      1.0  0.41301698653156754  0.8443228101094026  0.6400747923209964  1.0000
  H   H446      1.0  0.4665042805474805  0.9324704295728214  0.6167726838742758  1.0000
  H   H447      1.0  0.4543248465866281  0.9148390995149779  0.660958946082508  1.0000
  H   H448      1.0  0.4435242920145657  0.9766651150845675  0.6458981564043559  1.0000
