data_image0
_chemical_formula_structural       FeS2FeS2FeSFeS3FeS2FeS2FeSFeS3FeS2FeS2FeSFeS3FeS2FeS2FeSFeS3FeS2FeS2FeSFeS3FeS2FeS2FeSFeS3FeS2FeS2FeSFeS3FeS2FeS2FeSFeS3FeS2FeS2FeSFeS3FeS2FeS2FeSFeS3FeS2FeS2FeSFeS3FeS2FeS2FeSFeS3C6H4C6H4C6H4C6H4C6H4C6H4C6H4C6H4C6H4C6H4C6H4C6H4C6H4C6H4C6H4C6H4C6H4C6H4C6H4C6H4C6H4C6H4C6H4C6H4NC4H12NC4H12NC4H12NC4H12NC4H12NC4H12NC4H12NC4H12NC4H12NC4H12NC4H12NC4H12NC4H12NC4H12NC4H12NC4H12NC4H12NC4H12NC4H12NC4H12NC4H12NC4H12NC4H12NC4H12
_chemical_formula_sum              "Fe48 S96 C240 H384 N24"
_cell_length_a       43.54989459109865
_cell_length_b       46.87848879939832
_cell_length_c       38.272023548302855
_cell_angle_alpha    89.30576543474133
_cell_angle_beta     89.31479204420283
_cell_angle_gamma    135.2943979073684

_space_group_name_H-M_alt    "P 1"
_space_group_IT_number       1

loop_
  _space_group_symop_operation_xyz
  'x, y, z'

loop_
  _atom_site_type_symbol
  _atom_site_label
  _atom_site_symmetry_multiplicity
  _atom_site_fract_x
  _atom_site_fract_y
  _atom_site_fract_z
  _atom_site_occupancy
  Fe  Fe1       1.0  0.6241539804161295  0.19540346278453777  0.39788360489926516  1.0000
  S   S1        1.0  0.6523508292982326  0.20408024250404094  0.34446542125564467  1.0000
  S   S2        1.0  0.6052325864011886  0.22413859779196466  0.4246700844370461  1.0000
  Fe  Fe2       1.0  0.637969356938653  0.14357272841103388  0.4265435159282164  1.0000
  S   S3        1.0  0.6684964028308535  0.14873037769336064  0.37586187048925257  1.0000
  S   S4        1.0  0.6258244582848793  0.11443734587353314  0.4800307311194463  1.0000
  Fe  Fe3       1.0  0.7037620691047376  0.21394823225120368  0.3732074014688351  1.0000
  S   S5        1.0  0.7729579389262375  0.2644970811554562  0.35208793314527614  1.0000
  Fe  Fe4       1.0  0.6150875086252515  0.13829868859068303  0.3502285670191345  1.0000
  S   S6        1.0  0.5825467401169302  0.0925531843237186  0.307779562691814  1.0000
  S   S7        1.0  0.6785185193106599  0.2103016596815545  0.4261205434530204  1.0000
  S   S8        1.0  0.5816552273689587  0.12814602611538342  0.40103537839693687  1.0000
  Fe  Fe5       1.0  0.5949600074313478  0.9377561605453351  0.562610783865324  1.0000
  S   S9        1.0  0.5973792337636139  0.9576586021395478  0.6163600910821655  1.0000
  S   S10       1.0  0.6110416358834995  0.9708321027025779  0.5107164154131023  1.0000
  Fe  Fe6       1.0  0.5733392078868286  0.8629552920237694  0.5913865090185749  1.0000
  S   S11       1.0  0.5750261207145365  0.8775554379797644  0.6475729527221133  1.0000
  S   S12       1.0  0.5488169499150114  0.8040894366713814  0.5727652388377242  1.0000
  Fe  Fe7       1.0  0.538560531235385  0.891852372284396  0.6289310306858908  1.0000
  S   S13       1.0  0.4813356341552066  0.8712849844552993  0.6594450717195557  1.0000
  Fe  Fe8       1.0  0.6339491889818104  0.9420225409275327  0.6302233405566363  1.0000
  S   S14       1.0  0.6964413193196826  0.9903432609075093  0.6580682515392794  1.0000
  S   S15       1.0  0.5321885423351402  0.8728029487622824  0.5740081601322276  1.0000
  S   S16       1.0  0.635826396530351  0.9263423249618935  0.5754960545860212  1.0000
  Fe  Fe9       1.0  0.6078998056388394  0.6261873137596945  0.5451359807328777  1.0000
  S   S17       1.0  0.5535945160524466  0.573254174560166  0.5799263665180205  1.0000
  S   S18       1.0  0.6415375639160454  0.6228755750250348  0.5013727460928721  1.0000
  Fe  Fe10      1.0  0.6111947854447066  0.6852589818207032  0.5852104970923454  1.0000
  S   S19       1.0  0.5575514788678826  0.6365227589414589  0.6227497360816073  1.0000
  S   S20       1.0  0.6437515772361901  0.7483647173350784  0.5990916527888583  1.0000
  Fe  Fe11      1.0  0.590654128266901  0.6160391827499004  0.6241884477587104  1.0000
  S   S21       1.0  0.6022464443172677  0.599333346000826  0.6742968652006365  1.0000
  Fe  Fe12      1.0  0.5250272072903723  0.5984862602836137  0.5755311156468971  1.0000
  S   S22       1.0  0.4522943132608943  0.5572709927015699  0.5768647501945956  1.0000
  S   S23       1.0  0.6474219795583458  0.6675985662013921  0.5900767234869357  1.0000
  S   S24       1.0  0.5763395513756732  0.6487004522898232  0.537117757118583  1.0000
  Fe  Fe13      1.0  0.648620440001694  0.41123668088640414  0.3804514212428132  1.0000
  S   S25       1.0  0.7212670958855475  0.4574667851127131  0.3745109898402722  1.0000
  S   S26       1.0  0.615969431908131  0.3537054955692597  0.3519922949539395  1.0000
  Fe  Fe14      1.0  0.6515595682138605  0.4708100700113015  0.4195729781558478  1.0000
  S   S27       1.0  0.7250111311972881  0.5212372132410523  0.4152401947775201  1.0000
  S   S28       1.0  0.6101108289491632  0.47321143015319267  0.45423863200516945  1.0000
  Fe  Fe15      1.0  0.7165457901118878  0.5006272919371575  0.3601724295680771  1.0000
  S   S29       1.0  0.7580222998704403  0.5401020476028359  0.31276223531835573  1.0000
  Fe  Fe16      1.0  0.7220943732664682  0.47283839866372396  0.42959152060002304  1.0000
  S   S30       1.0  0.7632572608151363  0.47815050207693577  0.46944925008128513  1.0000
  S   S31       1.0  0.6432033309059559  0.4535319887925521  0.3629099774518306  1.0000
  S   S32       1.0  0.649474107923934  0.4231887183266841  0.4372429752431662  1.0000
  Fe  Fe17      1.0  0.3032733972922814  0.6571298423231351  0.5914070275666227  1.0000
  S   S33       1.0  0.2957751199660877  0.6316876064313748  0.5394262339166208  1.0000
  S   S34       1.0  0.31020616026514497  0.7091636967428664  0.5954831560744218  1.0000
  Fe  Fe18      1.0  0.2897464662833575  0.5926162283427997  0.6318647264430991  1.0000
  S   S35       1.0  0.27939220160118744  0.5605525554623296  0.5833644410768326  1.0000
  S   S36       1.0  0.30025065913643884  0.5794040064645759  0.6846084445716173  1.0000
  Fe  Fe19      1.0  0.33646243052136215  0.6230801947599174  0.5613052993764588  1.0000
  S   S37       1.0  0.394714412142546  0.643728218041004  0.5316012156156276  1.0000
  Fe  Fe20      1.0  0.23933857008688386  0.571747852831404  0.5660066604216165  1.0000
  S   S38       1.0  0.17540221378232462  0.5248473486780969  0.5389288634377746  1.0000
  S   S39       1.0  0.3494297289723301  0.6545907168050507  0.6109309717673786  1.0000
  S   S40       1.0  0.24411161554739655  0.5977866022858298  0.6169651670247983  1.0000
  Fe  Fe21      1.0  0.9385641712744041  0.46096224745819314  0.4406366511546733  1.0000
  S   S41       1.0  0.9678825291669363  0.5173927457034936  0.4678529524809989  1.0000
  S   S42       1.0  0.8805314485995518  0.40010834745466756  0.4643801280388414  1.0000
  Fe  Fe22      1.0  0.001178488375166209  0.5060876775504455  0.3790530984101498  1.0000
  S   S43       1.0  0.036053868160462264  0.566845254372797  0.39983504879414716  1.0000
  S   S44       1.0  0.023363093799647454  0.5002946283203901  0.3289443584829955  1.0000
  Fe  Fe23      1.0  0.03218464186180366  0.5409065200827906  0.45129561549226993  1.0000
  S   S45       1.0  0.09074955478673197  0.5841272754215917  0.4850156105312997  1.0000
  Fe  Fe24      1.0  0.9692299247994486  0.5387325626720905  0.4147692481480187  1.0000
  S   S46       1.0  0.9505320539105052  0.5721193369058216  0.4066638783313571  1.0000
  S   S47       1.0  0.0027623840588628656  0.481990398926934  0.42920193023208275  1.0000
  S   S48       1.0  0.9343695603956916  0.48033362733469376  0.38866006393396124  1.0000
  Fe  Fe25      1.0  0.0014330241630704625  0.5243534423210119  0.0782897117137344  1.0000
  S   S49       1.0  0.014462020940644232  0.5146113706631583  0.131441534422645  1.0000
  S   S50       1.0  0.05275910830019803  0.5636092186089879  0.03520342087222483  1.0000
  Fe  Fe26      1.0  0.906481511950464  0.47375789681278807  0.09579921344948358  1.0000
  S   S51       1.0  0.9106678241604076  0.45881705664726374  0.15003114197043485  1.0000
  S   S52       1.0  0.839242740592731  0.4437024777949468  0.08199100893550137  1.0000
  Fe  Fe27      1.0  0.9737347771141912  0.5240885141233281  0.15165740152629745  1.0000
  S   S53       1.0  0.9812055801619001  0.5536229737880193  0.20111212454637223  1.0000
  Fe  Fe28      1.0  0.9501164841944616  0.4500008634269588  0.1258749173645182  1.0000
  S   S54       1.0  0.9410944418752064  0.39940677578911965  0.14644797292543527  1.0000
  S   S55       1.0  0.9664381686064395  0.5401640128534378  0.09909584565001386  1.0000
  S   S56       1.0  0.9402851343971369  0.45855760219716446  0.0709273842256217  1.0000
  Fe  Fe29      1.0  0.20030807854006066  0.5553034054262909  0.9340766025648661  1.0000
  S   S57       1.0  0.22469054104603353  0.6124487113719153  0.9098792741203491  1.0000
  S   S58       1.0  0.14349061123789422  0.5131865282764695  0.9727923903244339  1.0000
  Fe  Fe30      1.0  0.2741529749998589  0.5689908984047434  0.9000893329532224  1.0000
  S   S59       1.0  0.3051193072140589  0.6277311715706545  0.8742762870631272  1.0000
  S   S60       1.0  0.3022087680018157  0.5448970110038848  0.8848607345713617  1.0000
  Fe  Fe31      1.0  0.29044411355291655  0.6397926105509387  0.9250228896422895  1.0000
  S   S61       1.0  0.33714744938317326  0.6980092735765718  0.9536172952608031  1.0000
  Fe  Fe32      1.0  0.23666979964066684  0.5947094153448713  0.8613376217673884  1.0000
  S   S62       1.0  0.2176952845858342  0.597166903158528  0.8077661019537767  1.0000
  S   S63       1.0  0.2658031989954743  0.5839721593838665  0.9524299360181433  1.0000
  S   S64       1.0  0.2061665660478249  0.5347942621180167  0.8839974247037902  1.0000
  Fe  Fe33      1.0  0.5295172154373291  0.5925555924489846  0.8588069191000314  1.0000
  S   S65       1.0  0.6024863515587056  0.640519631589966  0.8635895016546485  1.0000
  S   S66       1.0  0.4925109383905301  0.5538495035994353  0.8121228412341679  1.0000
  Fe  Fe34      1.0  0.5141539679498333  0.6153907289461898  0.9256207827206181  1.0000
  S   S67       1.0  0.5856394645378029  0.6651953272758395  0.9356307141385832  1.0000
  S   S68       1.0  0.46744445116909683  0.6068508499875586  0.9626997436619793  1.0000
  Fe  Fe35      1.0  0.5936277365347785  0.6807315023414312  0.8785314964080593  1.0000
  S   S69       1.0  0.6299908220019677  0.7418272671904916  0.8528248401464981  1.0000
  Fe  Fe36      1.0  0.5876158521840373  0.6200507948707659  0.9206343120614392  1.0000
  S   S70       1.0  0.6278190154513719  0.6188125718231287  0.9574049319409974  1.0000
  S   S71       1.0  0.5219962255825027  0.6341437404202905  0.8697152346826943  1.0000
  S   S72       1.0  0.5148877031468785  0.5689629526022265  0.9144831694567173  1.0000
  Fe  Fe37      1.0  0.6583826278095182  0.48484451265079936  0.13302359341706751  1.0000
  S   S73       1.0  0.6009684344852093  0.4319837088990236  0.10313782400234521  1.0000
  S   S74       1.0  0.642134413879145  0.495440855748501  0.18408581196272192  1.0000
  Fe  Fe38      1.0  0.7228247491072436  0.5039091381953801  0.07940372177505224  1.0000
  S   S75       1.0  0.6702461276025822  0.45188568441100047  0.04609262056526483  1.0000
  S   S76       1.0  0.7929391894124312  0.5436190709406181  0.06225090349400143  1.0000
  Fe  Fe39      1.0  0.6379411776321274  0.4732348029710089  0.05544190836246923  1.0000
  S   S77       1.0  0.6068545558934466  0.4751931741125423  0.008916854850307137  1.0000
  Fe  Fe40      1.0  0.6392305839095408  0.4165920588556867  0.09695741388637028  1.0000
  S   S78       1.0  0.6091483041294679  0.35426857801838774  0.11305279954563704  1.0000
  S   S79       1.0  0.6926787178096162  0.5274600223330288  0.08612007259150825  1.0000
  S   S80       1.0  0.6944736539948889  0.46725074606343725  0.1296391786328135  1.0000
  Fe  Fe41      1.0  0.6366996648977314  0.955332532546646  0.8582067581731754  1.0000
  S   S81       1.0  0.6554023483507581  0.9521646148015698  0.9114585352061432  1.0000
  S   S82       1.0  0.6896289131977763  0.007090967039486179  0.8215302258527176  1.0000
  Fe  Fe42      1.0  0.5407760408221942  0.8887393263313729  0.876154283385848  1.0000
  S   S83       1.0  0.5517054603521966  0.8810900319546422  0.9311303386186901  1.0000
  S   S84       1.0  0.47524303869739754  0.8491818928542133  0.8514815118117477  1.0000
  Fe  Fe43      1.0  0.6044896829763037  0.9492182371918744  0.9315905810534869  1.0000
  S   S85       1.0  0.623874551660487  0.9870212308496733  0.9793932793051762  1.0000
  Fe  Fe44      1.0  0.6013407817848847  0.8846512018871222  0.9063908128404964  1.0000
  S   S86       1.0  0.5996933386341505  0.8393750306310847  0.9307307259936065  1.0000
  S   S87       1.0  0.5890739987363968  0.9565264534306404  0.878531708939936  1.0000
  S   S88       1.0  0.5870980560971494  0.8880340178970411  0.8511245190653137  1.0000
  Fe  Fe45      1.0  0.6073441702711772  0.15924895289936494  0.12012042339637272  1.0000
  S   S89       1.0  0.5995010368266487  0.16894923498042758  0.06484597207622707  1.0000
  S   S90       1.0  0.548750757725173  0.12018664722936817  0.15670157151752437  1.0000
  Fe  Fe46      1.0  0.7014981482654195  0.20549747073452715  0.1075719931657783  1.0000
  S   S91       1.0  0.7015368489091001  0.21845543188252947  0.05092584532843092  1.0000
  S   S92       1.0  0.7560177131096728  0.2194495209912219  0.13492920515663293  1.0000
  Fe  Fe47      1.0  0.6645542050787648  0.23252975052804692  0.07073543651442125  1.0000
  S   S93       1.0  0.6814381633887482  0.28678720530313107  0.046930462335455836  1.0000
  Fe  Fe48      1.0  0.6362272828999445  0.15338492856713917  0.04998440330956724  1.0000
  S   S94       1.0  0.6081310764364023  0.11042245596260825  0.004665200714266682  1.0000
  S   S95       1.0  0.669699146048476  0.22438634236099658  0.12766594143897467  1.0000
  S   S96       1.0  0.6394241653975711  0.13933332897330525  0.1051703642036915  1.0000
  C   C1        1.0  0.6188277817056135  0.02091650049607994  0.9858891202396912  1.0000
  C   C2        1.0  0.5983685210175265  0.02528670084214199  0.9618731237353703  1.0000
  C   C3        1.0  0.5955264065913112  0.05295213964007257  0.9679768643782172  1.0000
  C   C4        1.0  0.6132442443071555  0.07660140460342992  0.9979765874430303  1.0000
  C   C5        1.0  0.6337902564564476  0.07229755843698665  0.02194023225080821  1.0000
  C   C6        1.0  0.6365003388724337  0.0445394401446704  0.01589568954471665  1.0000
  H   H1        1.0  0.5845253474626675  0.0072118137192738185  0.9387370131409247  1.0000
  H   H2        1.0  0.5795079658447225  0.05606306881390089  0.9493332012208379  1.0000
  H   H3        1.0  0.6475770870022979  0.09030727999052926  0.045121803947921535  1.0000
  H   H4        1.0  0.6523553566023284  0.041315299996768244  0.03463158202456684  1.0000
  C   C7        1.0  0.6305687014700498  0.3365389504598164  0.09515631684626857  1.0000
  C   C8        1.0  0.6153695208359933  0.30008272006119435  0.10828701807131183  1.0000
  C   C9        1.0  0.63118204771191  0.28479172726530827  0.09412781743531823  1.0000
  C   C10       1.0  0.6620478152047429  0.3057299264929824  0.06647059173776915  1.0000
  C   C11       1.0  0.6774945131995554  0.3423314548248098  0.0535120732030521  1.0000
  C   C12       1.0  0.6619552777268378  0.3577798113344493  0.06786924883382517  1.0000
  H   H5        1.0  0.5910250227229408  0.2834390860162414  0.12933118857408515  1.0000
  H   H6        1.0  0.6189587797601008  0.25651301324534626  0.10424181958690033  1.0000
  H   H7        1.0  0.7014634816492755  0.3587767361122826  0.03220238854910667  1.0000
  H   H8        1.0  0.673840155105302  0.3858215483282093  0.057524434565127854  1.0000
  C   C13       1.0  0.620790064022889  0.7686637093289751  0.8738130987884182  1.0000
  C   C14       1.0  0.6288604037053609  0.7998585243033857  0.8558065534179191  1.0000
  C   C15       1.0  0.6220047291224787  0.821629553204065  0.8726344182668124  1.0000
  C   C16       1.0  0.6081215870422165  0.8128861502415468  0.9077937237278335  1.0000
  C   C17       1.0  0.6003345797978271  0.7818788653345227  0.9256884791520245  1.0000
  C   C18       1.0  0.6059515358945897  0.7594601124551883  0.9086560375980864  1.0000
  H   H9        1.0  0.6404880132233246  0.8072525208657051  0.8288615681927632  1.0000
  H   H10       1.0  0.6283069238286503  0.8456352324752517  0.8586752887129747  1.0000
  H   H11       1.0  0.5901960660668529  0.7752776070040891  0.9529998612596606  1.0000
  H   H12       1.0  0.5999690679480388  0.7357999498264914  0.9228777315328949  1.0000
  C   C19       1.0  0.6205308551473228  0.5779765997734846  0.9716516471478003  1.0000
  C   C20       1.0  0.6461097624579039  0.5843384215232041  0.998927430548769  1.0000
  C   C21       1.0  0.6415044962856276  0.552956548485541  0.011307250574391258  1.0000
  C   C22       1.0  0.6118108517924437  0.5149541449862098  0.9960254058320107  1.0000
  C   C23       1.0  0.5862013673686168  0.5085702703644234  0.9687614200756525  1.0000
  C   C24       1.0  0.5901917479874289  0.5397366885970589  0.95683230379405  1.0000
  H   H13       1.0  0.6696283715881033  0.6137692548470632  0.010650803804197107  1.0000
  H   H14       1.0  0.661237505342624  0.5583170770466379  0.03243975755126905  1.0000
  H   H15       1.0  0.5631192054875507  0.4792853219836536  0.9567479428101648  1.0000
  H   H16       1.0  0.5703119512938573  0.5343290935449766  0.9358147404251941  1.0000
  C   C25       1.0  0.3484615475650444  0.5632361052423913  0.9067343706267704  1.0000
  C   C26       1.0  0.3597770885372921  0.5817780849419102  0.9390334398890581  1.0000
  C   C27       1.0  0.3961840176782507  0.5948828470820999  0.9563476557344315  1.0000
  C   C28       1.0  0.42173480132410884  0.5901242453593262  0.9410904306807278  1.0000
  C   C29       1.0  0.41062261163065245  0.5720365596017056  0.9086226195258458  1.0000
  C   C30       1.0  0.37389589403340817  0.5583394476009621  0.891650432295117  1.0000
  H   H17       1.0  0.33985471085082775  0.5850534966464785  0.9510429467188468  1.0000
  H   H18       1.0  0.4044832604542205  0.6085665273829233  0.9815998915224645  1.0000
  H   H19       1.0  0.42974094929623313  0.567705375883619  0.89689711971974  1.0000
  H   H20       1.0  0.3651725522320743  0.5437922992083627  0.8668080289003756  1.0000
  C   C31       1.0  0.37344357862780125  0.7402567565067595  0.924974175769344  1.0000
  C   C32       1.0  0.3683021071560674  0.736202701216515  0.8887694905725195  1.0000
  C   C33       1.0  0.3990323056890032  0.7699508876934199  0.8661663013616513  1.0000
  C   C34       1.0  0.4348998389275554  0.8077704803190583  0.8797728789942181  1.0000
  C   C35       1.0  0.4390696766028427  0.8120142528533322  0.9159837750434892  1.0000
  C   C36       1.0  0.4085697789592173  0.7782983700279428  0.938548917015043  1.0000
  H   H21       1.0  0.3405583327367704  0.7072056542928533  0.8781416767460045  1.0000
  H   H22       1.0  0.3953259546499088  0.7666117511160806  0.8381871237605597  1.0000
  H   H23       1.0  0.4653630308109045  0.8414582758068896  0.9267033837815429  1.0000
  H   H24       1.0  0.41232201288716486  0.7817573499751503  0.966534045213566  1.0000
  C   C37       1.0  0.8894370211068081  0.35009547782284955  0.14103815218232535  1.0000
  C   C38       1.0  0.8542589220104768  0.34276566194275754  0.12852796530875543  1.0000
  C   C39       1.0  0.8128655450998803  0.3025836385769544  0.12602030127574965  1.0000
  C   C40       1.0  0.8069396425739909  0.2700720839456108  0.13622817486657368  1.0000
  C   C41       1.0  0.8421099423112801  0.27768503458099764  0.148868015009918  1.0000
  C   C42       1.0  0.8832157972732642  0.31748779460934085  0.15106820044155028  1.0000
  H   H25       1.0  0.8589279060323594  0.3680061475956737  0.12117282948550828  1.0000
  H   H26       1.0  0.7855018675333701  0.2967132653067957  0.11673166272009179  1.0000
  H   H27       1.0  0.837685741108678  0.2526585421832437  0.15667898255214174  1.0000
  H   H28       1.0  0.9103204249774158  0.32303110768519  0.16064735737582364  1.0000
  C   C43       1.0  0.8277531790629336  0.4724099754477851  0.07520289392058646  1.0000
  C   C44       1.0  0.7843225009126708  0.45276209900354075  0.07849011220269235  1.0000
  C   C45       1.0  0.773663582849628  0.4745676567119708  0.07415588111240784  1.0000
  C   C46       1.0  0.806311941394043  0.5161073562153228  0.06591893252190281  1.0000
  C   C47       1.0  0.8498079369990186  0.5357826642445247  0.06189756320628749  1.0000
  C   C48       1.0  0.8606387281512651  0.5140215376099493  0.06694387183154173  1.0000
  H   H29       1.0  0.7587647164164514  0.4205643938059562  0.08484740380050904  1.0000
  H   H30       1.0  0.7400363098550417  0.4590348000105507  0.07722707299701907  1.0000
  H   H31       1.0  0.8751752195810114  0.5679350163324107  0.05545206856884786  1.0000
  H   H32       1.0  0.8942153258744654  0.5292862597465724  0.06402840058624969  1.0000
  C   C49       1.0  0.07435515856735872  0.5466808982877494  0.01623789911506918  1.0000
  C   C50       1.0  0.0664612653680653  0.5145981849809943  0.03139503428454238  1.0000
  C   C51       1.0  0.08657676896068679  0.503556670468852  0.017008822284733105  1.0000
  C   C52       1.0  0.114596452015473  0.5244648164056666  0.9874341691943993  1.0000
  C   C53       1.0  0.1211386015787702  0.5555177069202457  0.9715663039294146  1.0000
  C   C54       1.0  0.10142543433213932  0.5668530313114999  0.9861416814218159  1.0000
  H   H33       1.0  0.04552209278056661  0.498800127112317  0.054563445513206243  1.0000
  H   H34       1.0  0.08113061776108421  0.4792994594902557  0.029289589573645136  1.0000
  H   H35       1.0  0.1417843037057276  0.5711611934053167  0.9483071484019134  1.0000
  H   H36       1.0  0.10721370643129888  0.5913931039626185  0.974114001708881  1.0000
  C   C55       1.0  0.013849599544126822  0.5172353253992381  0.2936048698745743  1.0000
  C   C56       1.0  0.9963502407174435  0.5328603716049026  0.299300150685157  1.0000
  C   C57       1.0  0.987132429350841  0.5447157991530739  0.27081458418641635  1.0000
  C   C58       1.0  0.9948589272434719  0.5405068464081784  0.23656181961461528  1.0000
  C   C59       1.0  0.012608032283052236  0.5251115381842739  0.2309506888251872  1.0000
  C   C60       1.0  0.02237210230505392  0.5137583200800329  0.2594032318299812  1.0000
  H   H37       1.0  0.9899643877782577  0.5359751773030803  0.32561843050603434  1.0000
  H   H38       1.0  0.973628756246887  0.5568081240344198  0.2753583622630241  1.0000
  H   H39       1.0  0.01926092711651639  0.5223080917730445  0.20469531374791675  1.0000
  H   H40       1.0  0.036302008591159826  0.5020814362014231  0.25482439267778506  1.0000
  C   C61       1.0  0.2767770185223555  0.5838095584185189  0.7186471458983638  1.0000
  C   C62       1.0  0.29799012218305276  0.5993701687814167  0.7504354340421444  1.0000
  C   C63       1.0  0.27966080828814033  0.6030656115919351  0.7780027956095966  1.0000
  C   C64       1.0  0.2399266949325067  0.5909570227117218  0.7739887312246964  1.0000
  C   C65       1.0  0.2187283427227577  0.5754424718984719  0.7421369761886467  1.0000
  C   C66       1.0  0.23704475981397946  0.571688393384095  0.7145064719410645  1.0000
  H   H41       1.0  0.3289444971438172  0.6091132233529231  0.7536235388378085  1.0000
  H   H42       1.0  0.29668268382965285  0.6158660253375569  0.8021439770417693  1.0000
  H   H43       1.0  0.18795763297442725  0.5660651564878109  0.7389092408186201  1.0000
  H   H44       1.0  0.22022866228516128  0.5591166169347124  0.6901216241908277  1.0000
  C   C67       1.0  0.15142549245603204  0.5412928298542028  0.5254301726919514  1.0000
  C   C68       1.0  0.17355742421980327  0.5818518272575706  0.5281995214039653  1.0000
  C   C69       1.0  0.1544256372743752  0.5946254919652092  0.5161816540276081  1.0000
  C   C70       1.0  0.11308253861024298  0.5669354903731155  0.501427727584404  1.0000
  C   C71       1.0  0.09069067098792773  0.5262732769575351  0.4991012713709996  1.0000
  C   C72       1.0  0.10990317948671396  0.5135296401111643  0.5109435991627052  1.0000
  H   H45       1.0  0.2054822410582343  0.6034283051782627  0.5395214899710756  1.0000
  H   H46       1.0  0.1718635612183439  0.6260944332110595  0.5182086969392765  1.0000
  H   H47       1.0  0.058380023838878935  0.5045076050002779  0.48857965750724924  1.0000
  H   H48       1.0  0.09247116151611576  0.4820367510599703  0.5091405572471136  1.0000
  C   C73       1.0  0.7271534056230908  0.5300448608994942  0.27680351376043405  1.0000
  C   C74       1.0  0.7421725317289746  0.5336473577409272  0.24278946405122603  1.0000
  C   C75       1.0  0.7164687724766027  0.5233728087186474  0.21397874740646064  1.0000
  C   C76       1.0  0.676227708474532  0.5104733230858459  0.21913996133083172  1.0000
  C   C77       1.0  0.6619702179774736  0.5081550068092616  0.2530404221042218  1.0000
  C   C78       1.0  0.6870855022616809  0.5174082927640506  0.28184492014948287  1.0000
  H   H49       1.0  0.7733530825865549  0.5437829644082901  0.2388163485132098  1.0000
  H   H50       1.0  0.7279540867709465  0.5258496403620436  0.18783086386338402  1.0000
  H   H51       1.0  0.6311356933404947  0.49870655884455395  0.2570947994270629  1.0000
  H   H52       1.0  0.6757955360134714  0.5154839126410894  0.3079147837433072  1.0000
  C   C79       1.0  0.8151580131907471  0.5042931945084078  0.45183253225329517  1.0000
  C   C80       1.0  0.8391185348654316  0.49769278962609814  0.46629763657709217  1.0000
  C   C81       1.0  0.8801090763663413  0.5174558845140543  0.4517746310172408  1.0000
  C   C82       1.0  0.8980236207163925  0.5451407921212428  0.4236425001471494  1.0000
  C   C83       1.0  0.874224956457541  0.5520458919258523  0.4094476043639417  1.0000
  C   C84       1.0  0.8324633206277591  0.5310685667336704  0.4230992414043172  1.0000
  H   H53       1.0  0.825705385794677  0.47689069467137674  0.4884692588512633  1.0000
  H   H54       1.0  0.8980322502028459  0.5117390228601677  0.4628190321299998  1.0000
  H   H55       1.0  0.8878387435484003  0.573285270775409  0.3875809215866647  1.0000
  H   H56       1.0  0.8139913174049614  0.5361332863190653  0.4116751357949984  1.0000
  C   C85       1.0  0.4090305885023198  0.6177231773631585  0.5419114188309313  1.0000
  C   C86       1.0  0.3814804192297748  0.5823484681923524  0.5629778208166847  1.0000
  C   C87       1.0  0.3945633609246579  0.5634046526752516  0.5727618320468476  1.0000
  C   C88       1.0  0.4355552776335978  0.580037710748583  0.5619793903524345  1.0000
  C   C89       1.0  0.4630428103360146  0.6152458136861167  0.5406618267941057  1.0000
  C   C90       1.0  0.44959952045370305  0.6338124841455964  0.5303578602731509  1.0000
  H   H57       1.0  0.3500769412428349  0.5694983490513801  0.5718180557241286  1.0000
  H   H58       1.0  0.3730614966060832  0.5360620044830172  0.5890833377892217  1.0000
  H   H59       1.0  0.49460565752411295  0.6281550089268934  0.531998259880373  1.0000
  H   H60       1.0  0.4711243916731914  0.6611569782451818  0.5140221712300671  1.0000
  C   C91       1.0  0.631114468071436  0.5804127899108841  0.4880429650492843  1.0000
  C   C92       1.0  0.6552184395150249  0.5851881781104499  0.459442574868808  1.0000
  C   C93       1.0  0.6485898720806136  0.552609091828074  0.4481949594896121  1.0000
  C   C94       1.0  0.6179364026383786  0.5147802126128642  0.465660943444877  1.0000
  C   C95       1.0  0.593573979021965  0.5098921536397706  0.49410278669654767  1.0000
  C   C96       1.0  0.6001612821332355  0.5424739250419254  0.5053167206558599  1.0000
  H   H61       1.0  0.6789857414389049  0.6142848238253388  0.4456969946694504  1.0000
  H   H62       1.0  0.6671625471188978  0.5568106811091279  0.4259510882125171  1.0000
  H   H63       1.0  0.5695150526105199  0.4807141206512417  0.5076427552556392  1.0000
  H   H64       1.0  0.5812072534886495  0.53823989456188  0.5272021469649291  1.0000
  C   C97       1.0  0.5737889589837374  0.5902766471187879  0.7128857333708934  1.0000
  C   C98       1.0  0.5839383488433683  0.5832420457477135  0.7443385652681976  1.0000
  C   C99       1.0  0.5598801930726044  0.5731879415293243  0.7751932941818934  1.0000
  C   C100      1.0  0.524901152007427  0.5692053338920963  0.7744740797704865  1.0000
  C   C101      1.0  0.5148596918309567  0.5764550650524933  0.7430969760831396  1.0000
  C   C102      1.0  0.5399054632900105  0.5879026470213519  0.7125320113352628  1.0000
  H   H65       1.0  0.6101311705335385  0.5850466562090908  0.7447813600901015  1.0000
  H   H66       1.0  0.5675855333536145  0.5674039031053386  0.7993591696920433  1.0000
  H   H67       1.0  0.48787887757829257  0.5735258115563117  0.742582568945921  1.0000
  H   H68       1.0  0.5323139244295729  0.59404486479563  0.688691789122715  1.0000
  C   C103      1.0  0.6928927383378244  0.9928524373222362  0.7036764636343904  1.0000
  C   C104      1.0  0.7237774861368371  0.03075899224208404  0.7189302888560541  1.0000
  C   C105      1.0  0.7222181673824052  0.03438529306668347  0.7550107957575657  1.0000
  C   C106      1.0  0.6902891924457898  6.703654526707403e-05  0.7764460796931331  1.0000
  C   C107      1.0  0.6598683026686523  0.961765845293073  0.7615014151103019  1.0000
  C   C108      1.0  0.6608111574202685  0.9581902058362448  0.7249891591506773  1.0000
  H   H69       1.0  0.748910368460685  0.05755788577787667  0.7027423412183499  1.0000
  H   H70       1.0  0.7460646412390654  0.0640011481562683  0.7663605084337451  1.0000
  H   H71       1.0  0.6360985325953614  0.935025600345828  0.7781143885456088  1.0000
  H   H72       1.0  0.6375746730363087  0.9286738410205766  0.7134355018541916  1.0000
  C   C109      1.0  0.4342233579501251  0.8261009874058721  0.6415810049003234  1.0000
  C   C110      1.0  0.3972778482680385  0.8189106301455671  0.6385468114716338  1.0000
  C   C111      1.0  0.3598311106279933  0.78339149914838  0.623312957267333  1.0000
  C   C112      1.0  0.3586366079396952  0.7542614828755834  0.6123303651866789  1.0000
  C   C113      1.0  0.3953604629451105  0.7611023880235905  0.6158429260931418  1.0000
  C   C114      1.0  0.43347200717175693  0.7973778343941514  0.6299744970421952  1.0000
  H   H73       1.0  0.3980144434321348  0.8413021087516992  0.647117869370807  1.0000
  H   H74       1.0  0.3315897709993742  0.7783334776379585  0.620314048020359  1.0000
  H   H75       1.0  0.39459908302479474  0.7387687906612518  0.6073567673259599  1.0000
  H   H76       1.0  0.46210737133044094  0.8029509335379755  0.6323072145770828  1.0000
  C   C115      1.0  0.5773340485369771  0.7905974936038832  0.57876224890572  1.0000
  C   C116      1.0  0.6137817031882938  0.8129588328755857  0.5998026537081141  1.0000
  C   C117      1.0  0.6341611681681734  0.7999183642562809  0.6054943281058108  1.0000
  C   C118      1.0  0.6181277401522501  0.7644056794727196  0.5903800971484088  1.0000
  C   C119      1.0  0.5818382780544541  0.7422173920008625  0.5691429707662875  1.0000
  C   C120      1.0  0.5615300305895595  0.7552936216099326  0.5633720974120785  1.0000
  H   H77       1.0  0.626196365937795  0.8401839252207901  0.6117836641694941  1.0000
  H   H78       1.0  0.662422409649462  0.8173598096190755  0.6217575167374622  1.0000
  H   H79       1.0  0.569559628811745  0.7150789369597353  0.55704635637502  1.0000
  H   H80       1.0  0.5334162024097195  0.7378936150958881  0.5469343820193207  1.0000
  C   C121      1.0  0.5738812549485565  0.10180918606010929  0.26622023876014944  1.0000
  C   C122      1.0  0.5616156532162384  0.0755085567477185  0.23946698619615198  1.0000
  C   C123      1.0  0.5548715761230415  0.08180665388067164  0.20574041524103026  1.0000
  C   C124      1.0  0.560120136040215  0.11438226842556892  0.19855083407184396  1.0000
  C   C125      1.0  0.5724015090265161  0.14085599770375284  0.22524325703734122  1.0000
  C   C126      1.0  0.5794407310706594  0.13466052347708843  0.2591060904619752  1.0000
  H   H81       1.0  0.5571067748744996  0.04999743091894329  0.24492316913771  1.0000
  H   H82       1.0  0.5449283455552834  0.061028378999176895  0.18540227204516294  1.0000
  H   H83       1.0  0.5758376198157158  0.16574308607888164  0.21984478837375118  1.0000
  H   H84       1.0  0.588391338193502  0.15480021975492533  0.2797485146297743  1.0000
  C   C127      1.0  0.6210075611475866  0.0739780609166545  0.4878552684447627  1.0000
  C   C128      1.0  0.6108572632997662  0.05732285185178405  0.5219737851221493  1.0000
  C   C129      1.0  0.6068682257480211  0.025243807452753352  0.5293578980922092  1.0000
  C   C130      1.0  0.6133374873977018  0.009701673125691005  0.5026530003042484  1.0000
  C   C131      1.0  0.6236471514660425  0.026468467161351577  0.4685980642575898  1.0000
  C   C132      1.0  0.6273204963381207  0.05833700460420799  0.46116512549012895  1.0000
  H   H85       1.0  0.6058914797998756  0.06920594218512019  0.5427882781544607  1.0000
  H   H86       1.0  0.5986803675411022  0.01252102798751542  0.5556405709074533  1.0000
  H   H87       1.0  0.6287406250384293  0.014682815309499388  0.44775963223421644  1.0000
  H   H88       1.0  0.6351132886280488  0.07082332379280687  0.4347995231341302  1.0000
  C   C133      1.0  0.8060246305132913  0.3012533712405935  0.3838066205894697  1.0000
  C   C134      1.0  0.7933223934614764  0.29153457132742516  0.4191482038836715  1.0000
  C   C135      1.0  0.8168554844987486  0.3218925133104443  0.4439623888606306  1.0000
  C   C136      1.0  0.8541024612310972  0.3619494630414549  0.4336349214631323  1.0000
  C   C137      1.0  0.8686684411448369  0.3713001306687304  0.39862511178232674  1.0000
  C   C138      1.0  0.8444003127475573  0.3410388434623698  0.37366249850432554  1.0000
  H   H89       1.0  0.7657574348926125  0.26052816602929324  0.4275366712516413  1.0000
  H   H90       1.0  0.8061688364181455  0.3142977200304064  0.47116918062025154  1.0000
  H   H91       1.0  0.8983391489284217  0.40180357646315185  0.39068619903692925  1.0000
  H   H92       1.0  0.8549835073533759  0.34862139458906877  0.3465494115257248  1.0000
  C   C139      1.0  0.6162029895764777  0.3197519932373446  0.3721827110008566  1.0000
  C   C140      1.0  0.6162791389296866  0.316834594115621  0.40858059278775766  1.0000
  C   C141      1.0  0.6128374828659655  0.2873272610863507  0.42424723037906314  1.0000
  C   C142      1.0  0.6109681341020969  0.2615445316307946  0.4036791815990577  1.0000
  C   C143      1.0  0.612603246251721  0.265468583835098  0.3672404825479814  1.0000
  C   C144      1.0  0.6144901172436397  0.29406021179084446  0.351572109005344  1.0000
  H   H93       1.0  0.617233106671871  0.3362556446276158  0.4246805686219592  1.0000
  H   H94       1.0  0.6114111426426408  0.28438179065843383  0.452443524740846  1.0000
  H   H95       1.0  0.6108588900491957  0.24555470984158795  0.3511521485715242  1.0000
  H   H96       1.0  0.6142047979004579  0.2960149146493959  0.3234040765039195  1.0000
  N   N1        1.0  0.4967922486421679  0.03071501436471835  0.0745430355659078  1.0000
  C   C145      1.0  0.5044969313528228  0.06552340599222584  0.06261885488812902  1.0000
  C   C146      1.0  0.4603987152085868  0.006084896609057644  0.10076937584310475  1.0000
  C   C147      1.0  0.5366026774464947  0.04570635888105046  0.0905793570084461  1.0000
  C   C148      1.0  0.48601686777765657  0.005881243802638103  0.04427738555868577  1.0000
  H   H97       1.0  0.5315385112496341  0.08459474840563219  0.04254484544400006  1.0000
  H   H98       1.0  0.5134210253417825  0.08532212918745041  0.0847509817926575  1.0000
  H   H99       1.0  0.4750204314769705  0.05546288054376669  0.0507114933943833  1.0000
  H   H100      1.0  0.45377917415967817  0.979642707393073  0.11056886331473237  1.0000
  H   H101      1.0  0.46805617102494607  0.02445022388064544  0.12382257099994476  1.0000
  H   H102      1.0  0.42976906963339995  0.9943609641081602  0.08968852733091559  1.0000
  H   H103      1.0  0.5320635911217981  0.020338661196632746  0.10000690872094609  1.0000
  H   H104      1.0  0.545851994950564  0.06484272582473594  0.11337506852545753  1.0000
  H   H105      1.0  0.564687993597536  0.06432878146189136  0.07143009687579904  1.0000
  H   H106      1.0  0.4562339972258161  0.9941438720245592  0.03134073616576871  1.0000
  H   H107      1.0  0.48032762735344403  0.9794784414071058  0.05221407910175091  1.0000
  H   H108      1.0  0.5132343573534089  0.02404984292703216  0.024203196081663547  1.0000
  N   N2        1.0  0.5317965887764653  0.5754645127038241  0.033383525583192936  1.0000
  C   C149      1.0  0.5638603737948104  0.5782828749481033  0.051051533785434845  1.0000
  C   C150      1.0  0.49653257596650446  0.5603229143282048  0.05848872267370231  1.0000
  C   C151      1.0  0.5128901280824762  0.5472415003273725  0.00421236454516416  1.0000
  C   C152      1.0  0.5538841512468822  0.6160497127284222  0.019618461958926088  1.0000
  H   H109      1.0  0.548715332052948  0.5480598742633274  0.060999581891225375  1.0000
  H   H110      1.0  0.5784353905671655  0.5989081163495227  0.07351908948533999  1.0000
  H   H111      1.0  0.5912552686830608  0.5904141175006086  0.03279202679604704  1.0000
  H   H112      1.0  0.4720689325926193  0.5582086745524313  0.04578747952359476  1.0000
  H   H113      1.0  0.4789428396479974  0.5295999688699026  0.06921796079515032  1.0000
  H   H114      1.0  0.509614951728538  0.5808378896998359  0.0809180433036978  1.0000
  H   H115      1.0  0.48838551786138173  0.5442646190950936  0.9903914903030665  1.0000
  H   H116      1.0  0.49644920616227467  0.5164059003273704  0.01347801669247515  1.0000
  H   H117      1.0  0.5385738689743182  0.5579804905760952  0.984592823975891  1.0000
  H   H118      1.0  0.5309562065015246  0.6149499258762438  0.005236059241369827  1.0000
  H   H119      1.0  0.5813267291028832  0.6287241794413211  0.0011856640041354447  1.0000
  H   H120      1.0  0.5678418835262034  0.6380319239415656  0.04090558874990467  1.0000
  N   N3        1.0  0.2447912546249846  0.4883422870282919  0.7919211261846691  1.0000
  C   C153      1.0  0.2008629666449661  0.4465148087123889  0.7900563584889586  1.0000
  C   C154      1.0  0.24141231098397303  0.5136234318984404  0.8102266458022552  1.0000
  C   C155      1.0  0.2631160569026196  0.5052220552492975  0.7561688824564746  1.0000
  C   C156      1.0  0.2736774456168343  0.48801031658118776  0.8113807324578357  1.0000
  H   H121      1.0  0.20206514104029275  0.42647447651441955  0.7764291331325328  1.0000
  H   H122      1.0  0.17828877044760155  0.4458588589045434  0.7756566283168523  1.0000
  H   H123      1.0  0.1861323174302788  0.43299823761387096  0.8166750401701492  1.0000
  H   H124      1.0  0.22054790733393698  0.5153847898725117  0.7961322995229494  1.0000
  H   H125      1.0  0.22718589059183608  0.5013244909819493  0.8371225401644096  1.0000
  H   H126      1.0  0.27408630942849954  0.5451545856894873  0.8130721315465472  1.0000
  H   H127      1.0  0.29631915820858984  0.5367447518275319  0.7566102246847839  1.0000
  H   H128      1.0  0.24237146742209162  0.5063324482405969  0.7408417687341369  1.0000
  H   H129      1.0  0.2658865563782094  0.4868030494502444  0.7414213243170679  1.0000
  H   H130      1.0  0.26083884600703594  0.47557129260372044  0.8385670863414311  1.0000
  H   H131      1.0  0.3069055643023473  0.5192762856715138  0.8138045069000297  1.0000
  H   H132      1.0  0.2773412579686998  0.46944450456862946  0.7983849590329983  1.0000
  N   N4        1.0  0.6441924542865399  0.7112195927062148  0.7571965765090646  1.0000
  C   C157      1.0  0.6484919504223251  0.6981034226637903  0.7241450086948632  1.0000
  C   C158      1.0  0.6018979291781444  0.6763442217948341  0.7748152561644764  1.0000
  C   C159      1.0  0.6462618475296338  0.7435659381938494  0.7496512823638054  1.0000
  C   C160      1.0  0.6800797387854808  0.7268177516632397  0.7803465776984062  1.0000
  H   H133      1.0  0.6478338853194416  0.6741902733577767  0.7289689559870701  1.0000
  H   H134      1.0  0.6796737347513301  0.72379647247883  0.7097439499141132  1.0000
  H   H135      1.0  0.6214250188811137  0.6852826338870677  0.7062696145372523  1.0000
  H   H136      1.0  0.600080159617462  0.6521965723846508  0.7822531714558933  1.0000
  H   H137      1.0  0.5968524759152919  0.6853226039742502  0.7992808468333238  1.0000
  H   H138      1.0  0.5739698782594564  0.662706270683751  0.7577962651579516  1.0000
  H   H139      1.0  0.6196264371336282  0.7328178386677534  0.7322676901509072  1.0000
  H   H140      1.0  0.6778472842990055  0.7704874174146051  0.7364720748015356  1.0000
  H   H141      1.0  0.643080068703174  0.754044189071409  0.7741709353330272  1.0000
  H   H142      1.0  0.6777843455250029  0.7369954111122633  0.8055208637165675  1.0000
  H   H143      1.0  0.7125660405391965  0.7531763527482936  0.7679658669696887  1.0000
  H   H144      1.0  0.6792111029669486  0.7030399551025458  0.7869059146742389  1.0000
  N   N5        1.0  0.9062591101741325  0.38915240075729796  0.2544489977813979  1.0000
  C   C161      1.0  0.8605863913591272  0.3648666501677143  0.2656902320210244  1.0000
  C   C162      1.0  0.9345975352578257  0.408896252919621  0.28501089143398595  1.0000
  C   C163      1.0  0.9208299336342805  0.42044068670679  0.22825888894248614  1.0000
  C   C164      1.0  0.908967241862425  0.362354727068862  0.23865971253302226  1.0000
  H   H145      1.0  0.8386122353898111  0.35065025168011726  0.24301876330356073  1.0000
  H   H146      1.0  0.8576569135061545  0.38400518908326  0.2786761912632167  1.0000
  H   H147      1.0  0.8479547636107709  0.3399814222146512  0.2845346638377122  1.0000
  H   H148      1.0  0.933784424766307  0.4297736110868637  0.2973276465328207  1.0000
  H   H149      1.0  0.9244329267426376  0.38628572192884625  0.3054915262301631  1.0000
  H   H150      1.0  0.9692917445261593  0.427346168209199  0.27747775354961174  1.0000
  H   H151      1.0  0.899853013594124  0.40649584849662296  0.2050019128072086  1.0000
  H   H152      1.0  0.954786674439678  0.4386360829115417  0.2184352374569453  1.0000
  H   H153      1.0  0.920261840661243  0.4419648141411481  0.2392325137253159  1.0000
  H   H154      1.0  0.8867888718277275  0.34602379814918605  0.21628594113083152  1.0000
  H   H155      1.0  0.8998741374610862  0.33924266331549624  0.25791670505547803  1.0000
  H   H156      1.0  0.9425707858181345  0.3800005131627159  0.2282018973022473  1.0000
  N   N6        1.0  0.4697141580148031  0.6722990673707874  0.6426596363526782  1.0000
  C   C165      1.0  0.42290420532172396  0.6437060474647853  0.6346743825792247  1.0000
  C   C166      1.0  0.47418924458025963  0.6655132227605582  0.6792317550619539  1.0000
  C   C167      1.0  0.4907899262804501  0.7144037511730855  0.6376006745262762  1.0000
  C   C168      1.0  0.4910597679220703  0.6655973170846149  0.6190180662566045  1.0000
  H   H157      1.0  0.41847637827422324  0.6491621667251847  0.6076792130797005  1.0000
  H   H158      1.0  0.40521453711935007  0.6466514051921154  0.652901052908648  1.0000
  H   H159      1.0  0.4062593448478464  0.6116086758381839  0.6365341210745743  1.0000
  H   H160      1.0  0.509179934354672  0.686790463479405  0.6860540189990844  1.0000
  H   H161      1.0  0.45821365887510185  0.6700577564044671  0.6978435827642127  1.0000
  H   H162      1.0  0.4588289864863685  0.6340437528105198  0.6836422735957012  1.0000
  H   H163      1.0  0.5264703899951553  0.7369037381098803  0.6423766599113121  1.0000
  H   H164      1.0  0.4761247403843968  0.7209521681241654  0.6553392566189281  1.0000
  H   H165      1.0  0.4873232543243535  0.7202012716306178  0.6103107805833357  1.0000
  H   H166      1.0  0.5261871642840935  0.6858444737780842  0.6248745282682369  1.0000
  H   H167      1.0  0.4896630419125002  0.6719241861034129  0.5913338922578788  1.0000
  H   H168      1.0  0.4751174390957612  0.6337346428785693  0.6209292090175683  1.0000
  N   N7        1.0  0.22993561296865198  0.6299251221484494  0.035263217915171556  1.0000
  C   C169      1.0  0.24522975971766714  0.6662333542324291  0.05213302934265428  1.0000
  C   C170      1.0  0.2632678860597922  0.6292905963310657  0.038196374878641345  1.0000
  C   C171      1.0  0.22262617780648283  0.6311790466351226  0.997975546455497  1.0000
  C   C172      1.0  0.18856354201330205  0.5929307961051381  0.05241782501815302  1.0000
  H   H169      1.0  0.2761763797671964  0.694593537618822  0.03941651203968282  1.0000
  H   H170      1.0  0.25134167189660195  0.6664828034149337  0.08032462010187935  1.0000
  H   H171      1.0  0.2205699113076998  0.6673492169375785  0.050304184422263594  1.0000
  H   H172      1.0  0.25237502760108876  0.6020394618698334  0.025754660845430304  1.0000
  H   H173      1.0  0.29464272923868545  0.6564245299307995  0.024824182340418707  1.0000
  H   H174      1.0  0.27004050685104014  0.6286726465436865  0.06596923320086225  1.0000
  H   H175      1.0  0.2106937920157629  0.6039477631561793  0.9847070699916566  1.0000
  H   H176      1.0  0.25316317801402416  0.658396482979544  0.9839468391607158  1.0000
  H   H177      1.0  0.19788960378599502  0.6319634900975905  0.9945586078508246  1.0000
  H   H178      1.0  0.1621110922726792  0.5915849089335504  0.04945346672077162  1.0000
  H   H179      1.0  0.1923346838380183  0.5913337006013168  0.08084234615087393  1.0000
  H   H180      1.0  0.17678855448278885  0.5649918129564073  0.04075219530815332  1.0000
  N   N8        1.0  0.7192279290520125  0.5436695769765942  0.5215019242130919  1.0000
  C   C173      1.0  0.7263635439246544  0.5663233078999745  0.4898530301779089  1.0000
  C   C174      1.0  0.720497289471533  0.5140818287762984  0.5117143468733772  1.0000
  C   C175      1.0  0.6761335903156565  0.521889334715897  0.5378155377988866  1.0000
  C   C176      1.0  0.7538908246376748  0.5724293916291988  0.5464695985280857  1.0000
  H   H181      1.0  0.7236501642343867  0.5877011421842095  0.4957370502301043  1.0000
  H   H182      1.0  0.7016794587677124  0.5452879493516776  0.4700782847025778  1.0000
  H   H183      1.0  0.758995583058256  0.5840364958741042  0.4772468464331826  1.0000
  H   H184      1.0  0.694215225565262  0.49157942272056965  0.49325221390508195  1.0000
  H   H185      1.0  0.7521398217151058  0.529250243876287  0.49851633068223755  1.0000
  H   H186      1.0  0.7159091631684887  0.496692753057017  0.5348703105494582  1.0000
  H   H187      1.0  0.6703451132445916  0.5058482866735697  0.5625896097418971  1.0000
  H   H188      1.0  0.649180525314075  0.4985731756658626  0.5202366782366656  1.0000
  H   H189      1.0  0.6728835675976426  0.5429125649031253  0.543557173773959  1.0000
  H   H190      1.0  0.7495560652686059  0.5564230130902165  0.570730463484926  1.0000
  H   H191      1.0  0.7537533184484214  0.5952013983879543  0.554119813912412  1.0000
  H   H192      1.0  0.7867829206720992  0.5892709391551856  0.5348909451593841  1.0000
  N   N9        1.0  0.8078155783703946  0.35376367140480236  0.025970188298062524  1.0000
  C   C177      1.0  0.8320645591553906  0.3427280048345446  0.030054390770015038  1.0000
  C   C178      1.0  0.8378129922305488  0.3962392526298112  0.012921546232795178  1.0000
  C   C179      1.0  0.7885170204748674  0.3492531008620931  0.060225713875793785  1.0000
  C   C180      1.0  0.7727724822032892  0.32689643813239655  0.0006954217762422665  1.0000
  H   H193      1.0  0.8589006133074117  0.362704068173719  0.048874213842699854  1.0000
  H   H194      1.0  0.8470315416059406  0.3455886736808637  0.004765453512274309  1.0000
  H   H195      1.0  0.8102312756468542  0.31090181655270793  0.04021515109192286  1.0000
  H   H196      1.0  0.8204913231466515  0.4056003196574863  0.010272449181101484  1.0000
  H   H197      1.0  0.8645637380611791  0.41747144615680126  0.031284967570455846  1.0000
  H   H198      1.0  0.8529527502356112  0.40090023443302614  0.9870694094377812  1.0000
  H   H199      1.0  0.8138385423330833  0.36805796322871165  0.08025412458563852  1.0000
  H   H200      1.0  0.764044320178147  0.31721052468977023  0.07011504178690742  1.0000
  H   H201      1.0  0.7714734350199788  0.35897196361136563  0.05857839347929428  1.0000
  H   H202      1.0  0.754087661683399  0.33473660554642226  0.997075454393792  1.0000
  H   H203      1.0  0.748759327085164  0.2946250952174936  0.009921799775226336  1.0000
  H   H204      1.0  0.7860052330276215  0.32909577378888744  0.9746575187754566  1.0000
  N   N10       1.0  0.8650227165611701  0.5318666637975903  0.1783429637875256  1.0000
  C   C181      1.0  0.8564883905380359  0.5481115186641761  0.15125977176651226  1.0000
  C   C182      1.0  0.9081165213509641  0.5655866640811725  0.19346192115524857  1.0000
  C   C183      1.0  0.8648750807241494  0.5031734482370148  0.1624545165194788  1.0000
  C   C184      1.0  0.8306053254216947  0.5105713404244968  0.20616520585782128  1.0000
  H   H205      1.0  0.8244798359177103  0.5233561782123034  0.1389415712218786  1.0000
  H   H206      1.0  0.8820983892581251  0.5648020929656634  0.13002712228246452  1.0000
  H   H207      1.0  0.8556948050250598  0.5694478870990216  0.16230041762151767  1.0000
  H   H208      1.0  0.9151723280414757  0.5544794454552274  0.21457790960294476  1.0000
  H   H209      1.0  0.93502547370459  0.5814119235090142  0.17339044798845704  1.0000
  H   H210      1.0  0.9100004363036557  0.5884963961800854  0.2048884123845619  1.0000
  H   H211      1.0  0.8726191166530353  0.4913055808425824  0.18188780802552065  1.0000
  H   H212      1.0  0.8896759186457381  0.5180001362075338  0.1407088585094339  1.0000
  H   H213      1.0  0.8326065742626718  0.4767850528287901  0.1513513177781381  1.0000
  H   H214      1.0  0.8358642183055109  0.4977111938072879  0.22697691375582432  1.0000
  H   H215      1.0  0.7976513421826062  0.4851230269494385  0.19549952388446937  1.0000
  H   H216      1.0  0.8299739469858463  0.5314389836077248  0.21884503715907325  1.0000
  N   N11       1.0  0.7338602798410355  0.5389203772228383  0.9635790400667857  1.0000
  C   C185      1.0  0.7584289632343885  0.570754074837503  0.9356006951543776  1.0000
  C   C186      1.0  0.729320933117326  0.5541999774882005  0.9946191464217702  1.0000
  C   C187      1.0  0.757658634524662  0.5282789079695155  0.9728818742455232  1.0000
  C   C188      1.0  0.6899504557082892  0.5025374936854974  0.9513675391846201  1.0000
  H   H217      1.0  0.7411730290866703  0.5793177640884539  0.9279802968335283  1.0000
  H   H218      1.0  0.7626890398649423  0.5603695124567415  0.9117725042148033  1.0000
  H   H219      1.0  0.791499154792397  0.5987283780897741  0.9442519350860668  1.0000
  H   H220      1.0  0.713097675006856  0.5640948676376162  0.9883434163160152  1.0000
  H   H221      1.0  0.70881271751602  0.5300656778556602  0.0152452611566114  1.0000
  H   H222      1.0  0.7614874945583646  0.5801322776461124  0.006112714402228603  1.0000
  H   H223      1.0  0.7402461931444717  0.5045980990252551  0.9941705577963603  1.0000
  H   H224      1.0  0.7907298730482067  0.5549296769897536  0.9826800533792707  1.0000
  H   H225      1.0  0.7616418594121769  0.5164616076945949  0.950186483338992  1.0000
  H   H226      1.0  0.6706513856400116  0.47777162586668065  0.9718277775502429  1.0000
  H   H227      1.0  0.6917708491962895  0.49031649451732867  0.9276259592616075  1.0000
  H   H228      1.0  0.6706055893701204  0.5092501037215114  0.9452332876662684  1.0000
  N   N12       1.0  0.7336432233405479  0.06287323506408399  0.556512041202866  1.0000
  C   C189      1.0  0.775055908987606  0.09419687852102344  0.574707139538744  1.0000
  C   C190      1.0  0.6970142688376602  0.04882156314767941  0.579034241680519  1.0000
  C   C191      1.0  0.727541165605556  0.028236347470603357  0.5492152592847057  1.0000
  C   C192      1.0  0.7347117784829946  0.07997450203408338  0.5232323972626269  1.0000
  H   H229      1.0  0.7748834134005576  0.0818993915350281  0.5999512964471078  1.0000
  H   H230      1.0  0.7806201010309172  0.12073400990107316  0.5807222509392629  1.0000
  H   H231      1.0  0.8034870531483459  0.10542352892034998  0.5585744623176818  1.0000
  H   H232      1.0  0.6652876903792281  0.024732023360826274  0.5662809832237128  1.0000
  H   H233      1.0  0.6953771316892395  0.035946474022917355  0.6044970356838354  1.0000
  H   H234      1.0  0.6999597640740143  0.07389672582288191  0.5846710178217981  1.0000
  H   H235      1.0  0.7254886218665922  0.013939826342679677  0.5738665854421428  1.0000
  H   H236      1.0  0.7549139490432889  0.037707536928602334  0.5327732882878117  1.0000
  H   H237      1.0  0.6968917275205823  0.004351089347536242  0.5349101387622848  1.0000
  H   H238      1.0  0.704004195948458  0.05667579030136993  0.5087799653266316  1.0000
  H   H239      1.0  0.762199294160247  0.09126447757521279  0.5056473681688747  1.0000
  H   H240      1.0  0.7381890956182965  0.10557422787881694  0.5276858154941887  1.0000
  N   N13       1.0  0.5399333003223047  0.921580236509531  0.7553867646966199  1.0000
  C   C193      1.0  0.5616985090326121  0.9422219214514947  0.7883809824096214  1.0000
  C   C194      1.0  0.5670843965260246  0.950375440738974  0.7255370918815827  1.0000
  C   C195      1.0  0.4966956960438519  0.9070394826070018  0.7555217959991889  1.0000
  C   C196      1.0  0.5340268180587142  0.8865240248972823  0.7522494253247364  1.0000
  H   H241      1.0  0.5418871642671967  0.9213975631034687  0.8113750427528159  1.0000
  H   H242      1.0  0.5668278991926259  0.9689055616842489  0.7915880808505062  1.0000
  H   H243      1.0  0.5942196539584528  0.9532494988921866  0.7895664919395712  1.0000
  H   H244      1.0  0.552163041277856  0.935624528340492  0.7001435376414687  1.0000
  H   H245      1.0  0.5713629690593035  0.976722173649055  0.7266663995326258  1.0000
  H   H246      1.0  0.6002054228371567  0.962502184929926  0.7250963738264056  1.0000
  H   H247      1.0  0.47934686565777757  0.8913277714511918  0.7309390590342666  1.0000
  H   H248      1.0  0.4996738663340845  0.9325362316058203  0.7579735101597347  1.0000
  H   H249      1.0  0.47551159555291705  0.8851622383909559  0.7777996258938066  1.0000
  H   H250      1.0  0.5142536577933363  0.8645752936027534  0.7747626242949671  1.0000
  H   H251      1.0  0.5658743470414785  0.8962120428021956  0.7515666253941017  1.0000
  H   H252      1.0  0.517099985351668  0.8699839536158697  0.7277899936937142  1.0000
  N   N14       1.0  0.7378994625483004  0.07910207929519952  0.9185130664879391  1.0000
  C   C197      1.0  0.6941916922985676  0.05889797220441399  0.9069917883811017  1.0000
  C   C198      1.0  0.7567836774579678  0.07059603091713944  0.8937820025229535  1.0000
  C   C199      1.0  0.7340248804077326  0.06354202712157306  0.9538738453815633  1.0000
  C   C200      1.0  0.7664244533764915  0.12331924960000756  0.919408216034433  1.0000
  H   H253      1.0  0.6794704310256465  0.06569198556884417  0.9243558141066929  1.0000
  H   H254      1.0  0.6714402253468112  0.025458306936803152  0.9076660518712256  1.0000
  H   H255      1.0  0.6953190533716908  0.06823191510480989  0.8797353303887934  1.0000
  H   H256      1.0  0.7897432397422768  0.08520578444844132  0.9015972327000203  1.0000
  H   H257      1.0  0.7358415842200942  0.03743604738886755  0.8922997326299333  1.0000
  H   H258      1.0  0.7597139325457337  0.08149447381601307  0.8667153020089519  1.0000
  H   H259      1.0  0.7663658824830848  0.07843338507052883  0.9637751461410795  1.0000
  H   H260      1.0  0.7129691195125982  0.03024983247792777  0.9541007621487108  1.0000
  H   H261      1.0  0.7187259008855518  0.0684416915846942  0.973010632011699  1.0000
  H   H262      1.0  0.7997773418636495  0.1396139253770471  0.9278990826394456  1.0000
  H   H263      1.0  0.7530078551078807  0.13061471552090695  0.9379648671005414  1.0000
  H   H264      1.0  0.7697085601769251  0.1359190030571184  0.8931688640656889  1.0000
  N   N15       1.0  0.13075737827807007  0.5401269027940384  0.39507033376074735  1.0000
  C   C201      1.0  0.09277688303953885  0.49675735468525256  0.40443134779655754  1.0000
  C   C202      1.0  0.14476664334963532  0.5440835149623939  0.35843216673315736  1.0000
  C   C203      1.0  0.16693190139495204  0.5573786347279194  0.4186181252206147  1.0000
  C   C204      1.0  0.11833315577680865  0.5622208304394831  0.39872596171362185  1.0000
  H   H265      1.0  0.06468775884719803  0.48293668950544455  0.38739695531588597  1.0000
  H   H266      1.0  0.08150825765410849  0.4925878171122045  0.4320149341206211  1.0000
  H   H267      1.0  0.10083620252004134  0.4790488136258521  0.40174004112562306  1.0000
  H   H268      1.0  0.17315403025016046  0.5764429113262812  0.3503512446940039  1.0000
  H   H269      1.0  0.15441521538283937  0.5277891425762  0.35461392303329475  1.0000
  H   H270      1.0  0.1179323630113196  0.531225890439725  0.3401549488676658  1.0000
  H   H271      1.0  0.19637067753053997  0.589940663360667  0.4120695590324  1.0000
  H   H272      1.0  0.17654198011667496  0.5408499892190335  0.4172744717045046  1.0000
  H   H273      1.0  0.15757124496458627  0.5555680468758677  0.4463847337544829  1.0000
  H   H274      1.0  0.14639508872233253  0.5952385625642521  0.39275514855451504  1.0000
  H   H275      1.0  0.10645490838781357  0.5589862665815384  0.4257766734713529  1.0000
  H   H276      1.0  0.09175895650973685  0.5505771531581374  0.38077239115274797  1.0000
  N   N16       1.0  0.4651803263091754  0.722119557754543  0.9245737184815784  1.0000
  C   C205      1.0  0.41730266956219975  0.6915388548142212  0.9303119997600009  1.0000
  C   C206      1.0  0.4773067736910947  0.7036129052722059  0.9060995785190665  1.0000
  C   C207      1.0  0.4865140773967937  0.7366681711710192  0.9587071494106499  1.0000
  C   C208      1.0  0.479549928935017  0.7566662024283769  0.9033604042586162  1.0000
  H   H277      1.0  0.4053152837672581  0.6650680710741996  0.946223066398589  1.0000
  H   H278      1.0  0.39994367808085485  0.6799386396390572  0.9051750338438862  1.0000
  H   H279      1.0  0.4072110937628032  0.7045360455363286  0.9443885938424537  1.0000
  H   H280      1.0  0.46099733915224106  0.691405080004669  0.8805955881383698  1.0000
  H   H281      1.0  0.5132032438125379  0.7261227190751892  0.9007906433620069  1.0000
  H   H282      1.0  0.46787152465241116  0.6780403055735416  0.9217962001090743  1.0000
  H   H283      1.0  0.4783185421351216  0.7510432323459579  0.9732990107521692  1.0000
  H   H284      1.0  0.5226681473947064  0.7598818468729645  0.9553746613854823  1.0000
  H   H285      1.0  0.47658700952493305  0.7114586756186287  0.9753779749254045  1.0000
  H   H286      1.0  0.4634480897432803  0.7467805676987225  0.8776918187111511  1.0000
  H   H287      1.0  0.5155123442723902  0.780142637889867  0.8981605912246361  1.0000
  H   H288      1.0  0.4716979670590877  0.7718253074316097  0.9169241281312823  1.0000
  N   N17       1.0  0.4669610091069527  0.4811954639700968  0.6555929845684293  1.0000
  C   C209      1.0  0.4811094331407347  0.48397612918682414  0.6914291627750414  1.0000
  C   C210      1.0  0.4745412520779976  0.5167243352802583  0.6475581233636543  1.0000
  C   C211      1.0  0.4199397797844797  0.4437892868940352  0.6528984331932283  1.0000
  C   C212      1.0  0.4923922684800742  0.4805021841640245  0.6303482676782359  1.0000
  H   H289      1.0  0.5169123518181864  0.510843459147612  0.6937051981756966  1.0000
  H   H290      1.0  0.4740809340569676  0.4567838629903445  0.6990123535955138  1.0000
  H   H291      1.0  0.4646274312927128  0.48707384043668134  0.7111125824564174  1.0000
  H   H292      1.0  0.4636663801704019  0.5153542305307468  0.6208746030494865  1.0000
  H   H293      1.0  0.45672396842380414  0.5189878273647025  0.6663812046820875  1.0000
  H   H294      1.0  0.5098007845176753  0.5453384030780126  0.6485193870850785  1.0000
  H   H295      1.0  0.40830811015952245  0.44118590395571355  0.6261968819109072  1.0000
  H   H296      1.0  0.3999831995565398  0.44343065048111435  0.6717532078931571  1.0000
  H   H297      1.0  0.4129177175977252  0.4162152202897716  0.6584008276392814  1.0000
  H   H298      1.0  0.48722440812117684  0.45388627756829225  0.6352932058334866  1.0000
  H   H299      1.0  0.5281212047023139  0.5083270361220013  0.632000895920047  1.0000
  H   H300      1.0  0.48319158677766194  0.47922413196309505  0.6029295865868914  1.0000
  N   N18       1.0  0.6086634800022814  0.3873106685450224  0.24190850318770338  1.0000
  C   C213      1.0  0.5856575497185854  0.34515469400119747  0.2507579743608428  1.0000
  C   C214      1.0  0.5801275720079468  0.3928946863942445  0.2508932202867251  1.0000
  C   C215      1.0  0.6198718188429811  0.39573237716312154  0.20403935274644888  1.0000
  C   C216      1.0  0.6489944445920902  0.4155546842797396  0.2620756705456981  1.0000
  H   H301      1.0  0.6062942099527371  0.33993576027897426  0.2442171730778501  1.0000
  H   H302      1.0  0.5549185888107048  0.32291852949868644  0.2361664246959203  1.0000
  H   H303      1.0  0.5771060111760999  0.33804893736224917  0.2792668417664069  1.0000
  H   H304      1.0  0.5490266051410615  0.3715918033353879  0.2366294678452886  1.0000
  H   H305      1.0  0.5719581962241698  0.38790445936319307  0.27944017351933115  1.0000
  H   H306      1.0  0.5961947949906976  0.4241614823991153  0.2437479111494292  1.0000
  H   H307      1.0  0.6369125812954544  0.4272463492946619  0.1965544490369689  1.0000
  H   H308      1.0  0.590229455016499  0.3748799602634473  0.18793191956190677  1.0000
  H   H309      1.0  0.6415549183042716  0.3920718859292561  0.1960643483895029  1.0000
  H   H310      1.0  0.6672357698078493  0.447591370233185  0.2559794986634688  1.0000
  H   H311      1.0  0.6712551968010131  0.4120918541221065  0.256238511636696  1.0000
  H   H312      1.0  0.641682173907303  0.41034403352280946  0.2907925674889242  1.0000
  N   N19       1.0  0.03408684005660942  0.6381082105710151  0.4909348062712958  1.0000
  C   C217      1.0  0.9863692822960474  0.6114395979044945  0.4930330620382311  1.0000
  C   C218      1.0  0.04589117887252788  0.622815799559006  0.5156130006908618  1.0000
  C   C219      1.0  0.057077425903261834  0.6798034204362353  0.4998818058883195  1.0000
  C   C220      1.0  0.04703082439546522  0.6383520123226567  0.4550051979086125  1.0000
  H   H313      1.0  0.9761572482987217  0.6214009011890677  0.47395651009720774  1.0000
  H   H314      1.0  0.9752227648821024  0.6107533984699461  0.5196087230358567  1.0000
  H   H315      1.0  0.9680702160463643  0.5796890009859892  0.4866366168891837  1.0000
  H   H316      1.0  0.036881165886290646  0.6223243372136288  0.5430870759395667  1.0000
  H   H317      1.0  0.029082175444550832  0.5913753851228367  0.5096069428247312  1.0000
  H   H318      1.0  0.0815701096298607  0.6417062734113043  0.5141924364906938  1.0000
  H   H319      1.0  0.09315543874664745  0.7006823319987318  0.4983550900555507  1.0000
  H   H320      1.0  0.04809698558398445  0.6807870580894834  0.5268681206490781  1.0000
  H   H321      1.0  0.048827702130601  0.692126971214954  0.4816349790602461  1.0000
  H   H322      1.0  0.08263654178495305  0.657336402288735  0.45237259561048737  1.0000
  H   H323      1.0  0.03871029249664577  0.6497000563090355  0.43550019853092636  1.0000
  H   H324      1.0  0.029529355586100953  0.6072386579934052  0.4474326433191753  1.0000
  N   N20       1.0  0.29546339080173223  0.6981307073252426  0.7108898325127502  1.0000
  C   C221      1.0  0.27130594516751333  0.7038828604425234  0.6908510913205133  1.0000
  C   C222      1.0  0.295092367821969  0.670581228987849  0.6920034659253848  1.0000
  C   C223      1.0  0.2742794117805512  0.6803093094004519  0.7458357881148316  1.0000
  C   C224      1.0  0.34110136014419  0.7376513938614274  0.7148263534687178  1.0000
  H   H325      1.0  0.271469537768036  0.7250655729156821  0.7038894429245953  1.0000
  H   H326      1.0  0.23664183623397142  0.6745744433732869  0.6877466754576985  1.0000
  H   H327      1.0  0.28577097322836836  0.7164072821608711  0.6640633396237002  1.0000
  H   H328      1.0  0.3118167638952677  0.6644186771328348  0.706770475428143  1.0000
  H   H329      1.0  0.26113129072748403  0.6409433101792322  0.687558740173627  1.0000
  H   H330      1.0  0.3117616263126877  0.6835583268369391  0.665844125420773  1.0000
  H   H331      1.0  0.2914896880985244  0.6753909216306759  0.7617744982317037  1.0000
  H   H332      1.0  0.2398015813043193  0.6502976233016801  0.7439638703829715  1.0000
  H   H333      1.0  0.2738122511977299  0.700169422218185  0.760862171281666  1.0000
  H   H334      1.0  0.3427153045871082  0.7595445329676561  0.7283722161066835  1.0000
  H   H335      1.0  0.35828223368468914  0.751603441964391  0.6889832017198082  1.0000
  H   H336      1.0  0.359947521470564  0.734272938928483  0.730210695641653  1.0000
  N   N21       1.0  0.5444689005865206  0.13083021508731535  0.5016870030712351  1.0000
  C   C225      1.0  0.5229695356623227  0.1348464882191289  0.47546306584412207  1.0000
  C   C226      1.0  0.531940416999513  0.1322215442688847  0.5371833949121495  1.0000
  C   C227      1.0  0.5923470296090587  0.16459488732617233  0.4965855163953505  1.0000
  C   C228      1.0  0.5307963909856397  0.09180089953475903  0.49753317592961976  1.0000
  H   H337      1.0  0.5321570811258874  0.1344207843980227  0.44834128561577724  1.0000
  H   H338      1.0  0.5329103893244824  0.16417638240794466  0.47764407258424896  1.0000
  H   H339      1.0  0.48678176818946844  0.1098495143850008  0.4782796808098912  1.0000
  H   H340      1.0  0.5477528206086718  0.1293488517788218  0.557526142384561  1.0000
  H   H341      1.0  0.5419919287475684  0.1614035846347909  0.5411083657908007  1.0000
  H   H342      1.0  0.49597749450840506  0.1071783219573516  0.5419491180152374  1.0000
  H   H343      1.0  0.6040007602547169  0.19467070571882564  0.49887021988194136  1.0000
  H   H344      1.0  0.6027063844026772  0.16414840522567184  0.47017614596245644  1.0000
  H   H345      1.0  0.609887542182312  0.16255681347516285  0.5156469751608326  1.0000
  H   H346      1.0  0.5470094866697682  0.08809600171752288  0.5165513951877624  1.0000
  H   H347      1.0  0.5399988573424432  0.08985387873019282  0.47105690162238556  1.0000
  H   H348      1.0  0.4948768582270679  0.06549899590506734  0.5012215941959743  1.0000
  N   N22       1.0  0.7098719688133662  0.19044575858521431  0.23785616540680132  1.0000
  C   C229      1.0  0.6747332637180281  0.1593817581247363  0.21411925525535902  1.0000
  C   C230      1.0  0.7272891530975065  0.23034563171924255  0.22762434509620053  1.0000
  C   C231      1.0  0.7451959684465416  0.19235671572565013  0.23542498227304257  1.0000
  C   C232      1.0  0.6922431346682235  0.17971903080968996  0.2742134079168358  1.0000
  H   H349      1.0  0.687312532531384  0.16532568694851507  0.18673210534162032  1.0000
  H   H350      1.0  0.6488975703517854  0.15891048019898668  0.213660526504451  1.0000
  H   H351      1.0  0.6588222280722567  0.12841246565606715  0.2222781945168159  1.0000
  H   H352      1.0  0.7535846505339455  0.25443219910583187  0.2451931760534039  1.0000
  H   H353      1.0  0.7409923089481071  0.23943142021462077  0.2003344287447251  1.0000
  H   H354      1.0  0.7011954823705105  0.2296682268890035  0.22882101033107463  1.0000
  H   H355      1.0  0.7594377140115719  0.20070135785772455  0.20831934367437135  1.0000
  H   H356      1.0  0.7328644508163189  0.16252546072389606  0.24262147725727184  1.0000
  H   H357      1.0  0.7721135450949177  0.2152593483511502  0.2532203495057103  1.0000
  H   H358      1.0  0.7179497357323839  0.2021599018261511  0.2930220262749533  1.0000
  H   H359      1.0  0.6777576014136278  0.1492970504839474  0.2826802327802076  1.0000
  H   H360      1.0  0.6659386960874152  0.17856092788507855  0.2770443338840751  1.0000
  N   N23       1.0  0.7699038942284805  0.383616761426123  0.4177630476841445  1.0000
  C   C233      1.0  0.7890617491314722  0.3764300449076957  0.39180132572521753  1.0000
  C   C234      1.0  0.7760830706123262  0.4174583781216896  0.40529924909627457  1.0000
  C   C235      1.0  0.7917125805577709  0.393999742880997  0.4514286952514573  1.0000
  C   C236      1.0  0.722692520610662  0.3465109491115796  0.42253625475542284  1.0000
  H   H361      1.0  0.7840335462371602  0.3504809973557588  0.4002141675919206  1.0000
  H   H362      1.0  0.824916299679196  0.403462920447869  0.38823547407454384  1.0000
  H   H363      1.0  0.7739311936403538  0.3691473824655847  0.3658972494225523  1.0000
  H   H364      1.0  0.7600635372851637  0.41075164017750765  0.3799363131326468  1.0000
  H   H365      1.0  0.7616208768778399  0.423381864479378  0.4242528598807876  1.0000
  H   H366      1.0  0.8113379435951777  0.44617525809297337  0.4016494013135556  1.0000
  H   H367      1.0  0.7781242873516718  0.39965247517852237  0.4716993361933262  1.0000
  H   H368      1.0  0.8274575515736754  0.4218453672904787  0.44870207330141204  1.0000
  H   H369      1.0  0.7880038995332683  0.36924592254433214  0.46150246287437313  1.0000
  H   H370      1.0  0.7070886774084076  0.3508111235063615  0.44193971251011954  1.0000
  H   H371      1.0  0.7164952327757873  0.3201212487250654  0.4318151080259917  1.0000
  H   H372      1.0  0.7052663255883395  0.3379287654073851  0.39759877956300876  1.0000
  N   N24       1.0  0.44359840604045236  0.7571597002733076  0.5143337869358553  1.0000
  C   C237      1.0  0.41994863114215186  0.7250440449449472  0.48819308736052563  1.0000
  C   C238      1.0  0.44410003330965103  0.7411900794127055  0.5475587411537189  1.0000
  C   C239      1.0  0.42139227723274425  0.7701075406925397  0.5202800069461871  1.0000
  C   C240      1.0  0.48895775046887563  0.7921197818627584  0.5014683587206393  1.0000
  H   H373      1.0  0.4357632087776718  0.7143899782120047  0.48352995038228913  1.0000
  H   H374      1.0  0.4188919396222729  0.7358926889147475  0.46268842177459396  1.0000
  H   H375      1.0  0.38570903677151064  0.6979403345903867  0.4971941667044579  1.0000
  H   H376      1.0  0.4603412511941795  0.7641063401680923  0.5682968471065442  1.0000
  H   H377      1.0  0.4104800911057325  0.7137629566728938  0.5570897322970056  1.0000
  H   H378      1.0  0.4619604195417432  0.732414936972941  0.5444091367954884  1.0000
  H   H379      1.0  0.43860185331029095  0.7944108905938526  0.5398754637413908  1.0000
  H   H380      1.0  0.38719959927047276  0.7444118581212409  0.5304313199259761  1.0000
  H   H381      1.0  0.42013172323251574  0.7821985581926215  0.49576462671445437  1.0000
  H   H382      1.0  0.5079300827422895  0.81676143020373  0.520664188792313  1.0000
  H   H383      1.0  0.4900676383791474  0.8051199864358255  0.4764044567746366  1.0000
  H   H384      1.0  0.506700005441235  0.7833392028325155  0.4972619806344464  1.0000
