data_image0
_chemical_formula_structural       FeS2FeS2FeSFeS3FeS2FeS2FeSFeS3FeS2FeS2FeSFeS3FeS2FeS2FeSFeS3FeS2FeS2FeSFeS3FeS2FeS2FeSFeS3FeS2FeS2FeSFeS3FeS2FeS2FeSFeS3FeS2FeS2FeSFeS3FeS2FeS2FeSFeS3FeS2FeS2FeSFeS3FeS2FeS2FeSFeS3FeS2FeS2FeSFeS3FeS2FeS2FeSFeS3FeS2FeS2FeSFeS3FeS2FeS2FeSFeS3FeS2FeS2FeSFeS3FeS2FeS2FeSFeS3FeS2FeS2FeSFeS3FeS2FeS2FeSFeS3FeS2FeS2FeSFeS3FeS2FeS2FeSFeS3FeS2FeS2FeSFeS3FeS2FeS2FeSFeS3C6H4C6H4C6H4C6H4C6H4C6H4C6H4C6H4C6H4C6H4C6H4C6H4C6H4C6H4C6H4C6H4C6H4C6H4C6H4C6H4C6H4C6H4C6H4C6H4C6H4C6H4C6H4C6H4C6H4C6H4C6H4C6H4C6H4C6H4C6H4C6H4C6H4C6H4C6H4C6H4C6H4C6H4C6H4C6H4C6H4C6H4C6H4C6H4NC4H12NC4H12NC4H12NC4H12NC4H12NC4H12NC4H12NC4H12NC4H12NC4H12NC4H12NC4H12NC4H12NC4H12NC4H12NC4H12NC4H12NC4H12NC4H12NC4H12NC4H12NC4H12NC4H12NC4H12NC4H12NC4H12NC4H12NC4H12NC4H12NC4H12NC4H12NC4H12NC4H12NC4H12NC4H12NC4H12NC4H12NC4H12NC4H12NC4H12NC4H12NC4H12NC4H12NC4H12NC4H12NC4H12NC4H12NC4H12
_chemical_formula_sum              "Fe96 S192 C480 H768 N48"
_cell_length_a       59.16113701781464
_cell_length_b       59.058458838924
_cell_length_c       36.01643369417768
_cell_angle_alpha    89.9779381742037
_cell_angle_beta     89.8952862370195
_cell_angle_gamma    119.80802307666518

_space_group_name_H-M_alt    "P 1"
_space_group_IT_number       1

loop_
  _space_group_symop_operation_xyz
  'x, y, z'

loop_
  _atom_site_type_symbol
  _atom_site_label
  _atom_site_symmetry_multiplicity
  _atom_site_fract_x
  _atom_site_fract_y
  _atom_site_fract_z
  _atom_site_occupancy
  Fe  Fe1       1.0  0.8948206931009723  0.5221110175368223  0.2930296362020653  1.0000
  S   S1        1.0  0.8977313722508029  0.5591898889957543  0.2714160901719606  1.0000
  S   S2        1.0  0.8881798650863817  0.49329139987449055  0.24693030193959598  1.0000
  Fe  Fe2       1.0  0.897323565604786  0.539276189405101  0.3746607681340288  1.0000
  S   S3        1.0  0.9008561656095126  0.5775078365633088  0.3577773210011222  1.0000
  S   S4        1.0  0.88621386043612  0.5219864275102645  0.43314044828488035  1.0000
  Fe  Fe3       1.0  0.8692198630875762  0.5544746477080718  0.31608171727444806  1.0000
  S   S5        1.0  0.8292317847087057  0.5517139513529371  0.316091907597979  1.0000
  Fe  Fe4       1.0  0.9291923710594171  0.5786627065756703  0.3143453036739113  1.0000
  S   S6        1.0  0.9657662267955762  0.6165336698785582  0.2983406274501318  1.0000
  S   S7        1.0  0.8644983854714511  0.5161860921783239  0.3348998052758669  1.0000
  S   S8        1.0  0.9277610521683918  0.5416919057657474  0.3339501096802267  1.0000
  Fe  Fe5       1.0  0.906769271933535  0.554218979252592  0.64981991669506  1.0000
  S   S9        1.0  0.9054381584650584  0.5740860866490092  0.7032470836743985  1.0000
  S   S10       1.0  0.9180120429229167  0.5746922009936721  0.5932711133456189  1.0000
  Fe  Fe6       1.0  0.8972879821120211  0.5050051847857491  0.690088870675696  1.0000
  S   S11       1.0  0.8948103446636562  0.5207795006305975  0.7452119075803816  1.0000
  S   S12       1.0  0.8982938111054535  0.46752900249977  0.6810128683413813  1.0000
  Fe  Fe7       1.0  0.8702131896606692  0.5350342553456262  0.7168430430194318  1.0000
  S   S13       1.0  0.8329417893742938  0.5247698258932528  0.7497216088384638  1.0000
  Fe  Fe8       1.0  0.9301286228819924  0.5583439976560868  0.7277735473132796  1.0000
  S   S14       1.0  0.9618579091925851  0.5726425890331959  0.7725513980604946  1.0000
  S   S15       1.0  0.8702999508250051  0.5162354802292698  0.6620889919338807  1.0000
  S   S16       1.0  0.9338091556246797  0.5415110896654831  0.6738941122063082  1.0000
  Fe  Fe9       1.0  0.5094085523185015  0.14419301815111488  0.19493478757654092  1.0000
  S   S17       1.0  0.481588771565977  0.13879045318831343  0.24115282183025175  1.0000
  S   S18       1.0  0.5533216258243226  0.1633585185762981  0.1971141072029321  1.0000
  Fe  Fe10      1.0  0.4669364929437168  0.11839918651774273  0.13731160899789935  1.0000
  S   S19       1.0  0.4351541129838297  0.11033430314805001  0.17879468990077818  1.0000
  S   S20       1.0  0.4629005503424317  0.10214990891080886  0.07880215533979071  1.0000
  Fe  Fe11      1.0  0.46183326312043316  0.15152946596185965  0.1995105453021396  1.0000
  S   S21       1.0  0.44176955654764677  0.17492828956531364  0.2156471842135011  1.0000
  Fe  Fe12      1.0  0.4566769815283995  0.09816787888573839  0.21809272229756316  1.0000
  S   S22       1.0  0.44033063637857134  0.06531585104105092  0.2611484116711077  1.0000
  S   S23       1.0  0.4917822019699398  0.1602408151424692  0.15458017767346346  1.0000
  S   S24       1.0  0.4862923347921092  0.10291918464394048  0.17549246089603043  1.0000
  Fe  Fe13      1.0  0.5104683155130724  0.13068621550047915  0.8078184380021016  1.0000
  S   S25       1.0  0.4796139112184199  0.11495218360940165  0.7635609566879908  1.0000
  S   S26       1.0  0.5481509497820625  0.12939413805380803  0.8077475735873598  1.0000
  Fe  Fe14      1.0  0.47531915833689586  0.13717212209149948  0.8648783304033754  1.0000
  S   S27       1.0  0.44167718016297175  0.12089555056975823  0.8250332442074693  1.0000
  S   S28       1.0  0.47283322118001325  0.15474472024597732  0.9202104089109014  1.0000
  Fe  Fe15      1.0  0.45275656279616955  0.09065193273371036  0.809598243347045  1.0000
  S   S29       1.0  0.4268444606394993  0.046268674723464576  0.811775769318228  1.0000
  Fe  Fe16      1.0  0.4712900746045319  0.14680371311261625  0.7823519792128317  1.0000
  S   S30       1.0  0.45835904815026035  0.16914954584786487  0.7437699583835495  1.0000
  S   S31       1.0  0.48402383328826637  0.10513295889248588  0.8531946506945909  1.0000
  S   S32       1.0  0.5045537373238416  0.16443311740913766  0.8229120947647731  1.0000
  Fe  Fe17      1.0  0.4856594896192368  0.3176118166011456  0.7027103092444557  1.0000
  S   S33       1.0  0.5050454628777274  0.3406087355167048  0.6504453393329311  1.0000
  S   S34       1.0  0.49935413355968555  0.2918184517362678  0.7314848978962224  1.0000
  Fe  Fe18      1.0  0.4565669457784695  0.34852554277886083  0.7167587243289879  1.0000
  S   S35       1.0  0.4733304376727291  0.3725277820081683  0.6655667649122823  1.0000
  S   S36       1.0  0.43663668406907336  0.35955747626726225  0.7620788072151854  1.0000
  Fe  Fe19      1.0  0.46558985006685816  0.3354417235197488  0.6371502179869404  1.0000
  S   S37       1.0  0.44693375731530355  0.32891746624227725  0.5796543465547085  1.0000
  Fe  Fe20      1.0  0.5112585325124027  0.3758933419668417  0.6826827059815784  1.0000
  S   S38       1.0  0.5448303843811991  0.4174072415440178  0.6783503906383909  1.0000
  S   S39       1.0  0.44549592038481634  0.31039206982115686  0.6877932044929777  1.0000
  S   S40       1.0  0.4951618854617949  0.35384685198506255  0.7354006712449777  1.0000
  Fe  Fe21      1.0  0.4446259893375206  0.3496436104456906  0.3081865169558994  1.0000
  S   S41       1.0  0.478464625538579  0.3845789498008436  0.334303576628172  1.0000
  S   S42       1.0  0.40662394459040785  0.3506033859985565  0.3049682068242115  1.0000
  Fe  Fe22      1.0  0.4758710155189701  0.3210485863606224  0.2945837061771367  1.0000
  S   S43       1.0  0.5117768252802034  0.35549477910803484  0.3179118765488013  1.0000
  S   S44       1.0  0.4884394323681576  0.2909504527852526  0.2802987162620783  1.0000
  Fe  Fe23      1.0  0.48588805910906846  0.3552306191652744  0.36397915861164937  1.0000
  S   S45       1.0  0.5028169018304298  0.3559245376931474  0.42122297764655225  1.0000
  Fe  Fe24      1.0  0.50089882504501  0.38119322683871937  0.28636945010248765  1.0000
  S   S46       1.0  0.5244174213594212  0.41417205284714664  0.24604987826162175  1.0000
  S   S47       1.0  0.4502762521442752  0.3201991457421134  0.3417538058694652  1.0000
  S   S48       1.0  0.4668763371472013  0.34712883284636226  0.2590562219198409  1.0000
  Fe  Fe25      1.0  0.678312144903525  0.5750197953870779  0.18405938038184433  1.0000
  S   S49       1.0  0.6496995028456842  0.533930146108443  0.16760909360963896  1.0000
  S   S50       1.0  0.6574957174464674  0.5987992155890134  0.18035686304161608  1.0000
  Fe  Fe26      1.0  0.72283568335778  0.5617829787732942  0.18864072056278217  1.0000
  S   S51       1.0  0.6964298735502737  0.5199689182312973  0.17201677953367084  1.0000
  S   S52       1.0  0.7667048327871082  0.5775118933339662  0.1941114556778  1.0000
  Fe  Fe27      1.0  0.6806774418921195  0.5363238772183202  0.12898434947014614  1.0000
  S   S53       1.0  0.6657638348961605  0.5195434383874019  0.07122379127841781  1.0000
  Fe  Fe28      1.0  0.6679680248396973  0.521811567288631  0.2117318601752782  1.0000
  S   S54       1.0  0.6459274714593077  0.4923303073855271  0.2571918515052024  1.0000
  S   S55       1.0  0.7086052387040187  0.5780745778509632  0.1429661624123042  1.0000
  S   S56       1.0  0.6951299420712502  0.5628515083045667  0.23096491120582782  1.0000
  Fe  Fe29      1.0  0.7120423920170927  0.5511451418743141  0.781001958972696  1.0000
  S   S57       1.0  0.6986003381921578  0.5244273136444795  0.8302542666842452  1.0000
  S   S58       1.0  0.750152204908727  0.564580064028941  0.7493008749755854  1.0000
  Fe  Fe30      1.0  0.663205161440722  0.5583411968848894  0.7835151963504454  1.0000
  S   S59       1.0  0.6471217325664771  0.5326187117576596  0.8341842450133198  1.0000
  S   S60       1.0  0.6383500184049632  0.5689457207976759  0.7467744550787082  1.0000
  Fe  Fe31      1.0  0.688490168424036  0.5531201090501848  0.8555501366298446  1.0000
  S   S61       1.0  0.7061988719883988  0.5714912361790518  0.9115498356238604  1.0000
  Fe  Fe32      1.0  0.658743052672398  0.5064859236159004  0.8044446592395698  1.0000
  S   S62       1.0  0.6335558590211232  0.46258403983378643  0.8009799905381774  1.0000
  S   S63       1.0  0.7037826935685676  0.5810104066675262  0.8068463399128729  1.0000
  S   S64       1.0  0.6729990141451863  0.5309714684167718  0.7531264205931072  1.0000
  Fe  Fe33      1.0  0.3587431605590222  0.9154019183733787  0.2883810114695112  1.0000
  S   S65       1.0  0.3930306455822854  0.9261475766060074  0.3246279096784657  1.0000
  S   S66       1.0  0.35397168433840526  0.944695006572878  0.2529201175232355  1.0000
  Fe  Fe34      1.0  0.33866218703980533  0.8566113789423213  0.2975824360917851  1.0000
  S   S67       1.0  0.3726877547665785  0.8636432159428988  0.3344128801320916  1.0000
  S   S68       1.0  0.31139695161404496  0.8164541442429677  0.2717286318525535  1.0000
  Fe  Fe35      1.0  0.36557591134236567  0.8937044364131284  0.36258148877708823  1.0000
  S   S69       1.0  0.37635142997646426  0.9065109986109672  0.42287548604653247  1.0000
  Fe  Fe36      1.0  0.39771752878633426  0.8956482204640582  0.29434234625523475  1.0000
  S   S70       1.0  0.4386767376621174  0.911777840353631  0.2718002608844726  1.0000
  S   S71       1.0  0.3300569272094912  0.8849833552667518  0.32820345524823313  1.0000
  S   S72       1.0  0.3648023029358816  0.886608545661619  0.25567858688158324  1.0000
  Fe  Fe37      1.0  0.3673233993499346  0.9147772218641663  0.6887327751328883  1.0000
  S   S73       1.0  0.3803352729227131  0.8998672283474943  0.6403448093671691  1.0000
  S   S74       1.0  0.3849302091027256  0.9590612677786247  0.6851345505550733  1.0000
  Fe  Fe38      1.0  0.32941643020024414  0.8587257027405496  0.7155374779676418  1.0000
  S   S75       1.0  0.33989469076702233  0.8404438216462865  0.6689743193744756  1.0000
  S   S76       1.0  0.3012244162297515  0.8344803389338745  0.7618611467228001  1.0000
  Fe  Fe39      1.0  0.3811260899759774  0.8713942888102255  0.6807278565589833  1.0000
  S   S77       1.0  0.41345479048614364  0.8619510354909812  0.6730790181787557  1.0000
  Fe  Fe40      1.0  0.33837169930830147  0.8705293494670346  0.6324308433567103  1.0000
  S   S78       1.0  0.31832806175535755  0.858895538605494  0.5763431123991725  1.0000
  S   S79       1.0  0.37131528685619536  0.8882379865799164  0.7299764518784357  1.0000
  S   S80       1.0  0.32466839867715114  0.8867576014795909  0.678182149900391  1.0000
  Fe  Fe41      1.0  0.11128477253004411  0.6525505731625695  0.22737812015220793  1.0000
  S   S81       1.0  0.12040325598834094  0.6340546687430949  0.17942204369233994  1.0000
  S   S82       1.0  0.07430719940142008  0.6235852540429652  0.2582400106895845  1.0000
  Fe  Fe42      1.0  0.1642360236349405  0.703833078739607  0.21846672406120723  1.0000
  S   S83       1.0  0.1760631161167936  0.6886816093476452  0.16897025297008023  1.0000
  S   S84       1.0  0.18850777504789562  0.7434664483362377  0.24724699682726764  1.0000
  Fe  Fe43      1.0  0.1344558425998268  0.6721817763086451  0.14955759248228384  1.0000
  S   S85       1.0  0.11511434849433773  0.6687076928461725  0.09316467587457535  1.0000
  Fe  Fe44      1.0  0.16048833011071623  0.6517019370977618  0.20287930118101208  1.0000
  S   S86       1.0  0.18203657971347106  0.62917976892515  0.20852762220998058  1.0000
  S   S87       1.0  0.12344356416585908  0.6901108087636395  0.19674920957493938  1.0000
  S   S88       1.0  0.15078790296596103  0.6675978585538529  0.253061444765922  1.0000
  Fe  Fe45      1.0  0.11586506969048603  0.6615823649187969  0.8064358648145576  1.0000
  S   S89       1.0  0.11786534689303126  0.6391846715314069  0.8558771976155419  1.0000
  S   S90       1.0  0.08229227541483741  0.6609428429039373  0.7740881077599131  1.0000
  Fe  Fe46      1.0  0.1750021311123245  0.690838332261019  0.7938594093869512  1.0000
  S   S91       1.0  0.1818528147534125  0.670183715717098  0.8411297735602109  1.0000
  S   S92       1.0  0.20400882694580416  0.7184141180084803  0.7503094332920874  1.0000
  Fe  Fe47      1.0  0.1466539739328399  0.6336435339455712  0.8216330627162867  1.0000
  S   S93       1.0  0.14349453732479756  0.5940742758200205  0.8281918184824407  1.0000
  Fe  Fe48      1.0  0.15296337297085763  0.6767646737191684  0.8736174974809344  1.0000
  S   S94       1.0  0.1681242944416489  0.6889883885821133  0.9327403349409025  1.0000
  S   S95       1.0  0.1421668320298718  0.6530829031144267  0.7711852930809571  1.0000
  S   S96       1.0  0.1486367303318058  0.7002357683319985  0.8273038149289639  1.0000
  Fe  Fe49      1.0  0.6852465796479366  0.13046139121363118  0.35270459467243725  1.0000
  S   S97       1.0  0.7115002527304577  0.12459257280166287  0.31310291496592146  1.0000
  S   S98       1.0  0.6985868684196638  0.15049297092203204  0.40904128352238267  1.0000
  Fe  Fe50      1.0  0.6428106923928328  0.11551817115731836  0.2935722239716253  1.0000
  S   S99       1.0  0.6661127275093182  0.10927087971958042  0.24950073844807147  1.0000
  S   S100      1.0  0.6002021361646921  0.10371201368754951  0.2874943787146998  1.0000
  Fe  Fe51      1.0  0.6747931396778984  0.08823524054681291  0.29432633250603196  1.0000
  S   S101      1.0  0.6742065608172076  0.04950998265848279  0.2861231818661441  1.0000
  Fe  Fe52      1.0  0.7008642618685718  0.14603722103313943  0.2714442938470392  1.0000
  S   S102      1.0  0.7287925065280241  0.17883757869684444  0.23224376521795853  1.0000
  S   S103      1.0  0.6498012653682881  0.09259531258314803  0.33762954808355466  1.0000
  S   S104      1.0  0.6763970578928081  0.1538462555322068  0.31174721696296553  1.0000
  Fe  Fe53      1.0  0.6800620184303776  0.11345923310900358  0.622263932884122  1.0000
  S   S105      1.0  0.7076385902226082  0.11914913353142041  0.6690563729045412  1.0000
  S   S106      1.0  0.6794272785510178  0.09464282199781049  0.5668596456723058  1.0000
  Fe  Fe54      1.0  0.6472193782643594  0.12850548469555972  0.67103594419409  1.0000
  S   S107      1.0  0.6717305117082105  0.13490664354815415  0.7216405741608095  1.0000
  S   S108      1.0  0.6137849479213822  0.13638347131576664  0.664390206957968  1.0000
  Fe  Fe55      1.0  0.7061249189160358  0.1557100797401684  0.683137331314779  1.0000
  S   S109      1.0  0.7371139129515385  0.19864103913231818  0.6908177168946945  1.0000
  Fe  Fe56      1.0  0.6711067453129868  0.0979064705396761  0.7039131637955087  1.0000
  S   S110      1.0  0.6667545218795108  0.06691214671749551  0.745477019658579  1.0000
  S   S111      1.0  0.6812638408452069  0.15129276704134498  0.6331798697504741  1.0000
  S   S112      1.0  0.6438209708385796  0.09007562379847973  0.6563657954871918  1.0000
  Fe  Fe57      1.0  0.9301691710865908  0.3512441222460141  0.20034497657788009  1.0000
  S   S113      1.0  0.9140190521906598  0.37678568898334014  0.18164447866782665  1.0000
  S   S114      1.0  0.9747544356462821  0.3726984019109162  0.19661530845499606  1.0000
  Fe  Fe58      1.0  0.8744489663718018  0.3043427394764698  0.21461854480682235  1.0000
  S   S115      1.0  0.8555022534869543  0.3275696275743642  0.1982170424248423  1.0000
  S   S116      1.0  0.8511373695153962  0.26161830174872586  0.23408346741460898  1.0000
  Fe  Fe59      1.0  0.8841842544722419  0.3417069925940191  0.1503881946853981  1.0000
  S   S117      1.0  0.8680746224568874  0.34258733193671786  0.09324387900616876  1.0000
  Fe  Fe60      1.0  0.8873595773081714  0.36049690484587216  0.23066998701966118  1.0000
  S   S118      1.0  0.8832107812725916  0.38480099488470354  0.276095130853521  1.0000
  S   S119      1.0  0.9018759140138531  0.3169504097434569  0.16528382182383497  1.0000
  S   S120      1.0  0.9046301811443098  0.3363323489566982  0.2508978472265313  1.0000
  Fe  Fe61      1.0  0.898724144194674  0.33514968049907895  0.8785521735982197  1.0000
  S   S121      1.0  0.9005257741624034  0.30878438311576145  0.8350190390547575  1.0000
  S   S122      1.0  0.9131666301205105  0.33279287847537725  0.9364850058720341  1.0000
  Fe  Fe62      1.0  0.8794755263797321  0.3599098131612889  0.8224990560422152  1.0000
  S   S123      1.0  0.8793214553632738  0.3353462026143356  0.7748760489053376  1.0000
  S   S124      1.0  0.8667408112877167  0.3902053853229045  0.8184647419846531  1.0000
  Fe  Fe63      1.0  0.861479211711942  0.30177339081727683  0.8151494563800135  1.0000
  S   S125      1.0  0.8329299821714748  0.2585414611736227  0.8025893985190968  1.0000
  Fe  Fe64      1.0  0.9183172282578073  0.3436098924791631  0.7972492612966715  1.0000
  S   S126      1.0  0.9486247817440961  0.34785581937466137  0.7541320536596461  1.0000
  S   S127      1.0  0.8583969422807449  0.3256928575489254  0.8617339541445918  1.0000
  S   S128      1.0  0.9197649309271536  0.37084281971613253  0.8420383050140506  1.0000
  Fe  Fe65      1.0  0.5527777972976675  0.8664747815901037  0.12607893348943472  1.0000
  S   S129      1.0  0.5937396652561041  0.887408246917733  0.1485089104829818  1.0000
  S   S130      1.0  0.5372346956716679  0.855577616894569  0.06682782932851788  1.0000
  Fe  Fe66      1.0  0.5290058274166172  0.862035340730906  0.2037603051322878  1.0000
  S   S131      1.0  0.5680760043834595  0.8832954894843714  0.23128106049501304  1.0000
  S   S132      1.0  0.4920164959930972  0.8435253186564922  0.23801685329393485  1.0000
  Fe  Fe67      1.0  0.5805696293579029  0.9109934044804657  0.18269507496096526  1.0000
  S   S133      1.0  0.5980201397787356  0.955484848998162  0.17981960117673573  1.0000
  Fe  Fe68      1.0  0.5775425055705075  0.8576441368939421  0.1954743864155815  1.0000
  S   S134      1.0  0.5966366866719864  0.8370051111599346  0.2249995794665284  1.0000
  S   S135      1.0  0.5402594417447231  0.8911138003796334  0.15788796897778493  1.0000
  S   S136      1.0  0.5378363859880717  0.8353005303229013  0.17024891749599766  1.0000
  Fe  Fe69      1.0  0.520593738041047  0.8692009998465067  0.8049551114068075  1.0000
  S   S137      1.0  0.5423165887685389  0.8721590570073867  0.7522060890576474  1.0000
  S   S138      1.0  0.4775265307624956  0.8558915542527836  0.8102970940867307  1.0000
  Fe  Fe70      1.0  0.5692112742977382  0.8901217595866806  0.8531084190752188  1.0000
  S   S139      1.0  0.5945461383143084  0.8959661574368983  0.803093431939365  1.0000
  S   S140      1.0  0.5902201279686438  0.8992793058318945  0.9089591027628753  1.0000
  Fe  Fe71      1.0  0.5719017566849339  0.9119324718465256  0.7740802239624217  1.0000
  S   S141      1.0  0.5861099410336637  0.9452390017016871  0.7318150471986846  1.0000
  Fe  Fe72      1.0  0.5631285945340577  0.8558011842533112  0.7857531051217155  1.0000
  S   S142      1.0  0.5798287199301223  0.8291357527291391  0.7712265994325959  1.0000
  S   S143      1.0  0.5490819435229027  0.9095131216804089  0.8254309564549315  1.0000
  S   S144      1.0  0.5388666016351018  0.8495433416276698  0.8370121166113087  1.0000
  Fe  Fe73      1.0  0.5905010474487091  0.658738187434152  0.3075300501063342  1.0000
  S   S145      1.0  0.5562063234514808  0.6253331576030565  0.33573459829690167  1.0000
  S   S146      1.0  0.6278991567520659  0.6563667864542775  0.3055051825660375  1.0000
  Fe  Fe74      1.0  0.559852405878408  0.6873561176657709  0.2888105306210299  1.0000
  S   S147      1.0  0.5238271526953695  0.6552717315783565  0.3162339725436791  1.0000
  S   S148      1.0  0.5501284928626541  0.7145053628681872  0.25462324255056834  1.0000
  Fe  Fe75      1.0  0.5501233454891428  0.6564329553119319  0.3623744083453973  1.0000
  S   S149      1.0  0.5330588025521544  0.6521160169368532  0.4207473203874013  1.0000
  Fe  Fe76      1.0  0.5330485041080643  0.6271881543359968  0.28773891464292684  1.0000
  S   S150      1.0  0.507139270647143  0.5927397684972654  0.25074894337683146  1.0000
  S   S151      1.0  0.5858522692027499  0.6903268581156722  0.3370028790440304  1.0000
  S   S152      1.0  0.567781737493141  0.6587703631398982  0.25784119023826507  1.0000
  Fe  Fe77      1.0  0.5748545923136439  0.6565412654667333  0.7159145729997237  1.0000
  S   S153      1.0  0.5580797457943039  0.6295206019927625  0.667272223568068  1.0000
  S   S154      1.0  0.6053721374234087  0.6565694283050496  0.7542868816721902  1.0000
  Fe  Fe78      1.0  0.5445367296520495  0.6853076139299012  0.6990078683141587  1.0000
  S   S155      1.0  0.5259965636736688  0.6602718980422733  0.6486769004828886  1.0000
  S   S156      1.0  0.5274046712480897  0.711692197935426  0.7117264169309012  1.0000
  Fe  Fe79      1.0  0.5203480078204543  0.626832904598626  0.6847584267483143  1.0000
  S   S157      1.0  0.48098409010544346  0.5904610238013961  0.680933304731452  1.0000
  Fe  Fe80      1.0  0.5651855862997164  0.6651897589233945  0.6353849970822767  1.0000
  S   S158      1.0  0.5871615326055486  0.6758208857228705  0.5802918583916676  1.0000
  S   S159      1.0  0.5363443521571009  0.6512460379378099  0.7359485294710232  1.0000
  S   S160      1.0  0.5845377707903868  0.6928847782044221  0.683099213539444  1.0000
  Fe  Fe81      1.0  0.15030310079997983  0.466899725326825  0.37716997927985174  1.0000
  S   S161      1.0  0.140794552062705  0.435046717312518  0.33518721391380935  1.0000
  S   S162      1.0  0.16864750139393955  0.46890924673909373  0.43373642355602793  1.0000
  Fe  Fe82      1.0  0.1377055360284931  0.49880374088816537  0.3225728880375703  1.0000
  S   S163      1.0  0.12734422116122895  0.4697111331735438  0.2765459372253424  1.0000
  S   S164      1.0  0.13072287939931065  0.5332124744123563  0.32052738008891113  1.0000
  Fe  Fe83      1.0  0.10590158604243709  0.439305331400905  0.3203542185207709  1.0000
  S   S165      1.0  0.06557201274092764  0.40284085892895427  0.31525361154937964  1.0000
  Fe  Fe84      1.0  0.16293520709987022  0.4674877017630572  0.29429212156041634  1.0000
  S   S166      1.0  0.1904507827144836  0.4686562335437369  0.24840648983087682  1.0000
  S   S167      1.0  0.11389481581863531  0.46852865312478054  0.3657241232727998  1.0000
  S   S168      1.0  0.17488181601936673  0.49931214539297814  0.3369439236976723  1.0000
  Fe  Fe85      1.0  0.1501028936018791  0.493651593806986  0.6997580085542189  1.0000
  S   S169      1.0  0.14343102201247288  0.46951916870758237  0.7509385755410658  1.0000
  S   S170      1.0  0.1670798507852624  0.5374640727748032  0.6958946369540261  1.0000
  Fe  Fe86      1.0  0.12609574267284634  0.44683521380206837  0.6485299490733691  1.0000
  S   S171      1.0  0.11703499437588795  0.41853291594044356  0.695825876866225  1.0000
  S   S172      1.0  0.11009162637275381  0.4337358243298843  0.5901003845777829  1.0000
  Fe  Fe87      1.0  0.103616288866768  0.44256103223923626  0.7271961281640619  1.0000
  S   S173      1.0  0.07074295778679773  0.42735493724844975  0.7699850205709771  1.0000
  Fe  Fe88      1.0  0.15738798524070782  0.44685764843027076  0.7170113017259256  1.0000
  S   S174      1.0  0.178393746503681  0.42792669439467546  0.7461317691065114  1.0000
  S   S175      1.0  0.10943166922914402  0.46867550694429727  0.678654419343197  1.0000
  S   S176      1.0  0.167440413340643  0.47329584641166994  0.6669204839322563  1.0000
  Fe  Fe89      1.0  0.3589284504816386  0.4392216056330425  0.1960563635348263  1.0000
  S   S177      1.0  0.38103247693831427  0.47982906882705206  0.17288235240809066  1.0000
  S   S178      1.0  0.3862035049041858  0.4222864263277374  0.19253449638610792  1.0000
  Fe  Fe90      1.0  0.30989345976301585  0.44450772046485343  0.2071013901834671  1.0000
  S   S179      1.0  0.32912589766279704  0.485140084496811  0.18379046435486976  1.0000
  S   S180      1.0  0.2702015929810311  0.4253923085143237  0.23593757622913092  1.0000
  Fe  Fe91      1.0  0.34510121588377213  0.46958497372533065  0.1397764559650838  1.0000
  S   S181      1.0  0.3550018496131216  0.4854204253014119  0.08065891329999528  1.0000
  Fe  Fe92      1.0  0.3634026765902917  0.4916250281372158  0.21832097642211631  1.0000
  S   S182      1.0  0.3837276941786288  0.5259764007473473  0.25744986459519265  1.0000
  S   S183      1.0  0.32347115374517366  0.4281431692767117  0.1604888662107391  1.0000
  S   S184      1.0  0.34361748686112975  0.4518680068890807  0.24420999489785788  1.0000
  Fe  Fe93      1.0  0.35858021206386237  0.43540563180863273  0.7917890532656136  1.0000
  S   S185      1.0  0.3808175726592973  0.45292902775989025  0.8445189727954028  1.0000
  S   S186      1.0  0.36374192567142716  0.4106217840216694  0.7476133167457131  1.0000
  Fe  Fe94      1.0  0.3279755589336288  0.46510397582641516  0.7975142634743535  1.0000
  S   S187      1.0  0.34866467232116594  0.485583782471748  0.8499685196766869  1.0000
  S   S188      1.0  0.30145877631307505  0.47674986326828334  0.7669462262629784  1.0000
  Fe  Fe95      1.0  0.3851435225714803  0.4906916546326101  0.8226936335178492  1.0000
  S   S189      1.0  0.42372417593148887  0.5283075763469779  0.8272658418584263  1.0000
  Fe  Fe96      1.0  0.34263212542064136  0.4465315097726262  0.8679210753528235  1.0000
  S   S190      1.0  0.32404888902047585  0.4281912779454025  0.9236010781199938  1.0000
  S   S191      1.0  0.36523010197254036  0.47366062861124725  0.768925025549157  1.0000
  S   S192      1.0  0.31965211095533796  0.425557447037148  0.81670668327896  1.0000
  C   C1        1.0  0.34543285418827385  0.46915859560616213  0.03730304729589435  1.0000
  C   C2        1.0  0.325347821869138  0.443265743715208  0.03409362266003502  1.0000
  C   C3        1.0  0.31913008882038674  0.430977715460654  0.9990945706176396  1.0000
  C   C4        1.0  0.33279300704215364  0.4444381387099126  0.96699360858196  1.0000
  C   C5        1.0  0.35267076754574084  0.47038696948297454  0.9701427480320108  1.0000
  C   C6        1.0  0.3588841202232714  0.4826669486289926  0.005115717572341527  1.0000
  H   H1        1.0  0.31448384768068977  0.43276694701218166  0.05848248778744035  1.0000
  H   H2        1.0  0.30358757339551584  0.4109351421107079  0.9968626851805886  1.0000
  H   H3        1.0  0.3633491386062101  0.480989960448853  0.9456773828046253  1.0000
  H   H4        1.0  0.37439707299898334  0.5027329120090757  0.007276925775369657  1.0000
  C   C7        1.0  0.2126775438503063  0.44182033906158685  0.7518331666986636  1.0000
  C   C8        1.0  0.2303611546396788  0.46680541905086714  0.7387970127182838  1.0000
  C   C9        1.0  0.2573697316070842  0.47708318184573967  0.7438244963830444  1.0000
  C   C10       1.0  0.26711527340851576  0.4626273275894213  0.7619944513677683  1.0000
  C   C11       1.0  0.24947392742292293  0.43758757009819754  0.775015462783742  1.0000
  C   C12       1.0  0.22241952947564667  0.4273032253992506  0.7700136256096247  1.0000
  H   H5        1.0  0.22322964108629234  0.4782264208458723  0.7247708555429753  1.0000
  H   H6        1.0  0.2707936731875023  0.4964414449330301  0.7335274393193518  1.0000
  H   H7        1.0  0.25662758118767093  0.4260093610826348  0.7884180395622745  1.0000
  H   H8        1.0  0.2089306707669857  0.4078780918115134  0.7799594378570465  1.0000
  C   C13       1.0  0.21307302414865242  0.45710780328974715  0.2467903494348947  1.0000
  C   C14       1.0  0.212698302180602  0.4391520455115138  0.27251644388650303  1.0000
  C   C15       1.0  0.23027047284108704  0.4296172474415158  0.26877764269647614  1.0000
  C   C16       1.0  0.24872751082276698  0.4382630459667218  0.23979024476673774  1.0000
  C   C17       1.0  0.2493637088962905  0.45652976089985026  0.21446482701896344  1.0000
  C   C18       1.0  0.23152472694615175  0.4657112528494154  0.21781892738082145  1.0000
  H   H9        1.0  0.19860491948298553  0.43228509487803574  0.2949040233033614  1.0000
  H   H10       1.0  0.22952130953475977  0.415408907557864  0.28846063038993636  1.0000
  H   H11       1.0  0.26313841475967475  0.4630786470898391  0.19169455573993102  1.0000
  H   H12       1.0  0.2318465610774465  0.47942709391626664  0.19759136387954923  1.0000
  C   C19       1.0  0.15195457607491525  0.4591228827212231  0.476888309996652  1.0000
  C   C20       1.0  0.16643467422758748  0.46323565364654323  0.5096322226327172  1.0000
  C   C21       1.0  0.15398928922956373  0.4555443211856338  0.5444878544469286  1.0000
  C   C22       1.0  0.1268409305457919  0.44360376806942514  0.5469516796598289  1.0000
  C   C23       1.0  0.11236605112617166  0.43948890574800636  0.5142230385406492  1.0000
  C   C24       1.0  0.12483116138093239  0.4473213473810148  0.47938349517489093  1.0000
  H   H13       1.0  0.18741015297374847  0.47221281817951866  0.5079360293571809  1.0000
  H   H14       1.0  0.1653750501511259  0.458506870981004  0.5693283261972705  1.0000
  H   H15       1.0  0.09135287023637913  0.43014727442795675  0.5157729284128096  1.0000
  H   H16       1.0  0.11344360169391868  0.4439609984040007  0.454418680699734  1.0000
  C   C25       1.0  0.46592031634836123  0.572491777512373  0.7214693252351385  1.0000
  C   C26       1.0  0.4395119535874081  0.5533510318930207  0.7201905573852146  1.0000
  C   C27       1.0  0.42651618639318306  0.5394683928256053  0.7523450198696826  1.0000
  C   C28       1.0  0.4398518405962541  0.5445805279968297  0.7860619999493  1.0000
  C   C29       1.0  0.4663313545134484  0.5637064751829949  0.787322830239545  1.0000
  C   C30       1.0  0.4794039869757265  0.5775163668981369  0.7550600200261771  1.0000
  H   H17       1.0  0.4289819558570832  0.5493887635765313  0.6942855461067454  1.0000
  H   H18       1.0  0.40607866262597014  0.5251487264263512  0.7511120109653245  1.0000
  H   H19       1.0  0.47678690584477074  0.5677357656423672  0.8133086253767687  1.0000
  H   H20       1.0  0.4998489532770833  0.5920479539414506  0.7562516464161014  1.0000
  C   C31       1.0  0.4728808306475334  0.5748494270039033  0.25335293476126247  1.0000
  C   C32       1.0  0.4592838371933694  0.5558815455380668  0.22617782603146666  1.0000
  C   C33       1.0  0.431977606388183  0.5410584042095896  0.2270129945692439  1.0000
  C   C34       1.0  0.41801246255106705  0.5449784570899496  0.25517536084672066  1.0000
  C   C35       1.0  0.43158515638750783  0.5640945534221072  0.2822653494560339  1.0000
  C   C36       1.0  0.45898186533902535  0.5790304868948065  0.2813828871579771  1.0000
  H   H21       1.0  0.46994619049983005  0.5527130152289068  0.20426222890016565  1.0000
  H   H22       1.0  0.4217758909744066  0.5267435359035275  0.20569534783882693  1.0000
  H   H23       1.0  0.42091797701634454  0.5672556663262144  0.3041722732755403  1.0000
  H   H24       1.0  0.46932374726432846  0.5935744955003585  0.3025380382425003  1.0000
  C   C37       1.0  0.5487296924295522  0.658230369769473  0.46461495582957846  1.0000
  C   C38       1.0  0.5333085575315656  0.6507296337414176  0.49697700407533946  1.0000
  C   C39       1.0  0.5447439598733823  0.6555203390317768  0.532490239929812  1.0000
  C   C40       1.0  0.5718472820174192  0.6682532126371673  0.5360741002549256  1.0000
  C   C41       1.0  0.587326678502679  0.675838318291959  0.5037814786197371  1.0000
  C   C42       1.0  0.5758498366916517  0.6707519230389309  0.4682042966525393  1.0000
  H   H25       1.0  0.512318473748258  0.6409616618969773  0.4944822538827047  1.0000
  H   H26       1.0  0.532527025830446  0.6493391242582229  0.5569966444499583  1.0000
  H   H27       1.0  0.6083152133980702  0.6857190078116348  0.5061671818829984  1.0000
  H   H28       1.0  0.5879523213566019  0.6766876078881725  0.44355722703073247  1.0000
  C   C43       1.0  0.5647219784980794  0.7964652312838034  0.7545972684920886  1.0000
  C   C44       1.0  0.5379886143902778  0.7818464221504065  0.7475181226826791  1.0000
  C   C45       1.0  0.5269644670919792  0.7559588343906363  0.73447886542594  1.0000
  C   C46       1.0  0.5424494402107461  0.744325023964087  0.7284999899719229  1.0000
  C   C47       1.0  0.5691750713897263  0.7589066785754879  0.7356513329805279  1.0000
  C   C48       1.0  0.580201534501355  0.7848105207130541  0.748617486357282  1.0000
  H   H29       1.0  0.5258299448467268  0.7905225724475328  0.7519294580647907  1.0000
  H   H30       1.0  0.506278166382289  0.7449218518386941  0.728960032072752  1.0000
  H   H31       1.0  0.5813536211761021  0.7502565739087026  0.7313168072418371  1.0000
  H   H32       1.0  0.6009048724249699  0.7959323716472155  0.7540243830546716  1.0000
  C   C49       1.0  0.5836485345907346  0.8028416115941308  0.2324778756817064  1.0000
  C   C50       1.0  0.5967470887284858  0.7943395356301766  0.25643734632685333  1.0000
  C   C51       1.0  0.5868776332320008  0.7674996329346597  0.2637329661176487  1.0000
  C   C52       1.0  0.563743198375126  0.7487458525367146  0.2470055126811823  1.0000
  C   C53       1.0  0.5506390129807195  0.7572787655877251  0.2231025269206182  1.0000
  C   C54       1.0  0.5605099413193824  0.7840781436540835  0.2158081457312538  1.0000
  H   H33       1.0  0.6147323147957385  0.8086166656057101  0.2693857906353101  1.0000
  H   H34       1.0  0.5972806875804483  0.7613425611725172  0.2820633932107635  1.0000
  H   H35       1.0  0.5327853896684749  0.7430489859008834  0.209874469092754  1.0000
  H   H36       1.0  0.5502952439785638  0.790197901409363  0.1970634990853647  1.0000
  C   C55       1.0  0.5751415040354786  0.8869534331570297  0.9525815908756823  1.0000
  C   C56       1.0  0.5908446352583907  0.8922879112761161  0.9842901608989908  1.0000
  C   C57       1.0  0.5796675935956188  0.8824330828413464  0.019388976464215557  1.0000
  C   C58       1.0  0.5525997644005751  0.8673735394981603  0.023168452025676564  1.0000
  C   C59       1.0  0.5369565882549495  0.8618052203928206  0.9913642009590651  1.0000
  C   C60       1.0  0.5481280772553796  0.871529257020453  0.9562432032904554  1.0000
  H   H37       1.0  0.6117988724196963  0.903931214901665  0.9816134080388275  1.0000
  H   H38       1.0  0.5919822770282654  0.886274414800847  0.04342409899540481  1.0000
  H   H39       1.0  0.5159946461929071  0.8500746518336108  0.9939641237955543  1.0000
  H   H40       1.0  0.5358064752498407  0.8671956518943681  0.9320684941123496  1.0000
  C   C61       1.0  0.9824384433510035  0.3706847462022155  0.7584333550816282  1.0000
  C   C62       1.0  0.9929223148001518  0.3847162658410673  0.7911876753488848  1.0000
  C   C63       1.0  0.019932756488519804  0.4021179975445493  0.7939959919749824  1.0000
  C   C64       1.0  0.036761757130513564  0.4059819529365895  0.7640251137732392  1.0000
  C   C65       1.0  0.026308814409812836  0.3920353664944539  0.7311692293018227  1.0000
  C   C66       1.0  0.9992915914510637  0.3743922094327065  0.7284949738943752  1.0000
  H   H41       1.0  0.9802462365832985  0.3820225580126549  0.8144931708622261  1.0000
  H   H42       1.0  0.027801887862476216  0.4127376481091414  0.819576364526007  1.0000
  H   H43       1.0  0.03900377317072049  0.39476081269007496  0.7078924867523804  1.0000
  H   H44       1.0  0.9913947392221535  0.36367032672150057  0.7030123097135335  1.0000
  C   C67       1.0  0.999277170664131  0.3817620901640311  0.23108845936943936  1.0000
  C   C68       1.0  0.024732533987327443  0.4019354033097513  0.2231778011996376  1.0000
  C   C69       1.0  0.04498220150159539  0.4095184493145202  0.2492975651148185  1.0000
  C   C70       1.0  0.04016649657671063  0.3964405723851657  0.28331248930230823  1.0000
  C   C71       1.0  0.014717012667096024  0.37626926754416523  0.29121880424759605  1.0000
  C   C72       1.0  0.99430228069331  0.3691773720300757  0.26551509943620777  1.0000
  H   H45       1.0  0.028802369477630263  0.4118165230954993  0.19663426355902375  1.0000
  H   H46       1.0  0.06439305864869567  0.42510135980993624  0.24274286566972314  1.0000
  H   H47       1.0  0.010812865198018157  0.36587775198029254  0.31731607058216793  1.0000
  H   H48       1.0  0.974913358161376  0.35346422757625984  0.2719138640674298  1.0000
  C   C73       1.0  0.8818319576527619  0.3414578943593879  0.04985587136518968  1.0000
  C   C74       1.0  0.868957170265662  0.34120733085884625  0.016924273867553657  1.0000
  C   C75       1.0  0.8784301335177835  0.3389036017201293  0.9819679182595291  1.0000
  C   C76       1.0  0.9008354679652002  0.33664140627165123  0.9796169884875664  1.0000
  C   C77       1.0  0.9136773978691575  0.3368585049809868  0.01259178928196425  1.0000
  C   C78       1.0  0.9043381238764032  0.3393794420113918  0.047515583493658045  1.0000
  H   H49       1.0  0.8515372425299262  0.34280341680499843  0.018397083591918197  1.0000
  H   H50       1.0  0.8683628364720507  0.33877929331994583  0.9568497967429047  1.0000
  H   H51       1.0  0.9310680271732342  0.3352091393134284  0.011046641887739739  1.0000
  H   H52       1.0  0.9145309601475394  0.3396445593805908  0.07255995993606719  1.0000
  C   C79       1.0  0.641965583151117  0.0335624100696693  0.7443545725969946  1.0000
  C   C80       1.0  0.6426357023291147  0.016052418811154167  0.7702274693022545  1.0000
  C   C81       1.0  0.6248915160804988  0.9890188092239219  0.7679051406120003  1.0000
  C   C82       1.0  0.6065355953349477  0.9792062830841324  0.7392730415828892  1.0000
  C   C83       1.0  0.6056014464735363  0.9967903245823481  0.7138172632484783  1.0000
  C   C84       1.0  0.6228958749252496  0.02383619551480252  0.716692879500182  1.0000
  H   H53       1.0  0.6572534830959676  0.023355607962827273  0.7918230069850728  1.0000
  H   H54       1.0  0.625910223129295  0.9756994532942834  0.7875723097486627  1.0000
  H   H55       1.0  0.5913728763537016  0.989368001022598  0.691705717378222  1.0000
  H   H56       1.0  0.6217274047229832  0.037053869986847954  0.6970789374508434  1.0000
  C   C85       1.0  0.7635120735316708  0.2148186992135505  0.7224559256423494  1.0000
  C   C86       1.0  0.7785010171119794  0.24225894689814143  0.72139243080019  1.0000
  C   C87       1.0  0.7995973165250112  0.25604174993447804  0.7459172528324846  1.0000
  C   C88       1.0  0.8060148496574541  0.24248369035953674  0.7717917995867355  1.0000
  C   C89       1.0  0.791067134653233  0.2150458921654976  0.7727629988468897  1.0000
  C   C90       1.0  0.7698728294678506  0.20127404518246847  0.7484078292898644  1.0000
  H   H57       1.0  0.7738083078129657  0.25297425764152176  0.7014147179692385  1.0000
  H   H58       1.0  0.8108899051903953  0.2771229075980588  0.7447690304733194  1.0000
  H   H59       1.0  0.7958685235798906  0.20434917311301817  0.7926386676063868  1.0000
  H   H60       1.0  0.7585799282552202  0.1802040154396502  0.7496401414721742  1.0000
  C   C91       1.0  0.6513709961908685  0.02294425655434378  0.258436378805188  1.0000
  C   C92       1.0  0.6501155982207337  0.9985639976127548  0.26129870246883646  1.0000
  C   C93       1.0  0.6332365199227172  0.9774008896370986  0.23847829327256903  1.0000
  C   C94       1.0  0.6178085842974875  0.9805655432610981  0.2118693097650778  1.0000
  C   C95       1.0  0.6191655917099635  0.004993956223348972  0.2089245075855416  1.0000
  C   C96       1.0  0.6355647990034768  0.02594894017454195  0.23231892168742227  1.0000
  H   H61       1.0  0.6622869624043709  0.9959989275337485  0.2812952405290371  1.0000
  H   H62       1.0  0.6326053481620572  0.9588379906831525  0.24093166068961774  1.0000
  H   H63       1.0  0.6073291224631395  0.007700243860217393  0.18850891235604972  1.0000
  H   H64       1.0  0.6361397207734907  0.04447940832476371  0.22983287905726033  1.0000
  C   C97       1.0  0.7627341080606806  0.20207087783452113  0.23472276196545433  1.0000
  C   C98       1.0  0.7804037524520648  0.1968218002224382  0.25326100498805865  1.0000
  C   C99       1.0  0.8072658482852394  0.21539677357405976  0.2531309814017297  1.0000
  C   C100      1.0  0.8168677210592328  0.2395814149055549  0.2348994808876454  1.0000
  C   C101      1.0  0.7991472354579775  0.2449816901945712  0.21682697869545342  1.0000
  C   C102      1.0  0.7723360641675304  0.22620292890091767  0.2163492571084946  1.0000
  H   H65       1.0  0.7735052101395231  0.17823404007677224  0.2669818342534564  1.0000
  H   H66       1.0  0.8208083203558492  0.2109335375579154  0.26698673045895793  1.0000
  H   H67       1.0  0.8061480040747513  0.2635045403886534  0.20283921195308915  1.0000
  H   H68       1.0  0.7589004958167068  0.23049217744755426  0.2018119285732629  1.0000
  C   C103      1.0  0.6927647388077868  0.13444774100074752  0.4525608436021515  1.0000
  C   C104      1.0  0.6998009246531417  0.14947005576441816  0.48521560142763215  1.0000
  C   C105      1.0  0.6958472674726559  0.13760032563315397  0.5203880931864988  1.0000
  C   C106      1.0  0.684981904533122  0.11053662714095207  0.5232257100718957  1.0000
  C   C107      1.0  0.6778907376275514  0.09549832865701542  0.49059633990674345  1.0000
  C   C108      1.0  0.6816045175050452  0.10735241313274665  0.4554210736025152  1.0000
  H   H69       1.0  0.7085204900887985  0.17045001844851845  0.483293536135049  1.0000
  H   H70       1.0  0.7015864362653461  0.14945138408046407  0.5452265205986749  1.0000
  H   H71       1.0  0.6695083174874585  0.07455069806158138  0.49245440758061015  1.0000
  H   H72       1.0  0.6761549401619095  0.09556444464667323  0.4305139820430855  1.0000
  C   C109      1.0  0.14932947699122254  0.5785772091134697  0.7903770414291897  1.0000
  C   C110      1.0  0.14222747112205308  0.5521716514759007  0.7936428412659323  1.0000
  C   C111      1.0  0.14717458659959878  0.5393122757012089  0.7645916025956055  1.0000
  C   C112      1.0  0.1596889532117291  0.5528951690012395  0.7322357511512162  1.0000
  C   C113      1.0  0.16677446212212832  0.5793198077818632  0.7288972131686382  1.0000
  C   C114      1.0  0.1614515466566277  0.5921012596513638  0.7577693796092393  1.0000
  H   H73       1.0  0.13279426634807348  0.5415624553728409  0.8187166832994528  1.0000
  H   H74       1.0  0.1415286859387792  0.5189611945401352  0.7674466877492988  1.0000
  H   H75       1.0  0.17648685085409987  0.5899704870871813  0.7039837656255946  1.0000
  H   H76       1.0  0.1670871460739334  0.6124786749574402  0.7550369278972648  1.0000
  C   C115      1.0  0.1671501571068689  0.6017610005013092  0.23833865520835362  1.0000
  C   C116      1.0  0.14583710701670846  0.5972596607406216  0.2603716932892117  1.0000
  C   C117      1.0  0.13491800746076119  0.5761134111527925  0.2852370970360875  1.0000
  C   C118      1.0  0.1448601567294686  0.5589821622663507  0.28791143657896884  1.0000
  C   C119      1.0  0.16602555526299403  0.5632655538270257  0.2655721223402388  1.0000
  C   C120      1.0  0.1772712797800108  0.5847521904819893  0.2410620933352336  1.0000
  H   H77       1.0  0.13772342601044402  0.6100742626468306  0.2584290830802167  1.0000
  H   H78       1.0  0.11853134500277007  0.5729066032234921  0.3023690667951351  1.0000
  H   H79       1.0  0.17386048823973654  0.5502049994981417  0.2675147386261209  1.0000
  H   H80       1.0  0.19375114069192403  0.5881060859398185  0.22408472912372193  1.0000
  C   C121      1.0  0.13012549969799203  0.6740933998475518  0.048767653780651024  1.0000
  C   C122      1.0  0.11463320769858222  0.6682900034260763  0.016692246790158464  1.0000
  C   C123      1.0  0.1258276861001636  0.672697269941585  0.9809059453467669  1.0000
  C   C124      1.0  0.15273349046948792  0.683179612191296  0.9768686131332238  1.0000
  C   C125      1.0  0.16817887995961886  0.6888931649214458  0.008935803849653423  1.0000
  C   C126      1.0  0.15696169970125018  0.6842504720313606  0.04467727636884254  1.0000
  H   H81       1.0  0.0938670855218234  0.6605286929279656  0.019534911267985126  1.0000
  H   H82       1.0  0.11371162412715351  0.6683162796339563  0.9565202632513428  1.0000
  H   H83       1.0  0.18901076655293322  0.6970255306064636  0.0061357713802563385  1.0000
  H   H84       1.0  0.16913080932723745  0.6888787537453113  0.06905256071450983  1.0000
  C   C127      1.0  0.43197348679854103  0.8620802670269908  0.7115798524667001  1.0000
  C   C128      1.0  0.45448337495466046  0.860315489759057  0.7054742070288569  1.0000
  C   C129      1.0  0.46912733753393193  0.8593480610334998  0.7355395110987636  1.0000
  C   C130      1.0  0.4610486503623351  0.85960534824383  0.7719692164822172  1.0000
  C   C131      1.0  0.43857804297276987  0.8614904841605201  0.7780781919775611  1.0000
  C   C132      1.0  0.4242159424446708  0.8630087750251445  0.7479921658484083  1.0000
  H   H85       1.0  0.46064858502851436  0.8596424175888429  0.6774089499977374  1.0000
  H   H86       1.0  0.48632327068751163  0.8577826222790516  0.7305294142123417  1.0000
  H   H87       1.0  0.43244642382848825  0.8619699254132297  0.8062344981200277  1.0000
  H   H88       1.0  0.40709486687268687  0.8646845765678419  0.7529601866587752  1.0000
  C   C133      1.0  0.2739288572890552  0.8023968052795466  0.7578797451759082  1.0000
  C   C134      1.0  0.267801890023893  0.7883982747906968  0.7245907458299576  1.0000
  C   C135      1.0  0.2464088432013228  0.7627571797188806  0.7229337576253048  1.0000
  C   C136      1.0  0.23094949622757943  0.7506761041474168  0.7544822353558116  1.0000
  C   C137      1.0  0.2370894816768443  0.7646601373952492  0.7877997597694617  1.0000
  C   C138      1.0  0.2584342023340218  0.7903588554205744  0.7894260462557348  1.0000
  H   H89       1.0  0.2794676065082084  0.7973125837772048  0.700063296546648  1.0000
  H   H90       1.0  0.2418318297508275  0.7521610625861017  0.6969894049866008  1.0000
  H   H91       1.0  0.22538790272034565  0.7557063610700923  0.812304159833563  1.0000
  H   H92       1.0  0.2629540889943663  0.8009708170589875  0.8153530616999458  1.0000
  C   C139      1.0  0.45275331544058117  0.8921519256097543  0.2622141862544781  1.0000
  C   C140      1.0  0.47743215240198283  0.9037130645345722  0.2453523772388454  1.0000
  C   C141      1.0  0.4894915954548193  0.8888962812151073  0.23751452492709643  1.0000
  C   C142      1.0  0.4770071931887215  0.8624088504955316  0.24673706056552233  1.0000
  C   C143      1.0  0.45236585491961573  0.8508251252355975  0.2637573290658968  1.0000
  C   C144      1.0  0.44018374281677514  0.8656247627624265  0.271342481198634  1.0000
  H   H93       1.0  0.4873096546729211  0.9242161245880547  0.23829427632634553  1.0000
  H   H94       1.0  0.5085318524517736  0.8980280818689929  0.22461154526961521  1.0000
  H   H95       1.0  0.44259461412503  0.8303244494864952  0.2709010623275867  1.0000
  H   H96       1.0  0.42117016886959624  0.8565620388247546  0.2843454219015312  1.0000
  C   C145      1.0  0.27709130347467387  0.7962878281255699  0.26602348237081797  1.0000
  C   C146      1.0  0.26774153184813415  0.7748852478578566  0.24159133627984822  1.0000
  C   C147      1.0  0.24078550372416938  0.7586572733861395  0.2352975609812044  1.0000
  C   C148      1.0  0.22274442160678443  0.7634073314147457  0.25377744612685443  1.0000
  C   C149      1.0  0.23208687061545427  0.7848340283812718  0.2781534494698048  1.0000
  C   C150      1.0  0.2590530803023473  0.8011666094826054  0.28431408817884785  1.0000
  H   H97       1.0  0.28149413468854784  0.7710398822095302  0.22701784770540595  1.0000
  H   H98       1.0  0.2339401785201454  0.7426789791120846  0.2158003372167233  1.0000
  H   H99       1.0  0.21830509187230496  0.7886973858344287  0.2926152566238507  1.0000
  H   H100      1.0  0.26581098589090263  0.817344714013672  0.3034596602996686  1.0000
  C   C151      1.0  0.35955511276200863  0.8926709251611341  0.46489031461804653  1.0000
  C   C152      1.0  0.3348692981648936  0.8703851259452504  0.4658377095778119  1.0000
  C   C153      1.0  0.32238710607868837  0.8602773495659232  0.5001767891729517  1.0000
  C   C154      1.0  0.33456057073652196  0.872185461316284  0.5337530715431373  1.0000
  C   C155      1.0  0.3592813775774032  0.8943875689085875  0.5327776408696242  1.0000
  C   C156      1.0  0.3716478790495223  0.9046147066108949  0.49851832808099805  1.0000
  H   H101      1.0  0.3253507731975782  0.8610471972625052  0.4401446636788357  1.0000
  H   H102      1.0  0.3032167534737139  0.8431037036371215  0.5006787199594362  1.0000
  H   H103      1.0  0.36880292295831724  0.9038085527097347  0.5583485181477711  1.0000
  H   H104      1.0  0.39072551068541866  0.9219091254769765  0.49795816719658026  1.0000
  C   C157      1.0  0.6133963572626628  0.6313125145189042  0.7538601187806183  1.0000
  C   C158      1.0  0.6003277054472709  0.6095416686817464  0.7308073930772134  1.0000
  C   C159      1.0  0.608060331474444  0.5905324830788953  0.7294920104006629  1.0000
  C   C160      1.0  0.6286079788373773  0.5927565009380841  0.7516748183570257  1.0000
  C   C161      1.0  0.6413710047267795  0.6142524160355707  0.7753256340241237  1.0000
  C   C162      1.0  0.6338578157861712  0.6335033675513798  0.7762359471473933  1.0000
  H   H105      1.0  0.5842173252583062  0.6072842466126223  0.7140624287127778  1.0000
  H   H106      1.0  0.5979731595051254  0.5738863109551903  0.7113011416280836  1.0000
  H   H107      1.0  0.6572759839077071  0.6162591197696132  0.7924289749015881  1.0000
  H   H108      1.0  0.6440481478476271  0.6502408621302437  0.7942433419762682  1.0000
  C   C163      1.0  0.6488463887961793  0.6134550730376555  0.21665591617912877  1.0000
  C   C164      1.0  0.6267790970149222  0.6163250672578948  0.21222596911160221  1.0000
  C   C165      1.0  0.6197680456924564  0.628845043760576  0.2395334531516698  1.0000
  C   C166      1.0  0.6350934338293398  0.6391486198976393  0.27131001703984314  1.0000
  C   C167      1.0  0.6570749698386987  0.6361087844218816  0.27585547214988065  1.0000
  C   C168      1.0  0.6638664409246352  0.6232225037840143  0.2487993290439168  1.0000
  H   H109      1.0  0.6151349597104065  0.6090654809301354  0.18735791155230755  1.0000
  H   H110      1.0  0.6028771956647865  0.6311168199630467  0.2355890431038369  1.0000
  H   H111      1.0  0.6691939656581989  0.6442260688785719  0.30016181967389755  1.0000
  H   H112      1.0  0.6812484446295287  0.6217379976355601  0.25221508454935593  1.0000
  C   C169      1.0  0.6951037813619398  0.5563186422646232  0.9555788277775142  1.0000
  C   C170      1.0  0.6724770627927955  0.532071656516955  0.9594825303316801  1.0000
  C   C171      1.0  0.6640945005765251  0.5209470569793675  0.9950305222182753  1.0000
  C   C172      1.0  0.6782288620877606  0.5338258493925004  0.02705720116029134  1.0000
  C   C173      1.0  0.7010517464336571  0.5579428640016189  0.023101339185139888  1.0000
  C   C174      1.0  0.709313577817026  0.569174703015744  0.9875782761056114  1.0000
  H   H113      1.0  0.6613472090974787  0.5219347430968553  0.9351454433773795  1.0000
  H   H114      1.0  0.6464555241393735  0.5022603260740076  0.9977260269364441  1.0000
  H   H115      1.0  0.7124045152658662  0.567911373053765  0.04735987074498564  1.0000
  H   H116      1.0  0.7269145567529743  0.5878806385799441  0.9848762289034022  1.0000
  C   C175      1.0  0.40195800556002015  0.37177602580703506  0.274771081664033  1.0000
  C   C176      1.0  0.38013443210159553  0.3750467827564887  0.27972494615290483  1.0000
  C   C177      1.0  0.3752521204911529  0.39087186385081346  0.2553750837498585  1.0000
  C   C178      1.0  0.39193269863822744  0.4032012063632602  0.22532544607365454  1.0000
  C   C179      1.0  0.4139368020876242  0.4002341169636616  0.22065242093531742  1.0000
  C   C180      1.0  0.41907839124740953  0.3848370679618759  0.24540195609965787  1.0000
  H   H117      1.0  0.3667283326598417  0.3649663831453897  0.30228204116375773  1.0000
  H   H118      1.0  0.3581763485867164  0.3928443175470526  0.25928361906160347  1.0000
  H   H119      1.0  0.4270145713983979  0.40968346161170666  0.19756169481176508  1.0000
  H   H120      1.0  0.4359195582307825  0.38249564204373643  0.2412014700674614  1.0000
  C   C181      1.0  0.5582180103176917  0.4354038137816815  0.24970632619279523  1.0000
  C   C182      1.0  0.5712549901212787  0.45272844437944515  0.22038832376876483  1.0000
  C   C183      1.0  0.598251304134513  0.46987329108414594  0.22197313041856565  1.0000
  C   C184      1.0  0.6123483854563614  0.4699388216021132  0.2530925592919478  1.0000
  C   C185      1.0  0.5993248100867872  0.452491789402884  0.28235949139914535  1.0000
  C   C186      1.0  0.5723117358339683  0.43518302343073584  0.2806654906388591  1.0000
  H   H121      1.0  0.5604327139637553  0.452865495658849  0.1962777793370148  1.0000
  H   H122      1.0  0.6081099616884509  0.4830316720484253  0.19913490221269461  1.0000
  H   H123      1.0  0.6101665867702925  0.452479679575959  0.306527358428791  1.0000
  H   H124      1.0  0.562398917105659  0.4218740580082572  0.30339212778148716  1.0000
  C   C187      1.0  0.41732223636939697  0.3747501684651822  0.7568906460025565  1.0000
  C   C188      1.0  0.41092704489717385  0.38427714439378413  0.7886744659909469  1.0000
  C   C189      1.0  0.39526988498524157  0.3960458846431031  0.786122144738804  1.0000
  C   C190      1.0  0.38532678512249624  0.39792097365218954  0.75176389088476  1.0000
  C   C191      1.0  0.3918683815218433  0.388560305574901  0.7199094141412297  1.0000
  C   C192      1.0  0.40801562544511016  0.37729799156086935  0.7223550691052072  1.0000
  H   H125      1.0  0.417830292521424  0.3822295528512236  0.8155683727931928  1.0000
  H   H126      1.0  0.3902609709079728  0.4029587477591374  0.8108965655401859  1.0000
  H   H127      1.0  0.38419342294540293  0.38977437648936325  0.6932184776893997  1.0000
  H   H128      1.0  0.4126208250334377  0.3699188319021258  0.6976966358077848  1.0000
  C   C193      1.0  0.5692059771295974  0.42948468557881786  0.7128193481754069  1.0000
  C   C194      1.0  0.5867932332017253  0.4563897828010129  0.7144154698840016  1.0000
  C   C195      1.0  0.6062381796102058  0.4667505253892283  0.7417909387735664  1.0000
  C   C196      1.0  0.6085486977317838  0.4502064644731857  0.7673837660515298  1.0000
  C   C197      1.0  0.5909651997712518  0.4232658913874432  0.7657728474260425  1.0000
  C   C198      1.0  0.5712196309515364  0.41292412923089467  0.7387239041171625  1.0000
  H   H129      1.0  0.5853267518427339  0.46935601062727483  0.6945667205060002  1.0000
  H   H130      1.0  0.619472121534353  0.4875503123800457  0.7429316624937904  1.0000
  H   H131      1.0  0.5925946623273245  0.4103370917913477  0.7855191706711274  1.0000
  H   H132      1.0  0.5577952533774722  0.392123224232871  0.7376817417078656  1.0000
  C   C199      1.0  0.4620468746293617  0.3345217286680517  0.5353386228790338  1.0000
  C   C200      1.0  0.44894383344807937  0.33658785879496683  0.5040788444301715  1.0000
  C   C201      1.0  0.4609091227033409  0.3426966624265291  0.46877175441923385  1.0000
  C   C202      1.0  0.4862012570113849  0.34690664028260026  0.46444624056479883  1.0000
  C   C203      1.0  0.49904832653727615  0.34416751393001377  0.49548152703800297  1.0000
  C   C204      1.0  0.48694040304189984  0.33770859753012156  0.5306321717126219  1.0000
  H   H133      1.0  0.4295463843476479  0.3338577963299662  0.5073177990844507  1.0000
  H   H134      1.0  0.450713402798009  0.3445938507589718  0.4451116446734464  1.0000
  H   H135      1.0  0.5184948776225019  0.34703696724185257  0.49232524796767546  1.0000
  H   H136      1.0  0.49689416667183783  0.3352866933759816  0.5541581522060279  1.0000
  C   C205      1.0  0.41566866777741796  0.02245869582360276  0.7759692102992283  1.0000
  C   C206      1.0  0.41974332549504945  0.0292106293652016  0.7383439561745426  1.0000
  C   C207      1.0  0.4103945830745421  0.009528271619209105  0.7109943512009133  1.0000
  C   C208      1.0  0.3971662589785313  0.9829306358956237  0.7208925783423922  1.0000
  C   C209      1.0  0.3935025546595674  0.9761946733046801  0.7585153700514509  1.0000
  C   C210      1.0  0.40259131041781415  0.9958708831080864  0.7858454323188304  1.0000
  H   H137      1.0  0.429671406021667  0.04956045194538805  0.7303071548045733  1.0000
  H   H138      1.0  0.41330686102192016  0.014969766586648614  0.681971834268512  1.0000
  H   H139      1.0  0.3832907821600582  0.9558498620299523  0.7665869349798073  1.0000
  H   H140      1.0  0.39933457777367115  0.9904370713152829  0.8148829418899957  1.0000
  C   C211      1.0  0.5653156473569881  0.13053009531582316  0.7671023700900592  1.0000
  C   C212      1.0  0.5592558938590081  0.13689568791506287  0.7325413737912064  1.0000
  C   C213      1.0  0.574073718850165  0.13838252576547075  0.7010434937865825  1.0000
  C   C214      1.0  0.5947113094296645  0.13314356200855032  0.7038811276192337  1.0000
  C   C215      1.0  0.6002562375141784  0.12607901948330125  0.7382644451028487  1.0000
  C   C216      1.0  0.5857929416393363  0.12506915127488336  0.7698106963140372  1.0000
  H   H141      1.0  0.5435228890896239  0.14117781293508477  0.7302211353667726  1.0000
  H   H142      1.0  0.5696479824385313  0.1438275264599938  0.6744930768116468  1.0000
  H   H143      1.0  0.615828112773174  0.12160134346185668  0.740680463909986  1.0000
  H   H144      1.0  0.5904786223085394  0.1200041218253609  0.7964729762746239  1.0000
  C   C217      1.0  0.47065830093942335  0.2033986973277585  0.7393558840601792  1.0000
  C   C218      1.0  0.49382989179831605  0.22180726470124537  0.7563287362156008  1.0000
  C   C219      1.0  0.5022023231515688  0.24867984656805875  0.7535155580584944  1.0000
  C   C220      1.0  0.4877212496878714  0.25760905826871355  0.7334666582462248  1.0000
  C   C221      1.0  0.4646337422646485  0.23921665825318292  0.7162512888405257  1.0000
  C   C222      1.0  0.4562175501599564  0.21230452873658776  0.7191508993880068  1.0000
  H   H145      1.0  0.5054201223666984  0.2153790435041655  0.771415147968434  1.0000
  H   H146      1.0  0.5201810488808537  0.26272304045361466  0.7667243347109207  1.0000
  H   H147      1.0  0.453276025843933  0.2457227674503834  0.7007061580280182  1.0000
  H   H148      1.0  0.4382965531562997  0.19828297360945335  0.7057908318164927  1.0000
  C   C223      1.0  0.41641023687789447  0.03183496350603762  0.25730010597464276  1.0000
  C   C224      1.0  0.4118071907106376  0.015577874297480095  0.288231940408846  1.0000
  C   C225      1.0  0.39306820424860345  0.9888659742547314  0.2869322841108055  1.0000
  C   C226      1.0  0.3782655822462413  0.9781463265249977  0.25485749809722325  1.0000
  C   C227      1.0  0.38262062486391313  0.9944555076310645  0.22399078774316317  1.0000
  C   C228      1.0  0.4018341740961918  0.021130938572301132  0.22500347765800977  1.0000
  H   H149      1.0  0.4228662392273361  0.023677697759255673  0.3134247735886829  1.0000
  H   H150      1.0  0.38970821705705644  0.9766504069866864  0.31104860988173055  1.0000
  H   H151      1.0  0.37127202365279394  0.986352298833954  0.1990326519316536  1.0000
  H   H152      1.0  0.40524272296381775  0.033353808830212536  0.2008779620650992  1.0000
  C   C229      1.0  0.5879318887785082  0.12074328941543686  0.2617886466969062  1.0000
  C   C230      1.0  0.5608405690923712  0.11044934539893922  0.26030704266273563  1.0000
  C   C231      1.0  0.5500943906075628  0.12334678265862581  0.2404983293742798  1.0000
  C   C232      1.0  0.5663991348297994  0.1467400091288092  0.222033554301127  1.0000
  C   C233      1.0  0.5935178741458095  0.15704664805040788  0.22332825989276878  1.0000
  C   C234      1.0  0.6042891107991877  0.14407948144813204  0.24313156502477978  1.0000
  H   H153      1.0  0.5481038093848555  0.09246111741722088  0.27476553296521805  1.0000
  H   H154      1.0  0.5292050212106865  0.11529091757377878  0.23982591200225778  1.0000
  H   H155      1.0  0.6062411684474956  0.1751752406669567  0.20918047242847349  1.0000
  H   H156      1.0  0.6251765419441453  0.1521730055238976  0.24416271444582802  1.0000
  C   C235      1.0  0.4552256081784779  0.20738543478225965  0.23318997780525325  1.0000
  C   C236      1.0  0.48165415559446567  0.2227566599265687  0.24191315127700402  1.0000
  C   C237      1.0  0.49133020703625213  0.24820782211963727  0.25617352008923366  1.0000
  C   C238      1.0  0.47483881517159976  0.2587617178029186  0.2617678258933953  1.0000
  C   C239      1.0  0.4483991811432825  0.24341183500341743  0.25312821556710247  1.0000
  C   C240      1.0  0.4386961053929813  0.21789729002826091  0.2390090365677571  1.0000
  H   H157      1.0  0.4946401430378426  0.21501437789744599  0.23772983963324046  1.0000
  H   H158      1.0  0.5118043805701898  0.259794294313224  0.26282577287528247  1.0000
  H   H159      1.0  0.43540504516130996  0.2511442537108423  0.25722890135139825  1.0000
  H   H160      1.0  0.4182259069295839  0.2062505411927152  0.23233884195148716  1.0000
  C   C241      1.0  0.4651729807836865  0.11710541014577291  0.035144208318786486  1.0000
  C   C242      1.0  0.46722557346974963  0.14167085842774677  0.03192113111766538  1.0000
  C   C243      1.0  0.4696289639366969  0.15295860088106775  0.9965564045583121  1.0000
  C   C244      1.0  0.4699982107793165  0.13984623778708485  0.9641205236858085  1.0000
  C   C245      1.0  0.4680564277326414  0.11535142836539371  0.9674129243177235  1.0000
  C   C246      1.0  0.46560892872485204  0.10405690154320427  0.0027283411256748824  1.0000
  H   H161      1.0  0.46678251607998406  0.15187802297217998  0.05660067114338137  1.0000
  H   H162      1.0  0.4710416343658409  0.17188333997236346  0.9943005038344543  1.0000
  H   H163      1.0  0.4682000632180974  0.10498790595076729  0.9427300027467496  1.0000
  H   H164      1.0  0.4639587951392928  0.08501657684214915  0.004902929128999478  1.0000
  C   C247      1.0  0.8885576958482566  0.4453676559877726  0.7185540057625811  1.0000
  C   C248      1.0  0.8955216886627771  0.4258434442006567  0.7189455893081306  1.0000
  C   C249      1.0  0.8888500165753367  0.4086546685703208  0.749334677516909  1.0000
  C   C250      1.0  0.8749666245709697  0.4107975894458721  0.7793379779689077  1.0000
  C   C251      1.0  0.867878194399264  0.4302160919109189  0.7787521719702876  1.0000
  C   C252      1.0  0.8746834982246128  0.4474722091822973  0.7485323264411117  1.0000
  H   H165      1.0  0.90632276379454  0.4241349817174847  0.6958938054236468  1.0000
  H   H166      1.0  0.8944863654431013  0.3938116621741204  0.7496126039530541  1.0000
  H   H167      1.0  0.8570601273938926  0.43189949668664446  0.8018233598504639  1.0000
  H   H168      1.0  0.8689207601971141  0.4622078514003553  0.7483279292860748  1.0000
  C   C253      1.0  0.04933977318171842  0.6350415387426455  0.7726501398218597  1.0000
  C   C254      1.0  0.03321092723010033  0.6339512194593074  0.7431643777893123  1.0000
  C   C255      1.0  0.006609045906399658  0.6145760136738927  0.7420289479463371  1.0000
  C   C256      1.0  0.9956510361805261  0.5964196845513636  0.7709234290950626  1.0000
  C   C257      1.0  0.011797659627625023  0.5975515654900462  0.8004056752702452  1.0000
  C   C258      1.0  0.03851883647602003  0.6164851402222878  0.8010562664498325  1.0000
  H   H169      1.0  0.04128014262981963  0.6482722026898582  0.7211415006306683  1.0000
  H   H170      1.0  0.994458507127899  0.6141313854950711  0.7193144088731064  1.0000
  H   H171      1.0  0.0035479530553861327  0.5839754556516286  0.8232549321555798  1.0000
  H   H172      1.0  0.05054832683087703  0.6172390248646614  0.8241306774439003  1.0000
  C   C259      1.0  0.7727273048180342  0.552938515957183  0.7495181820784322  1.0000
  C   C260      1.0  0.7704173077958435  0.5335684133861185  0.7741303465899741  1.0000
  C   C261      1.0  0.7890762038753805  0.5253192977286867  0.7737556345199341  1.0000
  C   C262      1.0  0.8102702239667812  0.5362645864204544  0.7488319209065037  1.0000
  C   C263      1.0  0.8126279245637418  0.5557115148435858  0.7243376951827055  1.0000
  C   C264      1.0  0.7939828947031221  0.5640086322638251  0.7247792269432197  1.0000
  H   H173      1.0  0.7543988864901054  0.5250236438006347  0.7935555637117295  1.0000
  H   H174      1.0  0.7871902545034544  0.5103697156717106  0.7929501639094433  1.0000
  H   H175      1.0  0.8288328272650516  0.5643666248326035  0.7050867458262166  1.0000
  H   H176      1.0  0.7960751795870368  0.5791092395549916  0.7057226225091066  1.0000
  C   C265      1.0  0.887786862994094  0.4636571803273387  0.255548532034063  1.0000
  C   C266      1.0  0.8871508179692746  0.44828458822592065  0.2253616324691023  1.0000
  C   C267      1.0  0.886011096137838  0.4241719537897372  0.23120002784454852  1.0000
  C   C268      1.0  0.8851569257562815  0.415144231470476  0.2673420324784299  1.0000
  C   C269      1.0  0.8859318004535238  0.4305774352776178  0.2975240520029701  1.0000
  C   C270      1.0  0.887390083782046  0.4548315131672267  0.2916902589746773  1.0000
  H   H177      1.0  0.8874713147228088  0.45501243686607235  0.1973170647144186  1.0000
  H   H178      1.0  0.8853931637649697  0.4124226410833571  0.20775680520316708  1.0000
  H   H179      1.0  0.8852558929287281  0.42368360015034456  0.3255635039400692  1.0000
  H   H180      1.0  0.8878210852438972  0.46650370308801076  0.31511896155415614  1.0000
  C   C271      1.0  0.9956912941421615  0.6182023225732503  0.2862757092443388  1.0000
  C   C272      1.0  0.9986107934216665  0.5961294067005183  0.28722386694355695  1.0000
  C   C273      1.0  0.02278800725340978  0.598239428193756  0.278355033110197  1.0000
  C   C274      1.0  0.04427044273061979  0.6223193375869654  0.2680475628814417  1.0000
  C   C275      1.0  0.04131176726640977  0.6443890852392808  0.2665346504533697  1.0000
  C   C276      1.0  0.017127894799457977  0.6423098123962634  0.2756920086299512  1.0000
  H   H181      1.0  0.9823535074959518  0.5774811103794895  0.29534184807780195  1.0000
  H   H182      1.0  0.02492028532551819  0.5810935082840832  0.2798324493823486  1.0000
  H   H183      1.0  0.057775317123309244  0.6631342761648152  0.25927127064366673  1.0000
  H   H184      1.0  0.015099759856183947  0.6595300217076506  0.27513796789831174  1.0000
  C   C277      1.0  0.8121746309334525  0.5582420160826712  0.2808596726813667  1.0000
  C   C278      1.0  0.7852320051256761  0.5484529975544344  0.28517773583158473  1.0000
  C   C279      1.0  0.7709048120662338  0.5536379459765111  0.25854763121505614  1.0000
  C   C280      1.0  0.7834561630761249  0.5690235365120405  0.22743981835491214  1.0000
  C   C281      1.0  0.8103659582275933  0.5785792953710698  0.22294387071109767  1.0000
  C   C282      1.0  0.8246492685519792  0.5731516471367205  0.24936577868384177  1.0000
  H   H185      1.0  0.775347178367156  0.5369266945098071  0.3094235848911473  1.0000
  H   H186      1.0  0.7502562763714153  0.5461927822589624  0.2624506258663199  1.0000
  H   H187      1.0  0.8203043285445423  0.5906473585866107  0.1991184232459874  1.0000
  H   H188      1.0  0.8454113919330853  0.5811752654443306  0.2458531037238932  1.0000
  C   C283      1.0  0.8947004143012517  0.537845542231364  0.47685004158774014  1.0000
  C   C284      1.0  0.9161687719531928  0.5628241035786724  0.48151807453751466  1.0000
  C   C285      1.0  0.9227118098847429  0.5740650860754366  0.5172318228103858  1.0000
  C   C286      1.0  0.9078827565787803  0.560529540576641  0.5485687678915607  1.0000
  C   C287      1.0  0.8857908389288811  0.5360304810292912  0.5435716572738477  1.0000
  C   C288      1.0  0.8794664728033272  0.5246194658226547  0.5080166970923577  1.0000
  H   H189      1.0  0.9280747756174984  0.5732609506532602  0.4577954277073574  1.0000
  H   H190      1.0  0.9397003779492712  0.593171249931391  0.5207137221796128  1.0000
  H   H191      1.0  0.8736987670907089  0.5257767619865941  0.5672228728814334  1.0000
  H   H192      1.0  0.8626421563911693  0.5054011768158255  0.5046354545369476  1.0000
  N   N1        1.0  0.2901207687100428  0.8640649244260287  0.20336277481165577  1.0000
  C   C289      1.0  0.2892874616339897  0.8856374392698497  0.1837724860964025  1.0000
  C   C290      1.0  0.294116403260369  0.8700988668324169  0.24342852771596357  1.0000
  C   C291      1.0  0.31189163867412145  0.8611655557306627  0.18863940486489383  1.0000
  C   C292      1.0  0.2653128627186655  0.8394602180175571  0.1977088621805414  1.0000
  H   H193      1.0  0.286728348409271  0.8820381638798126  0.1533346528209436  1.0000
  H   H194      1.0  0.3076536301294524  0.9045415077644109  0.18812447900778584  1.0000
  H   H195      1.0  0.2729345789863323  0.8881936455436681  0.19403433034006268  1.0000
  H   H196      1.0  0.29547729552097207  0.8545803224343743  0.25903808463366484  1.0000
  H   H197      1.0  0.312459594719379  0.8887912453393223  0.24855322935037694  1.0000
  H   H198      1.0  0.2778550451015462  0.8719332747314886  0.2557829646915202  1.0000
  H   H199      1.0  0.31366178771778036  0.8456308124478924  0.2037686775234695  1.0000
  H   H200      1.0  0.3308295262500292  0.8796078202550836  0.19153042802915188  1.0000
  H   H201      1.0  0.30918177054709584  0.8558200891068031  0.1587188686823875  1.0000
  H   H202      1.0  0.24850333195875954  0.8404517246747145  0.2098304476891919  1.0000
  H   H203      1.0  0.26574405494041864  0.8226895434908879  0.21107865154602412  1.0000
  H   H204      1.0  0.2612557956127283  0.8346838154810479  0.16771272227699652  1.0000
  N   N2        1.0  0.2751920274505009  0.4594320764664278  0.9014329989304924  1.0000
  C   C293      1.0  0.3007286085203993  0.48136285470357776  0.91283266330756  1.0000
  C   C294      1.0  0.2574667123037046  0.4694440454404291  0.8918364228821598  1.0000
  C   C295      1.0  0.26402834871032543  0.4404870228583133  0.9323139250727147  1.0000
  C   C296      1.0  0.278625086349592  0.4464099401608562  0.8686412410203272  1.0000
  H   H205      1.0  0.3097074196696357  0.49616843623098666  0.890319525168779  1.0000
  H   H206      1.0  0.31465518983850477  0.47445913537723244  0.9197570870796111  1.0000
  H   H207      1.0  0.29897527117265255  0.49141327614291386  0.9378841035231583  1.0000
  H   H208      1.0  0.23799868825100445  0.4533856381827174  0.8831076286711886  1.0000
  H   H209      1.0  0.25451980880480696  0.47960682881739997  0.9157931502303608  1.0000
  H   H210      1.0  0.2653448790175782  0.4835789325129738  0.86828926532984  1.0000
  H   H211      1.0  0.24482195221045433  0.42355197418112184  0.9247088021602569  1.0000
  H   H212      1.0  0.26126987019173725  0.4496371469663485  0.9576519065942468  1.0000
  H   H213      1.0  0.27708485617921796  0.4326402106725269  0.9400310753522986  1.0000
  H   H214      1.0  0.25973374465239263  0.42989126089745566  0.8590700922390199  1.0000
  H   H215      1.0  0.2916591511662114  0.43836742562587994  0.8749618438975719  1.0000
  H   H216      1.0  0.2873351102646539  0.46020366611549757  0.8449005453432457  1.0000
  N   N3        1.0  0.45673679920678156  0.6385344530479364  0.753692625484949  1.0000
  C   C297      1.0  0.47556393154754495  0.6652057927470127  0.7663020100505707  1.0000
  C   C298      1.0  0.45804827971561257  0.619287877775345  0.7785195408856815  1.0000
  C   C299      1.0  0.4632433189177327  0.6348301614919422  0.7153566763877214  1.0000
  C   C300      1.0  0.43010754614823027  0.6347688303250237  0.7545244728823383  1.0000
  H   H217      1.0  0.47532230259539937  0.6803015139745113  0.748007754306864  1.0000
  H   H218      1.0  0.4958793719275671  0.6686653902564758  0.7658392231098984  1.0000
  H   H219      1.0  0.47134517693299727  0.6687850554013316  0.7951322823159571  1.0000
  H   H220      1.0  0.4443071277366276  0.5989040113365571  0.7695713145971439  1.0000
  H   H221      1.0  0.477944493776457  0.621686010284586  0.7786707347892807  1.0000
  H   H222      1.0  0.4530497130851722  0.6212585579154652  0.8076830720821342  1.0000
  H   H223      1.0  0.46286354908819693  0.6492406741640536  0.695831995838494  1.0000
  H   H224      1.0  0.449495220422369  0.614878047776059  0.7048322652134476  1.0000
  H   H225      1.0  0.4830715184423056  0.6372220608411657  0.7137821524894277  1.0000
  H   H226      1.0  0.41550011239824153  0.6147647179899761  0.7451698039320157  1.0000
  H   H227      1.0  0.42843022785334217  0.6489518728257773  0.7359830713384319  1.0000
  H   H228      1.0  0.42451778216034824  0.6373881853668942  0.783060018108993  1.0000
  N   N4        1.0  0.5890142677771473  0.8268994159797296  0.8880256124093763  1.0000
  C   C301      1.0  0.6039430104826384  0.8512530335946694  0.8665087230078105  1.0000
  C   C302      1.0  0.6072137083347176  0.8195435431058711  0.9048588979112373  1.0000
  C   C303      1.0  0.5708506370096921  0.8058329810807147  0.8630466686359468  1.0000
  C   C304      1.0  0.5741257921958133  0.8310757676159399  0.9176350626005212  1.0000
  H   H229      1.0  0.5907631271472765  0.8573600482012443  0.8537866815064115  1.0000
  H   H230      1.0  0.6150770120726076  0.8488485809897888  0.8433567914710148  1.0000
  H   H231      1.0  0.6177691570734126  0.8677354805261468  0.8843550040784695  1.0000
  H   H232      1.0  0.6187756761332688  0.8163318113742842  0.8831800289088733  1.0000
  H   H233      1.0  0.6212096094803068  0.8351151793306215  0.923774786805229  1.0000
  H   H234      1.0  0.5966102027794935  0.8012547980081929  0.9213819400085795  1.0000
  H   H235      1.0  0.5590261248832921  0.7871726233117602  0.8782612827317053  1.0000
  H   H236      1.0  0.581467820674694  0.8022392272411538  0.8402938411017473  1.0000
  H   H237      1.0  0.5571232393895941  0.8109697808242118  0.8493776607546707  1.0000
  H   H238      1.0  0.5623211996202286  0.8131064785169587  0.9343287176870749  1.0000
  H   H239      1.0  0.5605636087953304  0.8371820419072978  0.9059113244401702  1.0000
  H   H240      1.0  0.5872950924820538  0.8468134221176936  0.937009813813242  1.0000
  N   N5        1.0  0.43436587932582976  0.47780329261934884  0.27906889230064463  1.0000
  C   C305      1.0  0.4366544544827911  0.456673049620124  0.297603424464863  1.0000
  C   C306      1.0  0.449173754268529  0.5023581015814175  0.3001631775215063  1.0000
  C   C307      1.0  0.40665257720675163  0.47069689019888106  0.27746917413074457  1.0000
  C   C308      1.0  0.4449048957838667  0.4814535716172927  0.24092646848462865  1.0000
  H   H241      1.0  0.4256115475059913  0.4378434060871041  0.2824318023788147  1.0000
  H   H242      1.0  0.4287841539434175  0.4532557856673983  0.32641386405295725  1.0000
  H   H243      1.0  0.45728704598541053  0.4612298048145865  0.299094746657456  1.0000
  H   H244      1.0  0.4475799678198291  0.5186122930009479  0.2871448732043781  1.0000
  H   H245      1.0  0.44183758562983744  0.5002848654444584  0.32915187850356953  1.0000
  H   H246      1.0  0.47027457984508214  0.5085967320234758  0.3014881916613891  1.0000
  H   H247      1.0  0.39798126503219106  0.46784521858200506  0.3057077365891158  1.0000
  H   H248      1.0  0.3949165988643202  0.45219437369084364  0.26184163304043  1.0000
  H   H249      1.0  0.4041623746963287  0.48614110407700106  0.26345787116677283  1.0000
  H   H250      1.0  0.4342966707533522  0.46318714492128227  0.22439717349677815  1.0000
  H   H251      1.0  0.46586936695706227  0.4871031223173329  0.2410005403110968  1.0000
  H   H252      1.0  0.44309646380398754  0.4969635537134211  0.22593760941032737  1.0000
  N   N6        1.0  0.4958813424107008  0.6500724062031544  0.19457361243615273  1.0000
  C   C309      1.0  0.4948303064046088  0.6724613542829021  0.17810266344572642  1.0000
  C   C310      1.0  0.47719390970587877  0.6256622255636788  0.17562550682072736  1.0000
  C   C311      1.0  0.48910142386661926  0.6480718539456372  0.2343946489827189  1.0000
  C   C312      1.0  0.5224937658112638  0.6541134297199724  0.1903624572803733  1.0000
  H   H253      1.0  0.5089580450841038  0.6911029679437436  0.1919754360190702  1.0000
  H   H254      1.0  0.47511674779374097  0.6702677209688751  0.18109336856667163  1.0000
  H   H255      1.0  0.49985175782820995  0.6746390727415049  0.14804023537487987  1.0000
  H   H256      1.0  0.4568480974618007  0.6218220487272509  0.17845669039824985  1.0000
  H   H257      1.0  0.481688541539425  0.6263983407049044  0.14549517512796473  1.0000
  H   H258      1.0  0.4777654322741109  0.6085534007528314  0.18768767952769747  1.0000
  H   H259      1.0  0.46888059488675654  0.6442338728870949  0.23868959650212923  1.0000
  H   H260      1.0  0.5023764472233279  0.6664130172639611  0.24939266244879468  1.0000
  H   H261      1.0  0.49062761677878075  0.6319944653662486  0.24805289927280297  1.0000
  H   H262      1.0  0.5283649590991905  0.6558621399109837  0.16069869035762865  1.0000
  H   H263      1.0  0.5240617839846197  0.6376175368670575  0.2025334280345776  1.0000
  H   H264      1.0  0.5371018760033484  0.6722655424943685  0.20459602947728553  1.0000
  N   N7        1.0  0.6978338456740697  0.4630385049737316  0.7535281142227619  1.0000
  C   C313      1.0  0.7210995294052813  0.4636305040675884  0.7372847065180953  1.0000
  C   C314      1.0  0.6741110987515043  0.43884030972067095  0.742166561563801  1.0000
  C   C315      1.0  0.6962024078748589  0.48585197863517177  0.7402279015095158  1.0000
  C   C316      1.0  0.6997979054952416  0.46385111732225204  0.7944837330728712  1.0000
  H   H265      1.0  0.7392908272167  0.48181462347589443  0.7449920159781173  1.0000
  H   H266      1.0  0.7201959251757469  0.4629190670315132  0.7064102280118899  1.0000
  H   H267      1.0  0.7231567766943836  0.4468538931221386  0.74702004842636  1.0000
  H   H268      1.0  0.6562325607691192  0.4378350878010903  0.754197905362803  1.0000
  H   H269      1.0  0.6717575302040739  0.437678597242132  0.7114589086569292  1.0000
  H   H270      1.0  0.6745846445898374  0.4211534956692167  0.7516790915349658  1.0000
  H   H271      1.0  0.6784740019828163  0.4855026751524446  0.7513053292373971  1.0000
  H   H272      1.0  0.6951576098585014  0.4862171785616427  0.7094099109869766  1.0000
  H   H273      1.0  0.7134118828171979  0.5045740510674054  0.7489890901908132  1.0000
  H   H274      1.0  0.6825802304999204  0.46357997002353085  0.8075887235789985  1.0000
  H   H275      1.0  0.7174130243927056  0.48183454506240264  0.8041343330535681  1.0000
  H   H276      1.0  0.7008515455580583  0.44680979354382927  0.8055580962629182  1.0000
  N   N8        1.0  0.10717231926574679  0.3844960132797804  0.23863087806034902  1.0000
  C   C317      1.0  0.1138824388676627  0.4120822528725552  0.23580305069706123  1.0000
  C   C318      1.0  0.1125439092187808  0.3790942008993087  0.2767126567951173  1.0000
  C   C319      1.0  0.12313264618003443  0.37947570155688487  0.21186369813166417  1.0000
  C   C320      1.0  0.0791893792581204  0.3675226965646552  0.23029379549692808  1.0000
  H   H277      1.0  0.11043008519977296  0.4171093304518218  0.2073935559468067  1.0000
  H   H278      1.0  0.13474628023230711  0.42557079541085074  0.2426840001629244  1.0000
  H   H279      1.0  0.10183511936816182  0.4163161571172964  0.25520257841885013  1.0000
  H   H280      1.0  0.13350906839156884  0.39155757083064574  0.2839270957859234  1.0000
  H   H281      1.0  0.10102766312656944  0.3830422159683157  0.2976696121540168  1.0000
  H   H282      1.0  0.10743986082129545  0.3583706054789417  0.2801000030430595  1.0000
  H   H283      1.0  0.11887716099595395  0.3589095683148262  0.2134896956089596  1.0000
  H   H284      1.0  0.1443523769277287  0.3923895819689886  0.21735024425566776  1.0000
  H   H285      1.0  0.11945226344124533  0.38327382517847336  0.18284448724855748  1.0000
  H   H286      1.0  0.07420795395702014  0.3715797002698546  0.20219889206132682  1.0000
  H   H287      1.0  0.06676195144297623  0.37069487607061846  0.2505852872009924  1.0000
  H   H288      1.0  0.07339191637921383  0.3465111365963701  0.23165457787627736  1.0000
  N   N9        1.0  0.14001384316463927  0.517918009545825  0.5765643755762855  1.0000
  C   C321      1.0  0.1463255813480644  0.5175228286931088  0.5368970438055328  1.0000
  C   C322      1.0  0.15519546594486291  0.5094912724197251  0.599419830721567  1.0000
  C   C323      1.0  0.11188789331743028  0.49995177554633596  0.5826859727919351  1.0000
  C   C324      1.0  0.14666653798145365  0.544640013429657  0.5875595099872387  1.0000
  H   H289      1.0  0.13535743212044535  0.523940564228455  0.5187417877665974  1.0000
  H   H290      1.0  0.14128300547043748  0.4975176009835617  0.5278336482405198  1.0000
  H   H291      1.0  0.16747352442981572  0.5304604712963251  0.5313023955304892  1.0000
  H   H292      1.0  0.15102559308536911  0.5098061918991922  0.6294099495963102  1.0000
  H   H293      1.0  0.1503035341396343  0.4892365008326262  0.5927404252823215  1.0000
  H   H294      1.0  0.17653325940459905  0.5223531545683477  0.5954309266099311  1.0000
  H   H295      1.0  0.10648760826536187  0.4996210104803803  0.6123994965731003  1.0000
  H   H296      1.0  0.10625576093159692  0.4795570107951009  0.5749080712747082  1.0000
  H   H297      1.0  0.09976898147632347  0.5056513322670837  0.5658511710818707  1.0000
  H   H298      1.0  0.14247994901884017  0.5454902322669917  0.6176203107142365  1.0000
  H   H299      1.0  0.1353893379693884  0.5516773634756169  0.5713051620860671  1.0000
  H   H300      1.0  0.16776321775614478  0.5586722102226167  0.5832897434977083  1.0000
  N   N10       1.0  0.4987781454896172  0.04697491498024695  0.7881528298384127  1.0000
  C   C325      1.0  0.49700340543686783  0.05410499134171981  0.8269512386362602  1.0000
  C   C326      1.0  0.4935054880039964  0.06340410640485596  0.7626758547151881  1.0000
  C   C327      1.0  0.4793248432380221  0.019213954678466955  0.7820271354080927  1.0000
  C   C328      1.0  0.5252597493256961  0.051316209351670736  0.7810050975335937  1.0000
  H   H301      1.0  0.47728914707768216  0.05125375376851697  0.8332096498027194  1.0000
  H   H302      1.0  0.5114189685920848  0.0749696411750815  0.8325148603005759  1.0000
  H   H303      1.0  0.5007555885188902  0.04206082023977972  0.8470443382119981  1.0000
  H   H304      1.0  0.4942637784950292  0.058380895420141694  0.7331197159799432  1.0000
  H   H305      1.0  0.4738596287435155  0.06095973635511861  0.7677926332892656  1.0000
  H   H306      1.0  0.5079990565265361  0.08445969693555112  0.7663257747835657  1.0000
  H   H307      1.0  0.4592188280277348  0.01539213652899473  0.7878326419080603  1.0000
  H   H308      1.0  0.48283749000614784  0.006169439838286106  0.8004920519268336  1.0000
  H   H309      1.0  0.47964425323212273  0.013235641541086668  0.7528141482831608  1.0000
  H   H310      1.0  0.5274108721083733  0.0464219359754339  0.751850455583079  1.0000
  H   H311      1.0  0.5299479023007717  0.039197945151447366  0.7996697885922481  1.0000
  H   H312      1.0  0.5402815553399245  0.07213367297944831  0.7856722916545205  1.0000
  N   N11       1.0  0.22517509337253233  0.685795807056643  0.2873638814843286  1.0000
  C   C329      1.0  0.22723537365773042  0.6888403826845747  0.24655651276534327  1.0000
  C   C330      1.0  0.2505996961665293  0.6913489687402501  0.30259587411658073  1.0000
  C   C331      1.0  0.2052280884343727  0.6587221911809371  0.296912327063944  1.0000
  C   C332      1.0  0.21779824668715567  0.704304495734191  0.30331992251658596  1.0000
  H   H313      1.0  0.23185488134187185  0.6745443583065589  0.2333974522240539  1.0000
  H   H314      1.0  0.24262607508301326  0.7087551862886423  0.23826127899915184  1.0000
  H   H315      1.0  0.20856586022405596  0.6854060841020234  0.2341979764887697  1.0000
  H   H316      1.0  0.2497386163763897  0.6891907503608968  0.3333491265207422  1.0000
  H   H317      1.0  0.25674158614649756  0.6777660007775433  0.2909560310720954  1.0000
  H   H318      1.0  0.2661280735128575  0.7116276119810793  0.2958834545573667  1.0000
  H   H319      1.0  0.18582780869736537  0.6536518159604481  0.28556282242150327  1.0000
  H   H320      1.0  0.20296024822625497  0.6555687253879544  0.32744427596699843  1.0000
  H   H321      1.0  0.21010157042584934  0.644250350411699  0.28500030653017416  1.0000
  H   H322      1.0  0.21508921376324003  0.7019434744729582  0.3339207979701403  1.0000
  H   H323      1.0  0.1992534314535458  0.7014937194571006  0.2913042277474417  1.0000
  H   H324      1.0  0.23286803344583956  0.7249272755971785  0.29762656448308683  1.0000
  N   N12       1.0  0.6177286663735927  0.5445791994541358  0.28723960024259315  1.0000
  C   C333      1.0  0.6038397180009739  0.5204721033406184  0.30962763219156086  1.0000
  C   C334      1.0  0.6141972863951292  0.537799309714267  0.24739142334942846  1.0000
  C   C335      1.0  0.6457950448882822  0.55789250131119  0.29626647641992543  1.0000
  C   C336      1.0  0.6071822742976944  0.5620820794531652  0.2955221174533867  1.0000
  H   H325      1.0  0.6057835751802957  0.5248566819250667  0.3398654636072462  1.0000
  H   H326      1.0  0.6117776962467  0.5071433960110007  0.3044029984333186  1.0000
  H   H327      1.0  0.5827085610964772  0.5094508484554733  0.30280949968496784  1.0000
  H   H328      1.0  0.6242709632868653  0.5555358989116873  0.22962180791295628  1.0000
  H   H329      1.0  0.622369064558131  0.524987482618943  0.24024193311374384  1.0000
  H   H330      1.0  0.5932636558150125  0.5272927444118236  0.23950562625309943  1.0000
  H   H331      1.0  0.6493873628456578  0.5640423269780402  0.32585499274395846  1.0000
  H   H332      1.0  0.6570382304771382  0.5756603530946475  0.2788980554397038  1.0000
  H   H333      1.0  0.6541363440030441  0.5448745343812407  0.2912418395925234  1.0000
  H   H334      1.0  0.6170702452021531  0.5802932564381664  0.27871065733656625  1.0000
  H   H335      1.0  0.6099283903187283  0.5680687166118782  0.32521570022082125  1.0000
  H   H336      1.0  0.5860112951058789  0.5526178123649725  0.28922032532651504  1.0000
  N   N13       1.0  0.6345029580318625  0.6479389416274323  0.6305111032358907  1.0000
  C   C337      1.0  0.6092671794754315  0.6248043767669569  0.6210547944559123  1.0000
  C   C338      1.0  0.6510835955865528  0.6395406418388349  0.6500395097001804  1.0000
  C   C339      1.0  0.6299749505138487  0.6654075918822524  0.654906020489391  1.0000
  C   C340      1.0  0.6475762275966588  0.6620373672222108  0.596072844592667  1.0000
  H   H337      1.0  0.5961651686370258  0.6305181078826384  0.6066620478837867  1.0000
  H   H338      1.0  0.5989286833484  0.6135795940627761  0.646386248166954  1.0000
  H   H339      1.0  0.611886815532727  0.6112850444871146  0.6023707152716814  1.0000
  H   H340      1.0  0.6703771849966795  0.6564742630388284  0.6573457084078139  1.0000
  H   H341      1.0  0.6419059233321207  0.6292601286814737  0.676512274947402  1.0000
  H   H342      1.0  0.6545469709133688  0.6259013470154291  0.6328424225943804  1.0000
  H   H343      1.0  0.6194400476251289  0.6551464128855565  0.6805761729395675  1.0000
  H   H344      1.0  0.6180236425286149  0.6726099316436046  0.6408597294518358  1.0000
  H   H345      1.0  0.6485658333553919  0.6827040638711696  0.6636784673256517  1.0000
  H   H346      1.0  0.6353221765563097  0.6684084404915412  0.580694757864614  1.0000
  H   H347      1.0  0.6514134390659001  0.6495001379004941  0.5769974281538992  1.0000
  H   H348      1.0  0.6665410990717572  0.679808472385671  0.6021472213996575  1.0000
  N   N14       1.0  0.38553246311021266  0.42914541876232865  0.07521990107033517  1.0000
  C   C341      1.0  0.3841290918605605  0.4321347191302375  0.03464898015787753  1.0000
  C   C342      1.0  0.35910658986005917  0.41737210485385  0.09136762785544303  1.0000
  C   C343      1.0  0.40220548170100484  0.45503997168848515  0.09212968872618925  1.0000
  C   C344      1.0  0.39661191218239156  0.4120453077404307  0.08295610389959562  1.0000
  H   H349      1.0  0.40368448749129165  0.44069949166373146  0.02140673362925242  1.0000
  H   H350      1.0  0.3761995075335969  0.44525161910369543  0.028025787890689866  1.0000
  H   H351      1.0  0.371209843687382  0.41308006983749523  0.020969178985503656  1.0000
  H   H352      1.0  0.35082228620616907  0.4305205077607361  0.08811063864750704  1.0000
  H   H353      1.0  0.3454850858212015  0.39845438058908617  0.07794961548435833  1.0000
  H   H354      1.0  0.3593109917672586  0.41359009092345855  0.1216194967205344  1.0000
  H   H355      1.0  0.40364175032197086  0.4534416198452634  0.12274731193103047  1.0000
  H   H356      1.0  0.3942187050245849  0.4683583452667424  0.08712745496029842  1.0000
  H   H357      1.0  0.4222939037489366  0.4646347989777784  0.08053617859570998  1.0000
  H   H358      1.0  0.39787530157123824  0.4094711470236816  0.11345344699859133  1.0000
  H   H359      1.0  0.41659497187524486  0.42028404751007803  0.0712656269566325  1.0000
  H   H360      1.0  0.3843559665409789  0.39227236155441136  0.07084023846634947  1.0000
  N   N15       1.0  0.3314032105415267  0.9477320249732885  0.6047431120530741  1.0000
  C   C345      1.0  0.35153939563094216  0.9756533204197058  0.6057487014633841  1.0000
  C   C346      1.0  0.343807038111409  0.9319181558529147  0.5963665202573786  1.0000
  C   C347      1.0  0.312084848341841  0.9433563408538919  0.5756016767567347  1.0000
  C   C348      1.0  0.31819247743758217  0.9399162767244795  0.6412185215017459  1.0000
  H   H361      1.0  0.34291753295716204  0.9882182845320936  0.6120354531027037  1.0000
  H   H362      1.0  0.36211173096492366  0.9821868032899651  0.5788183808618844  1.0000
  H   H363      1.0  0.36634514469105706  0.9795082367597538  0.6276171575758337  1.0000
  H   H364      1.0  0.3292433473389423  0.9107001952791904  0.5959244958722184  1.0000
  H   H365      1.0  0.35366896585212093  0.9370361867838335  0.5688216244532909  1.0000
  H   H366      1.0  0.35873626826550953  0.9349324937967893  0.617486331162188  1.0000
  H   H367      1.0  0.29680104091102805  0.9223664889096571  0.574028112898342  1.0000
  H   H368      1.0  0.3214274734402891  0.949046624137376  0.5477054369473894  1.0000
  H   H369      1.0  0.30216026447085825  0.9548420599742212  0.581025639545657  1.0000
  H   H370      1.0  0.3322327711708179  0.942869209115242  0.6638337087679884  1.0000
  H   H371      1.0  0.3029152256448794  0.9189227518632637  0.6415430184997104  1.0000
  H   H372      1.0  0.30873092829416254  0.9515480301575203  0.6485869715266662  1.0000
  N   N16       1.0  0.14312711557948782  0.6051618303655132  0.9446271254762417  1.0000
  C   C349      1.0  0.16404631276396994  0.6254308204482443  0.921459265565194  1.0000
  C   C350      1.0  0.1302533896024861  0.616961197238999  0.9659961586158382  1.0000
  C   C351      1.0  0.15445898091266963  0.5940797165175009  0.9704832938374489  1.0000
  C   C352      1.0  0.12380078999049939  0.5842758734356172  0.9204999383404902  1.0000
  H   H373      1.0  0.17389047405738398  0.6172396334095122  0.9041455859912751  1.0000
  H   H374      1.0  0.17900723877636396  0.6416506053049313  0.938586060834587  1.0000
  H   H375      1.0  0.15611480389753438  0.6343303448767073  0.902057927764954  1.0000
  H   H376      1.0  0.11397045619726164  0.6022554962512155  0.9833086720810004  1.0000
  H   H377      1.0  0.14422773869108974  0.6325001734956507  0.9849562012054232  1.0000
  H   H378      1.0  0.12217232460527987  0.6261890003193946  0.9472346935837697  1.0000
  H   H379      1.0  0.1391996309862956  0.5787345732101664  0.9884530527420442  1.0000
  H   H380      1.0  0.16913346413082614  0.609413613400874  0.9890397727310335  1.0000
  H   H381      1.0  0.16438481266232724  0.5851026731976131  0.9551262572110572  1.0000
  H   H382      1.0  0.10746442540473236  0.5687858663666773  0.9368480500346972  1.0000
  H   H383      1.0  0.13284830220988506  0.5748472256030365  0.9040740578301003  1.0000
  H   H384      1.0  0.11532929617029931  0.5921302677003645  0.9000321991727326  1.0000
  N   N17       1.0  0.753812909656098  0.21790180853277535  0.34933674253446223  1.0000
  C   C353      1.0  0.7515035276617771  0.19282918857964879  0.3378784230559633  1.0000
  C   C354      1.0  0.7647318136643615  0.22438293039252286  0.3872345788563442  1.0000
  C   C355      1.0  0.7277445595518707  0.2155674608761856  0.3490533627528739  1.0000
  C   C356      1.0  0.7711615898882241  0.23865213594832183  0.32316522901463784  1.0000
  H   H385      1.0  0.7419568217101341  0.18659985309706428  0.31033538397991633  1.0000
  H   H386      1.0  0.739534760244287  0.1769806057071517  0.35790880679672216  1.0000
  H   H387      1.0  0.770895332815549  0.19414248716570615  0.3360273141710024  1.0000
  H   H388      1.0  0.7519336371423451  0.20897597394979958  0.40750295617398696  1.0000
  H   H389      1.0  0.7843334452753988  0.22610758125739056  0.3884519765635964  1.0000
  H   H390      1.0  0.7667702010212942  0.24320107966259844  0.39691733164227  1.0000
  H   H391      1.0  0.7286201760996688  0.23400572992964336  0.35803082448737533  1.0000
  H   H392      1.0  0.7140194044450462  0.19972452835372936  0.36802699612092976  1.0000
  H   H393      1.0  0.7190288119008276  0.21086006737279717  0.32074454188275664  1.0000
  H   H394      1.0  0.7738063841441193  0.2579983899497201  0.33129959456865393  1.0000
  H   H395      1.0  0.7631052094145854  0.23448709322669326  0.2944807383749378  1.0000
  H   H396      1.0  0.7908376025185673  0.2405116179895202  0.3217682535389601  1.0000
  N   N18       1.0  0.5481675901676927  0.15498394728809314  0.07737935679867904  1.0000
  C   C357      1.0  0.5622639468071866  0.1779368219781852  0.1018019195285857  1.0000
  C   C358      1.0  0.5314250138025948  0.1318035986086053  0.10023412118475744  1.0000
  C   C359      1.0  0.5670702674633549  0.15041922761858334  0.056560889833381894  1.0000
  C   C360      1.0  0.5317775438128926  0.1596786562628269  0.05106927618797848  1.0000
  H   H397      1.0  0.5747567385776856  0.19597392918803996  0.08561764508343674  1.0000
  H   H398      1.0  0.5749716348608908  0.17510709590663293  0.12187538747042095  1.0000
  H   H399      1.0  0.548502517171465  0.18145184923448707  0.11870043632672844  1.0000
  H   H400      1.0  0.5205956529386736  0.11393215161560553  0.08295895114612466  1.0000
  H   H401      1.0  0.5428570895419171  0.12810777062669937  0.12153284135403877  1.0000
  H   H402      1.0  0.5165511533552503  0.1344695332011926  0.11528892951396554  1.0000
  H   H403      1.0  0.5569541410455668  0.13323988804051198  0.037824580563218385  1.0000
  H   H404      1.0  0.5795539400954094  0.14659955809618624  0.07574523177785639  1.0000
  H   H405      1.0  0.580099678763188  0.16758947219076084  0.03909650220258223  1.0000
  H   H406      1.0  0.5206767716525574  0.14261741345924503  0.032423160710315556  1.0000
  H   H407      1.0  0.5435957024446375  0.17701679737957945  0.03321668733365288  1.0000
  H   H408      1.0  0.5171856215701512  0.1630040821808127  0.06603529670115331  1.0000
  N   N19       1.0  0.6777230033905705  0.20930567639841424  0.736100315480223  1.0000
  C   C361      1.0  0.6531358781073952  0.18861626267039555  0.7525036576441944  1.0000
  C   C362      1.0  0.6789818494368385  0.20338725235766028  0.6965258723827015  1.0000
  C   C363      1.0  0.7001239380878597  0.21052535855232216  0.7561017546613059  1.0000
  C   C364      1.0  0.6786637671878543  0.23471243888053434  0.7391651474116453  1.0000
  H   H409      1.0  0.6511758824119503  0.19259877063364073  0.7821850056465611  1.0000
  H   H410      1.0  0.6520588229065831  0.1692928338204158  0.7512400487399468  1.0000
  H   H411      1.0  0.6357930012445028  0.18662881745651755  0.7374481387635092  1.0000
  H   H412      1.0  0.6622802811300444  0.20205087624887627  0.6805082133214834  1.0000
  H   H413      1.0  0.6974190563340584  0.21843120230751398  0.6832558930242943  1.0000
  H   H414      1.0  0.6784287853528524  0.18443273217021008  0.693279855326071  1.0000
  H   H415      1.0  0.7190243440669926  0.22591624507940986  0.7443572506779287  1.0000
  H   H416      1.0  0.7002713745408298  0.19178144350628204  0.7539470532796462  1.0000
  H   H417      1.0  0.6998297627469301  0.21480663281987022  0.786116467395068  1.0000
  H   H418      1.0  0.6619948609532771  0.23443378873462842  0.7244210564807818  1.0000
  H   H419      1.0  0.6969734870798195  0.2507148226652568  0.7269077107630424  1.0000
  H   H420      1.0  0.6778509963055365  0.2398542108917148  0.7686904173605043  1.0000
  N   N20       1.0  0.7268471480899853  0.09361712584531702  0.20419075197746375  1.0000
  C   C365      1.0  0.732172208497173  0.12088501454606904  0.203359121887307  1.0000
  C   C366      1.0  0.6988630843734452  0.07564527266720249  0.19712629194370732  1.0000
  C   C367      1.0  0.7338610999642167  0.08793631164149829  0.241043845235297  1.0000
  C   C368      1.0  0.742470904828294  0.08993363292633974  0.17526777404283486  1.0000
  H   H421      1.0  0.7530975323274465  0.13508267285253933  0.20852538057616404  1.0000
  H   H422      1.0  0.7208026039935308  0.1243331742682845  0.22503947187028273  1.0000
  H   H423      1.0  0.7267996577299604  0.12588248009689515  0.1762059126705165  1.0000
  H   H424      1.0  0.6939052771161209  0.05482185370140108  0.19865540771437137  1.0000
  H   H425      1.0  0.6864970530819421  0.07808242323415766  0.21817270273380274  1.0000
  H   H426      1.0  0.6928140039998796  0.07904962944852015  0.16942253498114593  1.0000
  H   H427      1.0  0.7288459279383797  0.06713291932896198  0.2434499793058446  1.0000
  H   H428      1.0  0.7230491443459662  0.09134188701090738  0.26360781461534183  1.0000
  H   H429      1.0  0.754998434448307  0.10045744314344565  0.2469092324045041  1.0000
  H   H430      1.0  0.7376187385909231  0.09399451102181586  0.14708360389596686  1.0000
  H   H431      1.0  0.7388507312709678  0.0695251158261748  0.17532285810284443  1.0000
  H   H432      1.0  0.7637089902077328  0.10317992716098012  0.17970097203760538  1.0000
  N   N21       1.0  0.8214890782959131  0.49867874862856854  0.21793784378992806  1.0000
  C   C369      1.0  0.8217174826196894  0.47884169168449836  0.19314980031923148  1.0000
  C   C370      1.0  0.8453438528706141  0.5240159481228516  0.21160025750416867  1.0000
  C   C371      1.0  0.82070231971979  0.49061331631525557  0.2569856656561106  1.0000
  C   C372      1.0  0.7983692789449917  0.5013228559497376  0.21015058878787418  1.0000
  H   H433      1.0  0.8226071160922214  0.4843951224031274  0.1634318206463942  1.0000
  H   H434      1.0  0.8040355857132298  0.45941241481202644  0.19715606525913926  1.0000
  H   H435      1.0  0.8389909093128018  0.4764518410713108  0.19870315901818597  1.0000
  H   H436      1.0  0.846222000516465  0.531233048226169  0.18280675674683514  1.0000
  H   H437      1.0  0.8463663661646138  0.5391984717104513  0.2309518322835014  1.0000
  H   H438      1.0  0.8631543574925347  0.522427132859652  0.21591902903220206  1.0000
  H   H439      1.0  0.8207327393036655  0.5052314044347558  0.2765309046679845  1.0000
  H   H440      1.0  0.8379086040894838  0.4884596110385282  0.26374137221627647  1.0000
  H   H441      1.0  0.8029808093618094  0.4715684690079552  0.26288642634894677  1.0000
  H   H442      1.0  0.7984126483827791  0.5076412503584978  0.1810108901256167  1.0000
  H   H443      1.0  0.7977474061190115  0.5161696949010612  0.22856273998734014  1.0000
  H   H444      1.0  0.7799616947000674  0.48259407357609524  0.2146641827621518  1.0000
  N   N22       1.0  0.5441503188659289  0.3609519172875171  0.19889544120625358  1.0000
  C   C373      1.0  0.5576495643364213  0.3762325724507429  0.23227019148372685  1.0000
  C   C374      1.0  0.52425907724862  0.33425600792023735  0.21006926983384702  1.0000
  C   C375      1.0  0.563328310370276  0.3597327347864019  0.1738455913612365  1.0000
  C   C376      1.0  0.5313389160574326  0.3736121979621361  0.17948681395845303  1.0000
  H   H445      1.0  0.5729652982002642  0.39647405072050174  0.22494185825187113  1.0000
  H   H446      1.0  0.5670984087684737  0.367017948139762  0.24812187077937495  1.0000
  H   H447      1.0  0.5438192196743666  0.3779487360386265  0.2513957894954878  1.0000
  H   H448      1.0  0.5136320335447857  0.3220178452664459  0.18570938170309503  1.0000
  H   H449      1.0  0.5329999575132166  0.3240709807799539  0.2253177941857511  1.0000
  H   H450      1.0  0.5094486095630065  0.33456225257654404  0.2288602414746382  1.0000
  H   H451      1.0  0.5538141094158037  0.3481867599796439  0.1484434888863155  1.0000
  H   H452      1.0  0.5734327783962971  0.35041409725813555  0.18778917258235608  1.0000
  H   H453      1.0  0.5785100375541327  0.37961593839457725  0.16479172953712082  1.0000
  H   H454      1.0  0.5221317077289676  0.3634571915973316  0.15310041660513732  1.0000
  H   H455      1.0  0.5454107763801801  0.3944328571190264  0.17295552020644472  1.0000
  H   H456      1.0  0.5156769956435462  0.3734448017996865  0.19690014138474313  1.0000
  N   N23       1.0  0.9284191194694026  0.5005524772696667  0.5711689118471672  1.0000
  C   C377      1.0  0.9221191436609002  0.47370353828713996  0.5616450434254496  1.0000
  C   C378      1.0  0.949785021563212  0.5116000747958532  0.598605924266748  1.0000
  C   C379      1.0  0.9051406127103663  0.4999177087944684  0.5872585857289995  1.0000
  C   C380      1.0  0.9365122238491704  0.5169865795625537  0.537365723485029  1.0000
  H   H457      1.0  0.9059313446204417  0.4647613835426356  0.5411656464979799  1.0000
  H   H458      1.0  0.915917937838991  0.4609299855766296  0.5867688294849448  1.0000
  H   H459      1.0  0.9392232998458179  0.473357332363276  0.5493809209496068  1.0000
  H   H460      1.0  0.9555783692687194  0.5321844418924484  0.6053934627856608  1.0000
  H   H461      1.0  0.9438410324668965  0.5002879619982424  0.6250992167236293  1.0000
  H   H462      1.0  0.9674255786431775  0.511540347993782  0.5880023012689468  1.0000
  H   H463      1.0  0.8979515587400267  0.4871264337380312  0.6121098824278478  1.0000
  H   H464      1.0  0.8887982699370099  0.49228138869914584  0.5670714128339709  1.0000
  H   H465      1.0  0.9094541510835075  0.5197161074506186  0.596130430875709  1.0000
  H   H466      1.0  0.9412606451268057  0.5373509855969494  0.5437722279143239  1.0000
  H   H467      1.0  0.920778372190241  0.5093536763293609  0.5160976297195646  1.0000
  H   H468      1.0  0.9540758197987822  0.5180121678482642  0.5243901524693932  1.0000
  N   N24       1.0  0.306324828930613  0.5093583447141581  0.2921287820775588  1.0000
  C   C381      1.0  0.31020929296043137  0.5170328671089622  0.2525577926927912  1.0000
  C   C382      1.0  0.31055632614813117  0.48692989003574344  0.297548411765006  1.0000
  C   C383      1.0  0.27945139011824693  0.5019342233992696  0.3033878149076309  1.0000
  C   C384      1.0  0.3251847414717048  0.5315331002745244  0.3149046928492205  1.0000
  H   H469      1.0  0.3067132729264044  0.5335994554770604  0.24722584172671924  1.0000
  H   H470      1.0  0.29662416608680664  0.500577922740515  0.23452265592325208  1.0000
  H   H471      1.0  0.3304261745102723  0.5230941832829882  0.2432973720147562  1.0000
  H   H472      1.0  0.3077036807776488  0.4804739150264532  0.327038618688749  1.0000
  H   H473      1.0  0.2967186122994814  0.4698787138223929  0.2807040645656079  1.0000
  H   H474      1.0  0.3305931456817131  0.49179304034410426  0.28911037002948275  1.0000
  H   H475      1.0  0.26480806378600796  0.4852444974161548  0.28667046678386815  1.0000
  H   H476      1.0  0.27541081831517406  0.5182894532438274  0.2994512877943661  1.0000
  H   H477      1.0  0.27569158519887743  0.49588226485205616  0.3330575314613108  1.0000
  H   H478      1.0  0.3228231192964456  0.5264364503122321  0.34495631041544766  1.0000
  H   H479      1.0  0.32265667159828126  0.5488678858668082  0.31134413254392146  1.0000
  H   H480      1.0  0.3456430022509633  0.5374666401547308  0.30699581830045014  1.0000
  N   N25       1.0  0.47823174946793134  0.2755883646940783  0.3974963510169002  1.0000
  C   C385      1.0  0.4646810252756244  0.2837377616202646  0.42431558983892326  1.0000
  C   C386      1.0  0.4875193965739036  0.2596610204607979  0.41677725947624156  1.0000
  C   C387      1.0  0.5007225355768851  0.29897517669738616  0.3814147956462241  1.0000
  C   C388      1.0  0.4601246863135895  0.26004734583541045  0.3674552603139661  1.0000
  H   H481      1.0  0.4473194967765596  0.2666898353706372  0.43669513983166275  1.0000
  H   H482      1.0  0.4579725554309402  0.29636535379892837  0.41095094770022156  1.0000
  H   H483      1.0  0.4777828496117545  0.2953056536467085  0.4474902224797955  1.0000
  H   H484      1.0  0.49785629389047464  0.25322649670218156  0.39728339301157545  1.0000
  H   H485      1.0  0.5013144885724126  0.2708855097969107  0.4395150917636738  1.0000
  H   H486      1.0  0.4710456275520057  0.24186826144419238  0.4293620323577309  1.0000
  H   H487      1.0  0.4943368605504443  0.3114163663756054  0.3669225997985897  1.0000
  H   H488      1.0  0.5112707042039626  0.29370153484526146  0.360594580581804  1.0000
  H   H489      1.0  0.5147938256719938  0.3113502669767175  0.4031980427620272  1.0000
  H   H490      1.0  0.45306326631667554  0.2716047922073646  0.3518929122125034  1.0000
  H   H491      1.0  0.4427540702469295  0.24233193496376132  0.378448745302596  1.0000
  H   H492      1.0  0.4697852020746956  0.25362516434037874  0.3467157201766228  1.0000
  N   N26       1.0  0.5040591190050052  0.4339233087029624  0.7679952501456152  1.0000
  C   C389      1.0  0.5095506681100446  0.41309442381629113  0.779358002512328  1.0000
  C   C390      1.0  0.5287291649046344  0.4591081828678402  0.7664983408785757  1.0000
  C   C391      1.0  0.48611525833262775  0.435493355117246  0.7951382560212358  1.0000
  C   C392      1.0  0.4917933576100809  0.4278659132204921  0.7309054552260021  1.0000
  H   H493      1.0  0.5224304704753824  0.41085180638960334  0.7589274048479607  1.0000
  H   H494      1.0  0.49128443647442493  0.39389629283636746  0.7815919152117118  1.0000
  H   H495      1.0  0.5194141713659822  0.4172752554282915  0.8067991173461512  1.0000
  H   H496      1.0  0.5253841992774569  0.47536001606042044  0.758182196612373  1.0000
  H   H497      1.0  0.5387185883465755  0.4641918020460494  0.7939079286166386  1.0000
  H   H498      1.0  0.5425570993358243  0.45842956708698857  0.746074962708118  1.0000
  H   H499      1.0  0.49471535206404854  0.44009095251379743  0.8234579868305292  1.0000
  H   H500      1.0  0.46742649331731506  0.4166090713611819  0.7968909474365238  1.0000
  H   H501      1.0  0.48120846846751664  0.45077405869389114  0.7872603311986988  1.0000
  H   H502      1.0  0.473236915608315  0.4088766318227  0.7309896047151054  1.0000
  H   H503      1.0  0.5047656045602099  0.42647645457045175  0.7097380685632568  1.0000
  H   H504      1.0  0.4871479306042941  0.4430438860740998  0.7215650064001672  1.0000
  N   N27       1.0  0.09829981521873715  0.3783435148175295  0.7980413554556444  1.0000
  C   C393      1.0  0.1117260735197883  0.40667680774871845  0.8054726716466198  1.0000
  C   C394      1.0  0.11542982245826994  0.37220051218723105  0.7753762160324176  1.0000
  C   C395      1.0  0.07379171613899378  0.37057091358940586  0.7777629164123914  1.0000
  C   C396      1.0  0.09228287008341562  0.3640361369975261  0.8336361966082975  1.0000
  H   H505      1.0  0.09943620197779093  0.4122065266819584  0.8224104964147465  1.0000
  H   H506      1.0  0.11617664720056561  0.41790728401663213  0.7791961885750022  1.0000
  H   H507      1.0  0.13056961697109926  0.41348648195466237  0.8200754060492935  1.0000
  H   H508      1.0  0.1343478419741863  0.37834638082841815  0.7894853866249959  1.0000
  H   H509      1.0  0.10610532254763243  0.350988688162917  0.7692500685425178  1.0000
  H   H510      1.0  0.12032365913218081  0.3827269420897974  0.7483224752960187  1.0000
  H   H511      1.0  0.06318799333268355  0.3493814725113309  0.7712176930537161  1.0000
  H   H512      1.0  0.0774955955676609  0.3814050269698425  0.751079091277629  1.0000
  H   H513      1.0  0.060415156267479855  0.3749539868868994  0.7941407393543028  1.0000
  H   H514      1.0  0.07943698580310153  0.3684160603181419  0.8512962922180041  1.0000
  H   H515      1.0  0.1103396760316222  0.36950530445299373  0.8496811485126788  1.0000
  H   H516      1.0  0.08204543484350206  0.34256346757410716  0.8291059443321172  1.0000
  N   N28       1.0  0.8346474298547067  0.26164445942588666  0.10007207534081111  1.0000
  C   C397      1.0  0.8405985225986904  0.24980102958269187  0.13207080629433296  1.0000
  C   C398      1.0  0.8243216416974061  0.2783377083467136  0.1137004177013892  1.0000
  C   C399      1.0  0.8150059694518711  0.2408900954068133  0.07616075014193423  1.0000
  C   C400      1.0  0.8586515064533401  0.2776298878722821  0.0782946358447848  1.0000
  H   H517      1.0  0.8487587359279599  0.23731658981587797  0.12301995521253185  1.0000
  H   H518      1.0  0.8229479418025667  0.23761193510751777  0.14919034998319536  1.0000
  H   H519      1.0  0.855175163282379  0.2650042264691836  0.1508505604718276  1.0000
  H   H520      1.0  0.8058674397479779  0.2669306681966158  0.12952317887776674  1.0000
  H   H521      1.0  0.8384655505383938  0.293834724824014  0.1324697808173592  1.0000
  H   H522      1.0  0.8206311388782233  0.2885267570980084  0.09043052712704971  1.0000
  H   H523      1.0  0.8222730563272301  0.22807631951547738  0.06511316679377684  1.0000
  H   H524      1.0  0.8101008558487693  0.24935756335887477  0.051895149396362236  1.0000
  H   H525      1.0  0.7966290467153292  0.228410447507247  0.09169839760960388  1.0000
  H   H526      1.0  0.8547930375351905  0.2865995523706045  0.053632658271012844  1.0000
  H   H527      1.0  0.8674312699328063  0.26595034175746063  0.06808618424126796  1.0000
  H   H528      1.0  0.8736587018751757  0.2939759341664042  0.0951166071965264  1.0000
  N   N29       1.0  0.4654045405172637  0.9903686773383136  0.2575960055350654  1.0000
  C   C401      1.0  0.442452077378957  0.9751350356141848  0.23365255308755356  1.0000
  C   C402      1.0  0.4753851337583377  0.018577771821507882  0.2518201711201848  1.0000
  C   C403      1.0  0.4859789992362123  0.9840726620495193  0.24804920516975937  1.0000
  C   C404      1.0  0.45779255605139163  0.9836108859246836  0.2969118272919166  1.0000
  H   H529      1.0  0.4266522152833608  0.9795894933013258  0.23981804238718818  1.0000
  H   H530      1.0  0.43416389848613324  0.9537475208931752  0.237835499458399  1.0000
  H   H531      1.0  0.44746663003402215  0.9793567834601136  0.20373322569134722  1.0000
  H   H532      1.0  0.4928663423296583  0.030685907128973344  0.2692026191403142  1.0000
  H   H533      1.0  0.48096179888663587  0.02430620127633243  0.2223329669819009  1.0000
  H   H534      1.0  0.46050147922469553  0.02411388161924144  0.2591761581486011  1.0000
  H   H535      1.0  0.5035423500832146  0.9950783464078612  0.2657433131603206  1.0000
  H   H536      1.0  0.49216777097678455  0.9888077731888123  0.21855348860385668  1.0000
  H   H537      1.0  0.4790598288878568  0.9629152283681394  0.25210545284575436  1.0000
  H   H538      1.0  0.47449944771207625  0.9949568711494454  0.31588580359856444  1.0000
  H   H539      1.0  0.45061655400813827  0.9625193839974631  0.3022722562317448  1.0000
  H   H540      1.0  0.4418668863486868  0.9875155162818725  0.3048913060110921  1.0000
  N   N30       1.0  0.04008944981382579  0.6338889497017547  0.14766451345779927  1.0000
  C   C405      1.0  0.047203381256050794  0.660214835714018  0.133957655281247  1.0000
  C   C406      1.0  0.03557726087947773  0.6163908792994861  0.11579640400857215  1.0000
  C   C407      1.0  0.01628718071803726  0.6234470348728868  0.17077422847252574  1.0000
  C   C408      1.0  0.06165133274451152  0.6356031276589615  0.1702125292473355  1.0000
  H   H541      1.0  0.0314134058098453  0.6598074336404854  0.11675968336346246  1.0000
  H   H542      1.0  0.06524011196422137  0.6685857417706426  0.11659962175532256  1.0000
  H   H543      1.0  0.05113668423841148  0.6739867792577089  0.1573891085623642  1.0000
  H   H544      1.0  0.05343147346324306  0.6238023870791128  0.09819175750754189  1.0000
  H   H545      1.0  0.030382009452524714  0.5964264493646361  0.12528551760344064  1.0000
  H   H546      1.0  0.019525078094091205  0.6146834566475994  0.09784796637798872  1.0000
  H   H547      1.0  0.011146822041176776  0.6041200183974191  0.18299189290239368  1.0000
  H   H548      1.0  0.9992900180481032  0.6210551299309727  0.15448317699199432  1.0000
  H   H549      1.0  0.018960651769335053  0.636630487903753  0.19450042036003917  1.0000
  H   H550      1.0  0.05717237509498879  0.616183309398161  0.18127450942128856  1.0000
  H   H551      1.0  0.06584503292719279  0.6487975960429313  0.19438630408641555  1.0000
  H   H552      1.0  0.07983422810446163  0.6433407357927994  0.15360359629935103  1.0000
  N   N31       1.0  0.8887444015016208  0.2705461767740839  0.7207457800584965  1.0000
  C   C409      1.0  0.8986763788792512  0.27166133557361627  0.758704749836827  1.0000
  C   C410      1.0  0.9098294226119974  0.27666862284197274  0.693669593816168  1.0000
  C   C411      1.0  0.879983892799718  0.2898889699896692  0.7170349682360561  1.0000
  C   C412      1.0  0.866517839984717  0.24415027369718847  0.7137722937300907  1.0000
  H   H553      1.0  0.8832062525686988  0.2669138422115488  0.7798714127440496  1.0000
  H   H554      1.0  0.9151523042236338  0.2914907641466774  0.765196855310964  1.0000
  H   H555      1.0  0.9057936213261659  0.25758640021031465  0.7624927468346806  1.0000
  H   H556      1.0  0.9031516699431054  0.2762815047743756  0.6646970872161  1.0000
  H   H557      1.0  0.9267892543639807  0.2965647114200963  0.6986837407633971  1.0000
  H   H558      1.0  0.9170331300491276  0.2625355115789368  0.6956652381536317  1.0000
  H   H559      1.0  0.8721845434106402  0.28954941162941505  0.6888535068932768  1.0000
  H   H560      1.0  0.8963395968657365  0.31006413522197146  0.7220034056267238  1.0000
  H   H561      1.0  0.8642226711564137  0.28599868630883  0.7373204896918604  1.0000
  H   H562      1.0  0.8583242417630257  0.24262830333182203  0.6855060792106754  1.0000
  H   H563      1.0  0.8504154257443056  0.23923686693507465  0.73404183278381  1.0000
  H   H564      1.0  0.8723164287174073  0.22897088980510702  0.7164829147812954  1.0000
  N   N32       1.0  0.5694747972695865  0.73799428630392  0.5899047736599601  1.0000
  C   C413      1.0  0.5600627138585265  0.737910730716312  0.6280014933384177  1.0000
  C   C414      1.0  0.5958153633489351  0.7410369627602332  0.5916163475344839  1.0000
  C   C415      1.0  0.5704734920485661  0.7598814889688429  0.5686494593819084  1.0000
  C   C416      1.0  0.5515661023848482  0.7131002247905909  0.5713366927444183  1.0000
  H   H565      1.0  0.5400787747283695  0.7353019909130352  0.6280854112138069  1.0000
  H   H566      1.0  0.5729940052353081  0.7564025327440534  0.642985326815606  1.0000
  H   H567      1.0  0.5592273863041194  0.7217287077908302  0.6448392460141643  1.0000
  H   H568      1.0  0.603100646639274  0.7400145075711881  0.5634628464864768  1.0000
  H   H569      1.0  0.6100841777641829  0.7599493797991588  0.604450031841678  1.0000
  H   H570      1.0  0.5958426332513712  0.7252383130101387  0.6084519679195882  1.0000
  H   H571      1.0  0.5775854636678573  0.7605174170625332  0.5397906571579302  1.0000
  H   H572      1.0  0.5837430437213675  0.7789856907724675  0.5819682904569187  1.0000
  H   H573      1.0  0.5508562949945546  0.758079561474987  0.5667676847560489  1.0000
  H   H574      1.0  0.5580419443253827  0.7124228848723859  0.5424696184097663  1.0000
  H   H575      1.0  0.5313778558970657  0.7098417408805285  0.569882921585517  1.0000
  H   H576      1.0  0.5506600007185662  0.6962367083598359  0.5863765487434587  1.0000
  N   N33       1.0  0.9671324917061308  0.4290642653745964  0.2732467021724728  1.0000
  C   C417      1.0  0.9599323129503063  0.4428704596654117  0.3009371315733482  1.0000
  C   C418      1.0  0.9957968205083739  0.44103583338482816  0.27154699313058267  1.0000
  C   C419      1.0  0.9572265652808315  0.43091348290503906  0.23638905917006744  1.0000
  C   C420      1.0  0.9554652343786135  0.40132411832263803  0.28398982145124857  1.0000
  H   H577      1.0  0.9383607892954751  0.4341450557349745  0.30275680344400835  1.0000
  H   H578      1.0  0.9682022559620677  0.46383669971447905  0.2935751787320161  1.0000
  H   H579      1.0  0.9670818412653028  0.4418599583859482  0.3290997329898421  1.0000
  H   H580      1.0  0.0017231567884820774  0.4311847794012848  0.25046423465116935  1.0000
  H   H581      1.0  0.0053221575404112  0.462066172257196  0.26390762337233065  1.0000
  H   H582      1.0  0.003995005928947737  0.4395525274402392  0.29865899249137673  1.0000
  H   H583      1.0  0.9356008944519434  0.4217138104544227  0.23660086727706714  1.0000
  H   H584      1.0  0.9625369385785632  0.42086635959448543  0.21473547538041204  1.0000
  H   H585      1.0  0.965294570199705  0.45156562571845454  0.22752117274563466  1.0000
  H   H586      1.0  0.9592163855725686  0.3900177770102224  0.2626177482548789  1.0000
  H   H587      1.0  0.9339615611837861  0.39197086920479945  0.2871590214007908  1.0000
  H   H588      1.0  0.9634622259426231  0.39899856215349133  0.31074376696984046  1.0000
  N   N34       1.0  0.6835206955134263  0.03236815596448046  0.6485081145647182  1.0000
  C   C421      1.0  0.6792854216920348  0.018618476189470694  0.6844007053872917  1.0000
  C   C422      1.0  0.6642216789712229  0.0411023558068693  0.6442216615118443  1.0000
  C   C423      1.0  0.6804908409913111  0.014504580111512679  0.6177774192202881  1.0000
  C   C424      1.0  0.710018014368227  0.0553666491321745  0.6476082294201825  1.0000
  H   H589      1.0  0.682643570230654  0.03194146040411147  0.7082218801349355  1.0000
  H   H590      1.0  0.6927156583129546  0.010696209132585708  0.6879380300326876  1.0000
  H   H591      1.0  0.6589458187007372  0.002029718278975246  0.6870770343908401  1.0000
  H   H592      1.0  0.6668153500256139  0.051573513684504815  0.6174668479255397  1.0000
  H   H593      1.0  0.6439381953277026  0.024351557813470995  0.6449968872703638  1.0000
  H   H594      1.0  0.6661275866594977  0.0547086377534469  0.6668895897071896  1.0000
  H   H595      1.0  0.6833028891275181  0.02425927103089485  0.5903050709410926  1.0000
  H   H596      1.0  0.6606771544518119  0.9969221349063621  0.6179711119616171  1.0000
  H   H597      1.0  0.6948904052553311  0.007647828068591211  0.61987822747726  1.0000
  H   H598      1.0  0.725213415520607  0.049605334838251615  0.650260891162393  1.0000
  H   H599      1.0  0.712878998203105  0.06900745810948018  0.6708521028753403  1.0000
  H   H600      1.0  0.7136181153986054  0.06657058649452782  0.6212401684783591  1.0000
  N   N35       1.0  0.3167056768593348  0.43006358891964375  0.6796712231690502  1.0000
  C   C425      1.0  0.31672921188781833  0.45503573194729807  0.6830677699354302  1.0000
  C   C426      1.0  0.2989831390454295  0.41440980393183824  0.6494027489208077  1.0000
  C   C427      1.0  0.30768218587765755  0.4154278218712345  0.7149214290189636  1.0000
  C   C428      1.0  0.3433957318636067  0.4353136528795915  0.6714429664453682  1.0000
  H   H601      1.0  0.330020534206485  0.4674249283208909  0.7055374084395264  1.0000
  H   H602      1.0  0.29699375669101324  0.45185395752204727  0.6900940650087436  1.0000
  H   H603      1.0  0.3231953168713633  0.466569420510575  0.6569142052183111  1.0000
  H   H604      1.0  0.2985036415140143  0.3954162204825643  0.6461893760150843  1.0000
  H   H605      1.0  0.27867979266273885  0.4100900851114856  0.6549127233113776  1.0000
  H   H606      1.0  0.3051885319085928  0.4248619240042599  0.6223347378442996  1.0000
  H   H607      1.0  0.30735595134164284  0.3964186056533134  0.7134776653831053  1.0000
  H   H608      1.0  0.2878600942864007  0.41159854273418806  0.7226968220902774  1.0000
  H   H609      1.0  0.3209977522199802  0.4265190665160567  0.7379620473592344  1.0000
  H   H610      1.0  0.3442058687028747  0.41688529019475246  0.669657983042338  1.0000
  H   H611      1.0  0.35728364112450905  0.4471740869691083  0.6937514099084687  1.0000
  H   H612      1.0  0.3508855799274805  0.446116811063139  0.6448666828731464  1.0000
  N   N36       1.0  0.7816165397244114  0.5955158019362794  0.857621350848561  1.0000
  C   C429      1.0  0.7629614808306474  0.5672080257705021  0.858559870369018  1.0000
  C   C430      1.0  0.8040878112646879  0.6005651522482389  0.8338891391932033  1.0000
  C   C431      1.0  0.7905525731851857  0.604829696522032  0.8957781822194457  1.0000
  C   C432      1.0  0.7686370526419894  0.6093071667658106  0.84219101422268  1.0000
  H   H613      1.0  0.7553533342633203  0.5598049428913016  0.8303359628389473  1.0000
  H   H614      1.0  0.7459508862204972  0.5626187376038632  0.8767612693904252  1.0000
  H   H615      1.0  0.772163370814104  0.5560108293579057  0.8691658475224222  1.0000
  H   H616      1.0  0.8141098659801225  0.5900741991864865  0.8442398383789361  1.0000
  H   H617      1.0  0.7978285691342659  0.5938891856994605  0.8048291310531167  1.0000
  H   H618      1.0  0.8187003487249276  0.6217351980559302  0.832645571372144  1.0000
  H   H619      1.0  0.7738432990161165  0.601160505809468  0.9141575602833772  1.0000
  H   H620      1.0  0.8046309898698603  0.6261645125711027  0.8962506232488995  1.0000
  H   H621      1.0  0.800292093574868  0.5946893413259972  0.9083537334303  1.0000
  H   H622      1.0  0.781982123959359  0.6307786421539995  0.8414363048477844  1.0000
  H   H623      1.0  0.7512606759352275  0.6054912979810176  0.8590685215380884  1.0000
  H   H624      1.0  0.7618756091429337  0.6028807234058582  0.8132253193999852  1.0000
  N   N37       1.0  0.14097481527246875  0.7299475972579961  0.722218928716192  1.0000
  C   C433      1.0  0.11976728726700207  0.7269554791291419  0.7471584459367514  1.0000
  C   C434      1.0  0.16643302628819984  0.7491803951704332  0.7380962391947794  1.0000
  C   C435      1.0  0.1378024859753833  0.7389579916265109  0.6853420325057109  1.0000
  C   C436      1.0  0.13987414513161794  0.7045330130021563  0.7182945958646898  1.0000
  H   H625      1.0  0.10028520760288118  0.7123016848333592  0.7362168729005735  1.0000
  H   H626      1.0  0.11989810411883994  0.7456956155079385  0.7509930134643813  1.0000
  H   H627      1.0  0.12142628285116626  0.7198483840932867  0.7751241291160995  1.0000
  H   H628      1.0  0.18288302064095066  0.7517361735287781  0.7200838563047106  1.0000
  H   H629      1.0  0.168044020669408  0.768617306627504  0.7417568213968779  1.0000
  H   H630      1.0  0.1695811641465887  0.7427344164665122  0.765743806802667  1.0000
  H   H631      1.0  0.11879041070261374  0.7247473709492854  0.6726727377202654  1.0000
  H   H632      1.0  0.15348078278675353  0.7412633400159875  0.665904689414295  1.0000
  H   H633      1.0  0.13852351325043022  0.7581118184165092  0.68722355451438  1.0000
  H   H634      1.0  0.15572583464720352  0.705890913876344  0.7000540953598191  1.0000
  H   H635      1.0  0.12080311574561448  0.6892663802355153  0.707013163232335  1.0000
  H   H636      1.0  0.1422554683479134  0.6974055039874506  0.7456327227455203  1.0000
  N   N38       1.0  0.4461761203455544  0.19824207007842262  0.8517515442091809  1.0000
  C   C437      1.0  0.42614712630559387  0.17101821722971372  0.8602050000358882  1.0000
  C   C438      1.0  0.44976599210213675  0.2149292168505459  0.8842812901867153  1.0000
  C   C439      1.0  0.43784128344806034  0.20767781060697124  0.8193744275415009  1.0000
  C   C440      1.0  0.4710702577368251  0.19926534559676992  0.84310943537313  1.0000
  H   H637      1.0  0.4225830101341808  0.15809538062888503  0.8357989961928997  1.0000
  H   H638      1.0  0.4072310017478865  0.16951083843163198  0.8678680662942266  1.0000
  H   H639      1.0  0.432260005664474  0.16292446662536644  0.8836418725299967  1.0000
  H   H640      1.0  0.46484406274226764  0.23557909026278695  0.8787377900159072  1.0000
  H   H641      1.0  0.4313585688252895  0.21462591980349793  0.8917429975061988  1.0000
  H   H642      1.0  0.4561252745434441  0.20818794198108034  0.9090299364281368  1.0000
  H   H643      1.0  0.4530467457935321  0.227728199268421  0.8109380976024355  1.0000
  H   H644      1.0  0.41957952856790254  0.20807461206524253  0.82521404549175  1.0000
  H   H645      1.0  0.43410058779120847  0.19483199469348816  0.7948059495451272  1.0000
  H   H646      1.0  0.48656275534044896  0.21938264749664071  0.8357601823965132  1.0000
  H   H647      1.0  0.46886061314889715  0.18638864908376168  0.8192795973589072  1.0000
  H   H648      1.0  0.4782244701798101  0.1926910309033324  0.8670463306179466  1.0000
  N   N39       1.0  0.5729713498188901  0.9434421265604014  0.0653933007705535  1.0000
  C   C441      1.0  0.5862332400759316  0.9296999427150313  0.07988783657982164  1.0000
  C   C442      1.0  0.5627915948367104  0.9336140172019615  0.027804756503552477  1.0000
  C   C443      1.0  0.5917557456588776  0.9717281665113635  0.0637969191148082  1.0000
  C   C444      1.0  0.5511352131816643  0.9386522650740202  0.09029250122118108  1.0000
  H   H649      1.0  0.5948534657749945  0.9371023101403637  0.10769247547638688  1.0000
  H   H650      1.0  0.6022593765593599  0.9320796811245173  0.061201684932352535  1.0000
  H   H651      1.0  0.5724096869808876  0.9084802890125181  0.08300771542656663  1.0000
  H   H652      1.0  0.5785629086145413  0.9360582144582347  0.008438341778318505  1.0000
  H   H653      1.0  0.5481257795551454  0.9123995001873318  0.02845333123994024  1.0000
  H   H654      1.0  0.5531056599098648  0.9438879513322589  0.015574073587733269  1.0000
  H   H655      1.0  0.6085455079298548  0.9759601691876084  0.04538633801221467  1.0000
  H   H656      1.0  0.5996647381653207  0.9795126542068711  0.0919452967254115  1.0000
  H   H657      1.0  0.5824819938923694  0.9828135550284046  0.05302445166404964  1.0000
  H   H658      1.0  0.5580140956310048  0.9449753132198314  0.11927243979116069  1.0000
  H   H659      1.0  0.5362727519620953  0.917503616197408  0.0913164456334418  1.0000
  H   H660      1.0  0.5410906423336801  0.9493015850747951  0.08086145864436492  1.0000
  N   N40       1.0  0.3993240410036898  0.855125882668539  0.5589477438617005  1.0000
  C   C445      1.0  0.3747779564006618  0.8429687732791011  0.580459730872461  1.0000
  C   C446      1.0  0.41415524316906316  0.841723254109628  0.567635311802293  1.0000
  C   C447      1.0  0.4150609686590568  0.8829885425219169  0.5690760017581242  1.0000
  C   C448      1.0  0.39329188842041907  0.8528223246633941  0.5188179287016784  1.0000
  H   H661      1.0  0.3620288316308403  0.822111934137205  0.5729072512108915  1.0000
  H   H662      1.0  0.3634421264853417  0.8530534023571155  0.5755207350476303  1.0000
  H   H663      1.0  0.37857697053904876  0.8438008395648937  0.6107950044568835  1.0000
  H   H664      1.0  0.4191309024448837  0.8433776099617303  0.5977662627216483  1.0000
  H   H665      1.0  0.4027613993013248  0.8205669180988167  0.5608797733423443  1.0000
  H   H666      1.0  0.43278014073120497  0.8502927759372297  0.5518088487576642  1.0000
  H   H667      1.0  0.433847324433962  0.8927454947458561  0.5536300997605483  1.0000
  H   H668      1.0  0.41973159860146547  0.8854075731538212  0.5992956086194825  1.0000
  H   H669      1.0  0.4045609363018208  0.893768531739473  0.5628069530576395  1.0000
  H   H670      1.0  0.4113258474512518  0.8622918843260873  0.5016164202483241  1.0000
  H   H671      1.0  0.3816189978345397  0.8622761628349752  0.5115604829901951  1.0000
  H   H672      1.0  0.3817176294491307  0.8320498366120607  0.5100874618530065  1.0000
  N   N41       1.0  0.6128121001403624  0.10641049281132953  0.5396405500927106  1.0000
  C   C449      1.0  0.6319348199617798  0.12373746584385895  0.5674060522768062  1.0000
  C   C450      1.0  0.6093547134324367  0.07992134426440822  0.5431311877218291  1.0000
  C   C451      1.0  0.6223672592238144  0.11663845122962829  0.5019079472492043  1.0000
  C   C452      1.0  0.5876464104992966  0.10536123374677743  0.5463335022913757  1.0000
  H   H673      1.0  0.6351710161572692  0.1439560216611541  0.5657394066914793  1.0000
  H   H674      1.0  0.651090959088372  0.12485199448653782  0.5634519443861106  1.0000
  H   H675      1.0  0.6252932638183966  0.11659907420288215  0.596178307477156  1.0000
  H   H676      1.0  0.5948256740557232  0.06617402802781516  0.5228928788634407  1.0000
  H   H677      1.0  0.6279681010363508  0.0800346975416887  0.5378479713185867  1.0000
  H   H678      1.0  0.6027297709587927  0.07183341247446591  0.5715369291145401  1.0000
  H   H679      1.0  0.608396281062002  0.10408454610084268  0.48016764023774233  1.0000
  H   H680      1.0  0.6412721764018641  0.1175282848717087  0.49596934084658933  1.0000
  H   H681      1.0  0.6255580946355667  0.13674398353052644  0.49835681369771034  1.0000
  H   H682      1.0  0.5725885789273619  0.0923047101168151  0.5260997867746589  1.0000
  H   H683      1.0  0.5896248075333104  0.12506893700668362  0.543896002827105  1.0000
  H   H684      1.0  0.5801419435669753  0.09801917647410664  0.5748129250594727  1.0000
  N   N42       1.0  0.949113575502492  0.4978896694548635  0.7965105492445275  1.0000
  C   C453      1.0  0.9276980792974036  0.5009707207622054  0.8122413766168055  1.0000
  C   C454      1.0  0.9738489710470439  0.5163847076658861  0.8148034140241492  1.0000
  C   C455      1.0  0.9513196672483664  0.5034449532353228  0.7562473692490875  1.0000
  C   C456      1.0  0.9435751146900863  0.47083923793088434  0.8026553473158038  1.0000
  H   H685      1.0  0.9087449761308857  0.4873951889638008  0.7989205781462924  1.0000
  H   H686      1.0  0.9312417129607622  0.5211819815197518  0.8080428401365549  1.0000
  H   H687      1.0  0.9254069851250213  0.49687868862536066  0.8425756785198028  1.0000
  H   H688      1.0  0.9784224453500237  0.5369304009140182  0.8104917668565211  1.0000
  H   H689      1.0  0.972930372747912  0.5128742962766862  0.8452621548690828  1.0000
  H   H690      1.0  0.9904868197896871  0.5147407430475853  0.8034486077351075  1.0000
  H   H691      1.0  0.9558584046511922  0.5238039879834467  0.7505680256932638  1.0000
  H   H692      1.0  0.9328210299686488  0.4903369356028307  0.7417384997712607  1.0000
  H   H693      1.0  0.9669082789249025  0.5007979182626583  0.7432313950889403  1.0000
  H   H694      1.0  0.9593468038313945  0.46774742356988963  0.7913179337854092  1.0000
  H   H695      1.0  0.9251472208248422  0.4564995738941188  0.7888352888647933  1.0000
  H   H696      1.0  0.9413604141976104  0.46574525727843324  0.8327104953993584  1.0000
  N   N43       1.0  0.5182635257740797  0.4132939557042972  0.5671061579401476  1.0000
  C   C457      1.0  0.5193568214976957  0.39058353584339306  0.5820774065757222  1.0000
  C   C458      1.0  0.5033446319373064  0.42041660788084995  0.5928938242749014  1.0000
  C   C459      1.0  0.5052687843417223  0.40653688411372557  0.5304968968288979  1.0000
  C   C460      1.0  0.5450463005868024  0.43550232004042266  0.5631607184473817  1.0000
  H   H697      1.0  0.49948397628091434  0.37397382883194286  0.5875859726829369  1.0000
  H   H698      1.0  0.5301419082874427  0.3952503954073155  0.6087308426596807  1.0000
  H   H699      1.0  0.5293331441293945  0.38378158609992447  0.5625843451048268  1.0000
  H   H700      1.0  0.4828914482967674  0.40413857962455046  0.5959428084808327  1.0000
  H   H701      1.0  0.5122458211102485  0.4249074445432864  0.6210952159739472  1.0000
  H   H702      1.0  0.502524320524777  0.43781974018344433  0.5829289253760792  1.0000
  H   H703      1.0  0.48493647033666437  0.38993329936599613  0.5328094054934893  1.0000
  H   H704      1.0  0.5156554744947115  0.40051646492281867  0.5104385352857914  1.0000
  H   H705      1.0  0.5042508482138581  0.42325364641301  0.518097355095118  1.0000
  H   H706      1.0  0.5568474771619351  0.4306311125137587  0.5440926501473952  1.0000
  H   H707      1.0  0.5552303942394083  0.44092330091053605  0.5905090871776013  1.0000
  H   H708      1.0  0.5450699623328129  0.4530627582985037  0.5519185224374243  1.0000
  N   N44       1.0  0.6478711482532825  0.5832254917154467  0.06509482712673212  1.0000
  C   C461      1.0  0.6453469945193122  0.5760232527362266  0.02537889843378476  1.0000
  C   C462      1.0  0.629827722862468  0.5601501118962231  0.08729731744180133  1.0000
  C   C463      1.0  0.6415500352005055  0.6042618277351706  0.07063162857518258  1.0000
  C   C464      1.0  0.6748763420899304  0.5924475984904272  0.07729095598133794  1.0000
  H   H709      1.0  0.6252805573335127  0.569187422366226  0.015013182776909148  1.0000
  H   H710      1.0  0.6497314906875871  0.5599670775260976  0.020591826337466153  1.0000
  H   H711      1.0  0.6591110641956472  0.5927753054744769  0.0077910212636746  1.0000
  H   H712      1.0  0.6092355578950963  0.5525739567131501  0.07889978765333366  1.0000
  H   H713      1.0  0.6342118207194412  0.543957920458659  0.08397270440243783  1.0000
  H   H714      1.0  0.6313818211398134  0.5648899515396055  0.11743164967104205  1.0000
  H   H715      1.0  0.6433119465359574  0.6099889575849351  0.10048960665649469  1.0000
  H   H716      1.0  0.6212953871328157  0.5980614471895679  0.061761033684163844  1.0000
  H   H717      1.0  0.6549984591391363  0.6220602900257078  0.054563592286792986  1.0000
  H   H718      1.0  0.6778102685891112  0.5992101741322283  0.10664714315457516  1.0000
  H   H719      1.0  0.6892670436113287  0.60897547563918  0.05998562535412418  1.0000
  H   H720      1.0  0.67974075384341  0.576571253148579  0.07551945572717854  1.0000
  N   N45       1.0  0.38524628812367073  0.08803838323206115  0.272994664986599  1.0000
  C   C465      1.0  0.4115894545492309  0.11125937308987376  0.27253235853678065  1.0000
  C   C466      1.0  0.38320089154740605  0.0708185574244061  0.3041820768559701  1.0000
  C   C467      1.0  0.380574808305323  0.07368932060788151  0.2376302261744229  1.0000
  C   C468      1.0  0.3656731451674698  0.09644310088444828  0.2775275071533348  1.0000
  H   H721      1.0  0.4140195146032039  0.12443628825249892  0.24888892119396308  1.0000
  H   H722      1.0  0.42690061199812984  0.10566625843028711  0.2697620422686547  1.0000
  H   H723      1.0  0.41572844650277857  0.12290759282812175  0.2984258214856266  1.0000
  H   H724      1.0  0.36361921521514706  0.05300586331062088  0.3053247229168107  1.0000
  H   H725      1.0  0.3977505816501504  0.06415667587132484  0.30140504984765143  1.0000
  H   H726      1.0  0.38681810957096263  0.08103507525611682  0.33131287552337024  1.0000
  H   H727      1.0  0.36117734935997237  0.0556266665176468  0.23732553008993548  1.0000
  H   H728      1.0  0.3954522249840242  0.06769628550596637  0.23286749776443738  1.0000
  H   H729      1.0  0.38147710236247345  0.08591526076709126  0.2135025360866325  1.0000
  H   H730      1.0  0.345512162498317  0.0794636525812937  0.27752149969289747  1.0000
  H   H731      1.0  0.36707054831670083  0.10976615603765867  0.25457400536915714  1.0000
  H   H732      1.0  0.3685274770255135  0.10720925503496047  0.3040449042412079  1.0000
  N   N46       1.0  0.531507157931902  0.8172949281076218  0.3057440573434515  1.0000
  C   C469      1.0  0.5600638758052691  0.8286801435502298  0.30838475287852185  1.0000
  C   C470      1.0  0.5230297766392898  0.8081098174798633  0.2674519334387779  1.0000
  C   C471      1.0  0.5244126406201122  0.8373222804797628  0.315313522405731  1.0000
  C   C472      1.0  0.518497634433984  0.7950063432832813  0.3316216644089918  1.0000
  H   H733      1.0  0.5672935759801223  0.8358542886815874  0.3368472625325032  1.0000
  H   H734      1.0  0.5704890860858237  0.8454685532511039  0.2889819391562549  1.0000
  H   H735      1.0  0.5661225462052216  0.8141695134924103  0.30089016549988734  1.0000
  H   H736      1.0  0.5332938311891183  0.8242462908982603  0.24720517069302422  1.0000
  H   H737      1.0  0.5272014738804912  0.7923503199371831  0.25962718204321494  1.0000
  H   H738      1.0  0.5017751859399744  0.8005514431302954  0.2637383924347745  1.0000
  H   H739      1.0  0.5336215794699909  0.854221009849446  0.2958739066559713  1.0000
  H   H740      1.0  0.5306328333214506  0.8449372168162042  0.34390446784619877  1.0000
  H   H741      1.0  0.5029875372523185  0.8294438072583618  0.31328070139657593  1.0000
  H   H742      1.0  0.4969140509802971  0.7858519702967257  0.32992096347824185  1.0000
  H   H743      1.0  0.5243310450448233  0.8012137060190404  0.36085026036788465  1.0000
  H   H744      1.0  0.5235962670571409  0.7796315715876774  0.32507602351423986  1.0000
  N   N47       1.0  0.8416271946010359  0.5642538437786585  0.43362159327911776  1.0000
  C   C473      1.0  0.8202285482899363  0.5592251419426811  0.45953486863568427  1.0000
  C   C474      1.0  0.8665928418340569  0.5764213173766601  0.45402076396236274  1.0000
  C   C475      1.0  0.8427656853038362  0.5819910475883691  0.4037616850642477  1.0000
  C   C476      1.0  0.8368481873988037  0.5393103100627837  0.4172279109454454  1.0000
  H   H745      1.0  0.8011197819597443  0.550103345212779  0.4449733255937736  1.0000
  H   H746      1.0  0.8232886864406732  0.5776234747333668  0.47258649448436946  1.0000
  H   H747      1.0  0.8187805724727161  0.5457881831508463  0.48230627779732405  1.0000
  H   H748      1.0  0.8830386819445499  0.5793155713860276  0.43576237725252925  1.0000
  H   H749      1.0  0.8714592738958019  0.5958004997481873  0.46552028865362466  1.0000
  H   H750      1.0  0.8659822426964082  0.564011443063999  0.4776992685845468  1.0000
  H   H751      1.0  0.858529468359161  0.5860114980206397  0.38345566423565447  1.0000
  H   H752      1.0  0.8464613964978405  0.6010790711071955  0.4149541320115309  1.0000
  H   H753      1.0  0.8242611552118152  0.5733555302631487  0.3876739066343501  1.0000
  H   H754      1.0  0.8526577923137334  0.5423594035707411  0.397673518346207  1.0000
  H   H755      1.0  0.8183559736398446  0.5296902231035436  0.4011501869566575  1.0000
  H   H756      1.0  0.8360663945482648  0.5254513117281014  0.4388597995304771  1.0000
  N   N48       1.0  0.34708410627935843  0.8015750085459108  0.7902263203539686  1.0000
  C   C477      1.0  0.3478235739111133  0.8140268886197723  0.7543065114415541  1.0000
  C   C478      1.0  0.33888859802027915  0.7738055753110908  0.7840404014603723  1.0000
  C   C479      1.0  0.32827865271518547  0.8034812973524048  0.8153018671246247  1.0000
  C   C480      1.0  0.37329516248449884  0.8150109386991271  0.8071478782399927  1.0000
  H   H757      1.0  0.36223563958466726  0.8135645036276483  0.7348166983336814  1.0000
  H   H758      1.0  0.35330304258802514  0.8348191050000342  0.758163453663151  1.0000
  H   H759      1.0  0.32838627020729316  0.8042284492104824  0.7405793001406631  1.0000
  H   H760      1.0  0.3380621116312819  0.7637670833567476  0.810597839870351  1.0000
  H   H761      1.0  0.31913948109028106  0.7631761451207395  0.7712698942752905  1.0000
  H   H762      1.0  0.3526201060984817  0.7716679203536904  0.7651213510004632  1.0000
  H   H763      1.0  0.30820167984832453  0.7930317487287682  0.8036893944894089  1.0000
  H   H764      1.0  0.3332564469070352  0.8241570245799777  0.8194494863495895  1.0000
  H   H765      1.0  0.32760750670862854  0.7949062235334012  0.8430619638913385  1.0000
  H   H766      1.0  0.37354031318025477  0.8062787950394185  0.8344261949247269  1.0000
  H   H767      1.0  0.3800957593581053  0.8360769551188807  0.8118716427942902  1.0000
  H   H768      1.0  0.38797893214180773  0.8138917092987473  0.7889746337651184  1.0000
