data_image0
_chemical_formula_structural       FeS2FeS2FeSFeS3FeS2FeS2FeSFeS3FeS2FeS2FeSFeS3FeS2FeS2FeSFeS3FeS2FeS2FeSFeS3FeS2FeS2FeSFeS3FeS2FeS2FeSFeS3FeS2FeS2FeSFeS3FeS2FeS2FeSFeS3C6H4C6H4C6H4C6H4C6H4C6H4C6H4C6H4C6H4C6H4C6H4C6H4C6H4C6H4C6H4C6H4C6H4C6H4NC4H12NC4H12NC4H12NC4H12NC4H12NC4H12NC4H12NC4H12NC4H12NC4H12NC4H12NC4H12NC4H12NC4H12NC4H12NC4H12NC4H12NC4H12
_chemical_formula_sum              "Fe36 S72 C180 H288 N18"
_cell_length_a       35.119956430607466
_cell_length_b       35.01980266350278
_cell_length_c       29.172880059883166
_cell_angle_alpha    88.94922307970768
_cell_angle_beta     90.19582225108941
_cell_angle_gamma    119.57914631291847

_space_group_name_H-M_alt    "P 1"
_space_group_IT_number       1

loop_
  _space_group_symop_operation_xyz
  'x, y, z'

loop_
  _atom_site_type_symbol
  _atom_site_label
  _atom_site_symmetry_multiplicity
  _atom_site_fract_x
  _atom_site_fract_y
  _atom_site_fract_z
  _atom_site_occupancy
  Fe  Fe1       1.0  0.3986754818476753  0.9381843937269201  0.6598688304499623  1.0000
  S   S1        1.0  0.3964450087576787  0.944231604411049  0.7363207246557666  1.0000
  S   S2        1.0  0.45042328858698366  0.9964425068993514  0.6195703428747248  1.0000
  Fe  Fe2       1.0  0.32704771670207805  0.841789268461243  0.6624222262730523  1.0000
  S   S3        1.0  0.3173347214892612  0.8409273734906084  0.7383364443396998  1.0000
  S   S4        1.0  0.2993190516273838  0.7799395970588395  0.6214663740254299  1.0000
  Fe  Fe3       1.0  0.3236437807952108  0.9075252488186805  0.7270676562948131  1.0000
  S   S5        1.0  0.28093130015812307  0.9319393939404593  0.7585115827818917  1.0000
  Fe  Fe4       1.0  0.3905781373238207  0.8775194276701829  0.7405167928821248  1.0000
  S   S6        1.0  0.4217442088646838  0.8499832256649813  0.7879543394111896  1.0000
  S   S7        1.0  0.3260017333720425  0.9048785062836021  0.6499172437754912  1.0000
  S   S8        1.0  0.4000783505505648  0.8750520102885049  0.6653373760028842  1.0000
  Fe  Fe5       1.0  0.27871466706835923  0.025589589064986873  0.9936762670220766  1.0000
  S   S9        1.0  0.2512830460555049  0.9807065148757491  0.05473778823804195  1.0000
  S   S10       1.0  0.3297701573912802  0.01746745655406534  0.9548403297745225  1.0000
  Fe  Fe6       1.0  0.22661453381676444  0.07099433181313494  0.01588923638498496  1.0000
  S   S11       1.0  0.196267820564914  0.030353161993464293  0.07982857480605543  1.0000
  S   S12       1.0  0.20680665876188423  0.1179663392702042  0.9849434432778119  1.0000
  Fe  Fe7       1.0  0.2638484505303855  0.0404339605446405  0.09340737367610753  1.0000
  S   S13       1.0  0.2934997860050362  0.03927519604176417  0.1621963081361261  1.0000
  Fe  Fe8       1.0  0.18694621202707756  0.9746943398645399  0.03595154512690441  1.0000
  S   S14       1.0  0.12615634816540972  0.908626285729695  0.040359514911730475  1.0000
  S   S15       1.0  0.2953475548063958  0.08636877349486138  0.033127988502427375  1.0000
  S   S16       1.0  0.21297989823102814  0.014091344501913738  0.9709670651109349  1.0000
  Fe  Fe9       1.0  0.4792548805125552  0.19344999410027636  0.3238210811713108  1.0000
  S   S17       1.0  0.45657076529260526  0.20330454702971876  0.3922750649402437  1.0000
  S   S18       1.0  0.44886630093532787  0.20244443041696086  0.2587887940863529  1.0000
  Fe  Fe10      1.0  0.5505786088555139  0.17959245541274071  0.3667946237404859  1.0000
  S   S19       1.0  0.5329145329335044  0.1869098075940156  0.4386058206349331  1.0000
  S   S20       1.0  0.60855394569843  0.17195599873733827  0.34844057600873224  1.0000
  Fe  Fe11      1.0  0.4633796209484413  0.1454081944382597  0.4159238367739546  1.0000
  S   S21       1.0  0.40679067709514144  0.09092339733087172  0.45614980989167225  1.0000
  Fe  Fe12      1.0  0.5279324206098678  0.24379649220488783  0.408735780309903  1.0000
  S   S22       1.0  0.5607650391660434  0.3074100303217789  0.4468090948241709  1.0000
  S   S23       1.0  0.481296038584088  0.1328204624318243  0.3459383122668922  1.0000
  S   S24       1.0  0.5503271152833039  0.23930067881429595  0.3384496425563417  1.0000
  Fe  Fe13      1.0  0.5617132595247257  0.7650374933503915  0.688665909708847  1.0000
  S   S25       1.0  0.5546713549715683  0.7316935344165502  0.7569396429687835  1.0000
  S   S26       1.0  0.5653789856200341  0.8305134824339516  0.6775655787513245  1.0000
  Fe  Fe14      1.0  0.5593095712301538  0.6897313672045803  0.6353139623325816  1.0000
  S   S27       1.0  0.5509620415663634  0.6495226195678181  0.6992502049634947  1.0000
  S   S28       1.0  0.5610879098239714  0.6711998591177902  0.5616692864840217  1.0000
  Fe  Fe15      1.0  0.5035941899647297  0.6716254785127364  0.7213597842123165  1.0000
  S   S29       1.0  0.4390369514501841  0.6312167751382052  0.7583244957721516  1.0000
  Fe  Fe16      1.0  0.6026930983337547  0.7132205767483805  0.7291134892872873  1.0000
  S   S30       1.0  0.6608237725264834  0.7154532155497696  0.7659057242396998  1.0000
  S   S31       1.0  0.5075481398549261  0.7064982932862786  0.655039205649488  1.0000
  S   S32       1.0  0.6141686282728782  0.7518239169101459  0.6632040799114575  1.0000
  Fe  Fe17      1.0  0.7751145657420284  0.5942971048158222  0.36612301604891617  1.0000
  S   S33       1.0  0.7350541155155935  0.5834689758665088  0.302632657517902  1.0000
  S   S34       1.0  0.8396947262059415  0.5955891226303198  0.3702749327941842  1.0000
  Fe  Fe18      1.0  0.7133284191280606  0.6104330727417354  0.42612724867034  1.0000
  S   S35       1.0  0.6685118876333892  0.6016767156598172  0.3673574878242109  1.0000
  S   S36       1.0  0.7023232239883873  0.6193105249408629  0.5007462922251963  1.0000
  Fe  Fe19      1.0  0.6776166634529233  0.5443900056180085  0.3498365934591732  1.0000
  S   S37       1.0  0.6197691275646484  0.4806801271327975  0.32789280719914343  1.0000
  Fe  Fe20      1.0  0.7299271665688408  0.6415942548190277  0.32563857167903054  1.0000
  S   S38       1.0  0.7421436588229071  0.7010144267816618  0.2826080106648889  1.0000
  S   S39       1.0  0.7183631619872697  0.5503692169645347  0.4113450404045711  1.0000
  S   S40       1.0  0.7741814794424492  0.655275376503071  0.38625754589828637  1.0000
  Fe  Fe21      1.0  0.8993063337905087  0.8641894820018198  0.9776043099397959  1.0000
  S   S41       1.0  0.8985581566303288  0.8531437972971292  0.053539230181096756  1.0000
  S   S42       1.0  0.9614758546032008  0.8933588107349842  0.9359029644380232  1.0000
  Fe  Fe22      1.0  0.8044241466273501  0.8441205206835704  0.9756134281930553  1.0000
  S   S43       1.0  0.7969690751435641  0.8340880430599441  0.05215476454449902  1.0000
  S   S44       1.0  0.7451284150863814  0.8376025021346268  0.9378708024296439  1.0000
  Fe  Fe23      1.0  0.8642055494221272  0.892645543322457  0.0558133782968953  1.0000
  S   S45       1.0  0.8898243390236897  0.9464946756200215  0.10736597349774596  1.0000
  Fe  Fe24      1.0  0.8315002990876521  0.7954365094690761  0.0428192643610567  1.0000
  S   S46       1.0  0.8035302343193761  0.7273670707765986  0.07454369813566802  1.0000
  S   S47       1.0  0.8685293792653245  0.9069490982540237  0.980446203000022  1.0000
  S   S48       1.0  0.8356255170553  0.8023118995830093  0.9657334387949793  1.0000
  Fe  Fe25      1.0  0.14923025404164372  0.5525494213944995  0.715140082568603  1.0000
  S   S49       1.0  0.15458527350140072  0.5256402198601478  0.6480970531534325  1.0000
  S   S50       1.0  0.1442714383906279  0.6138939606797916  0.7199463030805046  1.0000
  Fe  Fe26      1.0  0.15041776510461746  0.47898779753814574  0.7710436024131786  1.0000
  S   S51       1.0  0.156072270466546  0.44538796338085096  0.7085146731515584  1.0000
  S   S52       1.0  0.14863428844274376  0.4605387071093707  0.845945632374558  1.0000
  Fe  Fe27      1.0  0.20448922942071046  0.5136112587090751  0.6837651561948582  1.0000
  S   S53       1.0  0.26523290305858  0.5310509138240267  0.6427450291768996  1.0000
  Fe  Fe28      1.0  0.10570523585684796  0.46021307132469796  0.6779153028957283  1.0000
  S   S54       1.0  0.04735748523248029  0.4096725936479164  0.6387267387057354  1.0000
  S   S55       1.0  0.20332022406135583  0.546387999141971  0.7485390588843176  1.0000
  S   S56       1.0  0.09590490162256883  0.4880236779241045  0.7426364805322423  1.0000
  Fe  Fe29      1.0  0.8434611867459996  0.3424091575534907  0.4072780123175709  1.0000
  S   S57       1.0  0.8401416852583836  0.33705495433359073  0.33127589565692567  1.0000
  S   S58       1.0  0.7822167666011483  0.30541155889969673  0.45021188362503767  1.0000
  Fe  Fe30      1.0  0.9407733465527454  0.4085936925494667  0.40474417629154913  1.0000
  S   S59       1.0  0.944422115071045  0.40811469578097914  0.3274585522865299  1.0000
  S   S60       1.0  0.0028281424482510253  0.45561303399729797  0.44158422577665696  1.0000
  Fe  Fe31      1.0  0.8814480724831252  0.40989355049603016  0.3297633427730691  1.0000
  S   S61       1.0  0.857075413511945  0.442175056415474  0.27946243225184514  1.0000
  Fe  Fe32      1.0  0.902675018458669  0.33516504418819265  0.3363091990311336  1.0000
  S   S62       1.0  0.9024606992351905  0.2803365504046851  0.296783049793661  1.0000
  S   S63       1.0  0.8806753716622547  0.41605692487603807  0.4059492611130615  1.0000
  S   S64       1.0  0.9033396272517874  0.335038026322735  0.41336106925894295  1.0000
  Fe  Fe33      1.0  0.02838155559187938  0.2705053011089658  0.08828535485022497  1.0000
  S   S65       1.0  0.9891198076493553  0.2488413607962683  0.023483952663681862  1.0000
  S   S66       1.0  0.03343358851200717  0.32698981437210084  0.1292850835847492  1.0000
  Fe  Fe34      1.0  0.06242349587142854  0.20651510837146952  0.07888589316810989  1.0000
  S   S67       1.0  0.02633031980006684  0.1794957202183091  0.013873433631669041  1.0000
  S   S68       1.0  0.10252399085008423  0.17957355619269427  0.11198803417817499  1.0000
  Fe  Fe35      1.0  0.04783890238976549  0.2492071589882256  0.9934148687407637  1.0000
  S   S69       1.0  0.06622672638832078  0.26384062607118114  0.9184442118638304  1.0000
  Fe  Fe36      1.0  0.9704212773038811  0.18081876362239133  0.048444158778809365  1.0000
  S   S70       1.0  0.9044304650144109  0.1237908285831877  0.03241348538879607  1.0000
  S   S71       1.0  0.08949204968609982  0.2767748261079387  0.05590408931917505  1.0000
  S   S72       1.0  0.00439985908628282  0.20208539578624937  0.1161138164859263  1.0000
  C   C1        1.0  0.9402137826507635  0.29353732174720887  0.2515121725406341  1.0000
  C   C2        1.0  0.9337826120893167  0.2610437965475378  0.22017586432814226  1.0000
  C   C3        1.0  0.9625419531464402  0.2708869216470041  0.18288082572774092  1.0000
  C   C4        1.0  0.9980225374542356  0.31329024512392356  0.17683924989752955  1.0000
  C   C5        1.0  0.004670271711659124  0.3457652711069662  0.20842016012469755  1.0000
  C   C6        1.0  0.975854087814856  0.3359066242750634  0.24574709726085903  1.0000
  H   H1        1.0  0.9063125584812614  0.22817561198461472  0.22448040955495815  1.0000
  H   H2        1.0  0.9570022589253077  0.2457331292114976  0.1585799276369314  1.0000
  H   H3        1.0  0.03229927689293866  0.37853397273509065  0.20403522656364917  1.0000
  H   H4        1.0  0.9815498870643946  0.36088575042277704  0.2703045059134734  1.0000
  C   C7        1.0  0.035150778633607604  0.42251860198135177  0.5838594710209832  1.0000
  C   C8        1.0  0.06413179503878357  0.4616004893118957  0.5609733327983659  1.0000
  C   C9        1.0  0.053881823778366034  0.4711754375659726  0.5172410009712441  1.0000
  C   C10       1.0  0.014471726054246403  0.4417742415712024  0.4961032490617  1.0000
  C   C11       1.0  0.985451038772617  0.4025564348586249  0.5188528152340491  1.0000
  C   C12       1.0  0.9958798150865987  0.39292237834135374  0.5626005225541809  1.0000
  H   H5        1.0  0.09457545480653134  0.4843262368662688  0.5767280375143331  1.0000
  H   H6        1.0  0.07645307529644407  0.5015018731237038  0.49964242555802785  1.0000
  H   H7        1.0  0.9549167175663318  0.3797595457200652  0.5028696701068397  1.0000
  H   H8        1.0  0.9732661760382014  0.3625608519041943  0.5801223232498398  1.0000
  C   C13       1.0  0.12267177709362691  0.4052000770268026  0.8646071048454432  1.0000
  C   C14       1.0  0.11418820523747784  0.3713231695567996  0.8344754036304577  1.0000
  C   C15       1.0  0.09608731279292436  0.3278560061892932  0.8512151916081052  1.0000
  C   C16       1.0  0.08567827692799608  0.31801103305072836  0.8979123818601448  1.0000
  C   C17       1.0  0.09295529208152264  0.3516696592835468  0.9277716092963714  1.0000
  C   C18       1.0  0.11197491190143645  0.3952051875098801  0.9112353633384777  1.0000
  H   H9        1.0  0.12247156090689962  0.37880545346078104  0.7985275183975565  1.0000
  H   H10       1.0  0.09051070256690008  0.30192945747367517  0.8279417118172612  1.0000
  H   H11       1.0  0.08462464917463415  0.3443771642036056  0.9637554541289777  1.0000
  H   H12       1.0  0.11836409115502665  0.42131944687417305  0.9346273671677554  1.0000
  C   C19       1.0  0.8927253371000857  0.9953082631962784  0.08678731036178645  1.0000
  C   C20       1.0  0.8677600589708114  0.9951711280621776  0.04925337985596845  1.0000
  C   C21       1.0  0.8709170087296235  0.034653609216706356  0.03304025609595751  1.0000
  C   C22       1.0  0.8998483951749856  0.0744328704353963  0.05360529730664387  1.0000
  C   C23       1.0  0.9252142938212669  0.07460930245229572  0.09073499061500333  1.0000
  C   C24       1.0  0.9210279996768753  0.03501767272131495  0.10784426142741338  1.0000
  H   H13       1.0  0.8452384681447042  0.9645370123562447  0.03338607299758389  1.0000
  H   H14       1.0  0.8510201157794219  0.03430066742385372  0.004496208649816147  1.0000
  H   H15       1.0  0.9473172617978602  0.10512026880381752  0.10703108014689698  1.0000
  H   H16       1.0  0.9399758046056912  0.03527305450572649  0.1372640425786506  1.0000
  C   C25       1.0  0.7855964535676337  0.7200891681263589  0.1320151817568837  1.0000
  C   C26       1.0  0.7669266993514166  0.6781602316269283  0.1527244516409561  1.0000
  C   C27       1.0  0.7525953586533151  0.671564691162249  0.19863753983666338  1.0000
  C   C28       1.0  0.7571019399934962  0.7069982458875408  0.22414827138273655  1.0000
  C   C29       1.0  0.7751862937897175  0.7487585697022813  0.20317450576197107  1.0000
  C   C30       1.0  0.7895211900414418  0.755354549942557  0.15731026134889167  1.0000
  H   H17       1.0  0.7635455057217887  0.6506886922493581  0.13319131941853965  1.0000
  H   H18       1.0  0.7380390324990667  0.6390965452509225  0.21423522141949933  1.0000
  H   H19       1.0  0.7785981234317345  0.7762913018336584  0.22264310268466145  1.0000
  H   H20       1.0  0.8038906393135795  0.7878208955436184  0.14170715204488724  1.0000
  C   C31       1.0  0.8422486871819973  0.5512808400808632  0.346114140711144  1.0000
  C   C32       1.0  0.8748326522584348  0.54194649959138  0.36081716178247397  1.0000
  C   C33       1.0  0.8787789757380443  0.5078317605704861  0.3410891732488721  1.0000
  C   C34       1.0  0.8509129564431268  0.48365726853109137  0.3056235145525896  1.0000
  C   C35       1.0  0.8182498928350443  0.49292271009753524  0.2907635473080388  1.0000
  C   C36       1.0  0.8134998425278879  0.526324367017628  0.31144580018215573  1.0000
  H   H21       1.0  0.8971723217139742  0.5612137394322843  0.3875436624454898  1.0000
  H   H22       1.0  0.9042877972694758  0.50114753180781  0.3524852936439154  1.0000
  H   H23       1.0  0.7966399844351529  0.4743100398050568  0.26328095285307646  1.0000
  H   H24       1.0  0.788390445060627  0.5334807126014426  0.2997856168004907  1.0000
  C   C37       1.0  0.6608897351084286  0.6311174803650373  0.5163027523383451  1.0000
  C   C38       1.0  0.6417873914676456  0.6464532948154945  0.4841189619738657  1.0000
  C   C39       1.0  0.6105992224229762  0.6579435889874492  0.4983464620746935  1.0000
  C   C40       1.0  0.5988101623069833  0.6546948508765837  0.5447949159789227  1.0000
  C   C41       1.0  0.6169489138706972  0.6380819809522256  0.5767105138830153  1.0000
  C   C42       1.0  0.6476158899660321  0.6259517275437602  0.5623434405873118  1.0000
  H   H25       1.0  0.6518685232548154  0.6506137392646367  0.44853325037932923  1.0000
  H   H26       1.0  0.5964342351755916  0.6705590813815575  0.47347944430473465  1.0000
  H   H27       1.0  0.6070581859180938  0.6343272924811001  0.6123400035213002  1.0000
  H   H28       1.0  0.6613611904786197  0.6127205303508332  0.5869575572019443  1.0000
  C   C43       1.0  0.6843180087466118  0.7500397015936725  0.8132528761639819  1.0000
  C   C44       1.0  0.6663938197172092  0.7746600822625422  0.8307119354586339  1.0000
  C   C45       1.0  0.6856149071656773  0.8015582445894821  0.8687292091746702  1.0000
  C   C46       1.0  0.7230532324331771  0.8043488217123006  0.8893625107277533  1.0000
  C   C47       1.0  0.7412376290966168  0.7799966816763219  0.8716914816334035  1.0000
  C   C48       1.0  0.7217870236910069  0.7527880036502942  0.8338756647802724  1.0000
  H   H29       1.0  0.6376597043016858  0.7729520596151405  0.8150611023488901  1.0000
  H   H30       1.0  0.6714390623302193  0.820410729950993  0.8821083739980751  1.0000
  H   H31       1.0  0.7702161892160625  0.782085096274265  0.8871211416611849  1.0000
  H   H32       1.0  0.7358714615831479  0.7338648842924038  0.8205304935191772  1.0000
  C   C49       1.0  0.39145337201706765  0.6024099505076789  0.725390773964725  1.0000
  C   C50       1.0  0.3510506027212598  0.5778701349759622  0.7478944409003347  1.0000
  C   C51       1.0  0.312273470498351  0.5555077093839785  0.7227034002198248  1.0000
  C   C52       1.0  0.31370669258392386  0.55752606473422  0.6747904427894872  1.0000
  C   C53       1.0  0.3541430794703835  0.5816332969287186  0.6521875089998943  1.0000
  C   C54       1.0  0.39297091927314043  0.6041504335948142  0.6774413979153684  1.0000
  H   H33       1.0  0.3497709806556914  0.5759806931341805  0.7849779365386458  1.0000
  H   H34       1.0  0.2813933366279587  0.5362503710045549  0.7404410574719344  1.0000
  H   H35       1.0  0.35546777845385047  0.5830187330604202  0.6151190919400691  1.0000
  H   H36       1.0  0.42404326913474427  0.6224216112086767  0.6598200219496091  1.0000
  C   C55       1.0  0.6563820700187828  0.20901093691747188  0.37710800671866684  1.0000
  C   C56       1.0  0.6546944083710583  0.222551365919277  0.42152556990773327  1.0000
  C   C57       1.0  0.6934890744476869  0.25169234528711476  0.4440171977416221  1.0000
  C   C58       1.0  0.7339987014134152  0.2682979211327742  0.4217531418826154  1.0000
  C   C59       1.0  0.7354987758049845  0.2547336187338167  0.37736665497229477  1.0000
  C   C60       1.0  0.6969394143909603  0.2248530205797192  0.35528506763442647  1.0000
  H   H37       1.0  0.6236183471100921  0.20985452115820497  0.43900071239944644  1.0000
  H   H38       1.0  0.6919727258305317  0.26156662211455806  0.47860460805949784  1.0000
  H   H39       1.0  0.7662905863091108  0.26634456065812273  0.36029044330851934  1.0000
  H   H40       1.0  0.6983735952112855  0.21432283854922368  0.32099846555008615  1.0000
  C   C61       1.0  0.5778331182377517  0.3549615942133404  0.41276981900856374  1.0000
  C   C62       1.0  0.6092019455157804  0.3955464386696145  0.4299369532508257  1.0000
  C   C63       1.0  0.6235682397177981  0.4340658980204239  0.4034151827266428  1.0000
  C   C64       1.0  0.6055955291244486  0.43245019857665834  0.360147188655069  1.0000
  C   C65       1.0  0.5741792986517137  0.39180162108129796  0.34300710128910644  1.0000
  C   C66       1.0  0.5607070615216989  0.3530160786685627  0.36900595049616863  1.0000
  H   H41       1.0  0.6226254043721512  0.39709448987156243  0.4637491682608477  1.0000
  H   H42       1.0  0.6480288308714212  0.4648706439162745  0.41695436359429283  1.0000
  H   H43       1.0  0.5601020621818903  0.3902559127988325  0.30955238563287635  1.0000
  H   H44       1.0  0.5364155454325016  0.32175653423223466  0.35555550545287357  1.0000
  C   C67       1.0  0.08031583356579623  0.9059099906987355  0.01291971923723345  1.0000
  C   C68       1.0  0.08510203388299276  0.938005327425441  0.9805945536263873  1.0000
  C   C69       1.0  0.04849239199714983  0.9336272783307653  0.9566342626063914  1.0000
  C   C70       1.0  0.006795251922565582  0.8980288471554402  0.9661207076102071  1.0000
  C   C71       1.0  0.001800810936297026  0.866706818320809  0.9994995894816194  1.0000
  C   C72       1.0  0.03863610702764308  0.8703033122233376  0.022355904291261105  1.0000
  H   H45       1.0  0.11701633365666105  0.9658368725103705  0.973428270397213  1.0000
  H   H46       1.0  0.05238322342462287  0.9580050880239318  0.9309477858405689  1.0000
  H   H47       1.0  0.9696974100808481  0.8390398876031195  0.006763772333101769  1.0000
  H   H48       1.0  0.03477413946331256  0.8454313919043009  0.04738764601689118  1.0000
  C   C73       1.0  0.17669314068735179  0.13340985309909612  0.02056914655201081  1.0000
  C   C74       1.0  0.17828365193408652  0.13011246081460376  0.06828126812708409  1.0000
  C   C75       1.0  0.15513722004044372  0.14413297317480384  0.0960613948110247  1.0000
  C   C76       1.0  0.13016243351465134  0.16124153745418035  0.07627431185475908  1.0000
  C   C77       1.0  0.12770498123713495  0.16351176950723695  0.028550470810291273  1.0000
  C   C78       1.0  0.15122317897933815  0.14995444731739047  0.000752652305950896  1.0000
  H   H49       1.0  0.19820259974118484  0.11780827661236463  0.08382311784327984  1.0000
  H   H50       1.0  0.15706056554841372  0.14226334522934891  0.13300315507372726  1.0000
  H   H51       1.0  0.10795495505836884  0.1759597443673632  0.013096340886858737  1.0000
  H   H52       1.0  0.14967192617535127  0.15217538301570482  0.963820050875996  1.0000
  C   C79       1.0  0.3385537120928612  0.08518312694077008  0.18608071484230423  1.0000
  C   C80       1.0  0.3613358020217812  0.07831890485052694  0.22196737891794432  1.0000
  C   C81       1.0  0.39657394485018815  0.11405262572551893  0.24314152283802848  1.0000
  C   C82       1.0  0.40845583759873005  0.15692746833242607  0.22934311822987538  1.0000
  C   C83       1.0  0.38632903889862125  0.1637802279006484  0.19271239751076466  1.0000
  C   C84       1.0  0.3515828523000071  0.12797749795354313  0.1708895459646975  1.0000
  H   H53       1.0  0.3516582386375801  0.045179326034423886  0.23342934029479384  1.0000
  H   H54       1.0  0.41401958413581547  0.10851405096339244  0.27070210340591466  1.0000
  H   H55       1.0  0.3955180982204204  0.19695747507330763  0.18182154650051915  1.0000
  H   H56       1.0  0.33413589931381443  0.13357420070491366  0.1432920781061613  1.0000
  C   C85       1.0  0.25612185404982546  0.7340725565764735  0.6489819207307349  1.0000
  C   C86       1.0  0.24696910770374067  0.6918225281131763  0.637038642826507  1.0000
  C   C87       1.0  0.21334734571193315  0.6547731309984459  0.6595296398089714  1.0000
  C   C88       1.0  0.187795859987314  0.6598669587439427  0.6929345543262838  1.0000
  C   C89       1.0  0.19660389068716497  0.7020861869036329  0.7044664984318388  1.0000
  C   C90       1.0  0.23108611432450035  0.7391779450290064  0.6829407590964942  1.0000
  H   H57       1.0  0.26613196573231246  0.6877530265408479  0.6105943688727226  1.0000
  H   H58       1.0  0.20684384772418477  0.622346164156795  0.6504715829833514  1.0000
  H   H59       1.0  0.17686938018012366  0.7061583329264185  0.7302429663211266  1.0000
  H   H60       1.0  0.23756832319696353  0.771670248436759  0.691862415524621  1.0000
  C   C91       1.0  0.46389124879471044  0.846366645286058  0.7598314220931337  1.0000
  C   C92       1.0  0.47012414732320645  0.8104282738426294  0.7688066551464962  1.0000
  C   C93       1.0  0.5015245134581408  0.805485844943112  0.7439553240856388  1.0000
  C   C94       1.0  0.5279548908592068  0.837397056220765  0.7113413919179162  1.0000
  C   C95       1.0  0.5227377966810058  0.8741194112955762  0.7036034451320411  1.0000
  C   C96       1.0  0.4901944280098642  0.8781950081010204  0.7271592947934176  1.0000
  H   H61       1.0  0.4502736449686247  0.786118859450945  0.7945469282776927  1.0000
  H   H62       1.0  0.5052994794333169  0.7770667492151604  0.7501908662903832  1.0000
  H   H63       1.0  0.5433817760134789  0.8991123801581364  0.6787520373444594  1.0000
  H   H64       1.0  0.48595208779563687  0.9063778260871864  0.7205893974780417  1.0000
  C   C97       1.0  0.2959764521386506  0.9570804745611903  0.8123008463722619  1.0000
  C   C98       1.0  0.2724965713565334  0.9760827894619217  0.8307421373020465  1.0000
  C   C99       1.0  0.28273459581118415  0.9949072007405934  0.8743665662740984  1.0000
  C   C100      1.0  0.316792081034643  0.9951623690001314  0.8995802026346001  1.0000
  C   C101      1.0  0.34080769142919515  0.9769450398967788  0.880742188060202  1.0000
  C   C102      1.0  0.33029347713224305  0.9577241874444224  0.8373297077315993  1.0000
  H   H65       1.0  0.24610905432778124  0.9759571532847078  0.811352471572625  1.0000
  H   H66       1.0  0.26464076262228303  0.009669841681288375  0.8882592945343379  1.0000
  H   H67       1.0  0.36722180464751847  0.9770503026387864  0.9000561342008034  1.0000
  H   H68       1.0  0.3483824399844166  0.9428792673542239  0.8235982750825737  1.0000
  C   C103      1.0  0.43745409715443045  0.02080164855050648  0.5729507151910369  1.0000
  C   C104      1.0  0.47137877827679847  0.0578416331194276  0.5508361046554278  1.0000
  C   C105      1.0  0.4623640276707988  0.07925200293231253  0.5147258476520071  1.0000
  C   C106      1.0  0.4192272815450443  0.0640381531755182  0.5006992517092909  1.0000
  C   C107      1.0  0.38517818472779103  0.027035118130352975  0.5229175362675401  1.0000
  C   C108      1.0  0.3942601044563108  0.0052601962467917485  0.55872005792196  1.0000
  H   H69       1.0  0.504882611354483  0.07005602539846492  0.5616020623054838  1.0000
  H   H70       1.0  0.48887257108849863  0.10760520441078855  0.49788995634472755  1.0000
  H   H71       1.0  0.35173832063488836  0.014888978078023252  0.5120642706653763  1.0000
  H   H72       1.0  0.36789153944061  0.9764108699276226  0.5750600897230626  1.0000
  N   N1        1.0  0.4037790407995942  0.05259376993592024  0.07789641729197538  1.0000
  C   C109      1.0  0.4270692741009689  0.06400536173086757  0.12216661467364753  1.0000
  C   C110      1.0  0.36419686657058686  0.008858703734766271  0.08207016491293007  1.0000
  C   C111      1.0  0.4327245186446827  0.05178562455354174  0.04170633822650416  1.0000
  C   C112      1.0  0.3909093245832734  0.0857228701655881  0.0655138404511244  1.0000
  H   H73       1.0  0.40581547228226084  0.06470825455462448  0.14999206447928248  1.0000
  H   H74       1.0  0.45687818894172155  0.09705452998577746  0.1205078018259702  1.0000
  H   H75       1.0  0.43735859427822155  0.03976539143414959  0.1326957842611387  1.0000
  H   H76       1.0  0.3725433318220589  0.9829681891843938  0.09150382415207159  1.0000
  H   H77       1.0  0.341372852436896  0.008329541658743  0.10882214797569545  1.0000
  H   H78       1.0  0.3458422859726292  0.9993096399993472  0.049231005098748115  1.0000
  H   H79       1.0  0.41576222652475303  0.043146538641380516  0.007924034178301786  1.0000
  H   H80       1.0  0.4430784619379055  0.027087012589742665  0.04979323263337987  1.0000
  H   H81       1.0  0.46278182097094517  0.08436615213366117  0.03734741878575387  1.0000
  H   H82       1.0  0.3745368141092281  0.07884953478272583  0.031524706693156546  1.0000
  H   H83       1.0  0.41970338674440044  0.11941084496695953  0.06357239850857166  1.0000
  H   H84       1.0  0.3677109441347352  0.08607075684693966  0.09120508766093294  1.0000
  N   N2        1.0  0.5603745370875555  0.5071558845187379  0.4472049697591757  1.0000
  C   C113      1.0  0.6065749886326209  0.5183793067668253  0.4518112535855282  1.0000
  C   C114      1.0  0.556699212536897  0.5344750884897949  0.4100995793952396  1.0000
  C   C115      1.0  0.5450098239719032  0.5157667764067475  0.49090532186769864  1.0000
  C   C116      1.0  0.5336708107164271  0.46022725867468445  0.4358068571956536  1.0000
  H   H85       1.0  0.6194255762162654  0.5133170217870405  0.4191409683245661  1.0000
  H   H86       1.0  0.610942887084136  0.49812037840607504  0.47892682384766727  1.0000
  H   H87       1.0  0.6275664204437899  0.5533420510616319  0.4607490027042036  1.0000
  H   H88       1.0  0.5222532403872138  0.5269775941134504  0.40550302002843264  1.0000
  H   H89       1.0  0.5768003172146959  0.5701387276289905  0.41747508579376985  1.0000
  H   H90       1.0  0.5683379114760405  0.5288575466191439  0.376666704437436  1.0000
  H   H91       1.0  0.5102446773710628  0.507874767267483  0.4887907955004817  1.0000
  H   H92       1.0  0.5648276930759311  0.550998150899889  0.500337842406715  1.0000
  H   H93       1.0  0.5476984331000152  0.4959064427640243  0.5196669784794905  1.0000
  H   H94       1.0  0.4984014615580653  0.4502052054539101  0.43273850152810006  1.0000
  H   H95       1.0  0.5367840544761215  0.4386433862676977  0.46231654937532435  1.0000
  H   H96       1.0  0.5442458195246652  0.4531439340186983  0.4025232188408394  1.0000
  N   N3        1.0  0.1966248985965651  0.3112137850852183  0.9629870969559251  1.0000
  C   C117      1.0  0.24247936635431339  0.3262834340513592  0.9761949766437222  1.0000
  C   C118      1.0  0.18208430566350922  0.34043723115737423  0.9828680031723797  1.0000
  C   C119      1.0  0.16838521942602638  0.26584233708006244  0.9804509708597463  1.0000
  C   C120      1.0  0.1934521417430543  0.3122343860145318  0.9124603016830002  1.0000
  H   H97       1.0  0.2544756044976533  0.30489102237774174  0.9617351078439593  1.0000
  H   H98       1.0  0.24584153507043172  0.3256342676118979  0.01415738476340267  1.0000
  H   H99       1.0  0.2646927906441367  0.36050684620351753  0.9637320871291029  1.0000
  H   H100      1.0  0.18482835771803943  0.3412739626205067  0.020918930914666678  1.0000
  H   H101      1.0  0.20158462593296098  0.37473133812353565  0.9693194030278673  1.0000
  H   H102      1.0  0.14723984039024152  0.3290722417600504  0.9745742200390949  1.0000
  H   H103      1.0  0.13355446504150825  0.2532106327668167  0.9706827504870703  1.0000
  H   H104      1.0  0.16940918792486942  0.2638020017469638  0.018589631037887244  1.0000
  H   H105      1.0  0.17865797768739272  0.24289838019874413  0.9665418866002446  1.0000
  H   H106      1.0  0.15915395141981592  0.30073979324840205  0.9014345623515095  1.0000
  H   H107      1.0  0.2042488231912565  0.2906353414278544  0.8962075223790237  1.0000
  H   H108      1.0  0.21380886954479605  0.34609582553285445  0.8980747848219438  1.0000
  N   N4        1.0  0.6815446194248195  0.7167311620584663  0.01844122661578318  1.0000
  C   C121      1.0  0.6425742718654712  0.6745774241605484  0.007049630703785947  1.0000
  C   C122      1.0  0.671383402231856  0.7527959924282145  0.012631941455219176  1.0000
  C   C123      1.0  0.7179761200232575  0.7246722182762231  0.987411577784188  1.0000
  C   C124      1.0  0.6943794303496282  0.7149239857052828  0.06644051696619502  1.0000
  H   H109      1.0  0.6494390671303876  0.6468271930019189  0.010503881844023066  1.0000
  H   H110      1.0  0.6319725047136636  0.6751185077871534  0.9710931911396808  1.0000
  H   H111      1.0  0.6144717866437786  0.6673115989912136  0.030027088405763402  1.0000
  H   H112      1.0  0.6630026859337903  0.7560216500973437  0.9763846452336754  1.0000
  H   H113      1.0  0.6434975162706693  0.7477026588203134  0.034771452554639204  1.0000
  H   H114      1.0  0.6999871789244151  0.7850757226732048  0.02150290378597397  1.0000
  H   H115      1.0  0.7088829616433971  0.7243694288736879  0.9507799341372316  1.0000
  H   H116      1.0  0.7286067503869113  0.6997521372649617  0.9926443138978709  1.0000
  H   H117      1.0  0.7468993947701484  0.7572927422405594  0.993437260353253  1.0000
  H   H118      1.0  0.7240633336263187  0.7460378378194196  0.07594329766828944  1.0000
  H   H119      1.0  0.7025484171291554  0.6882217195214646  0.07196979671268244  1.0000
  H   H120      1.0  0.667914955990942  0.709326462028393  0.09103703081163439  1.0000
  N   N5        1.0  0.9314551891502723  0.1569609245468233  0.8955284661198258  1.0000
  C   C125      1.0  0.93571963445794  0.19437224470979686  0.922129274811531  1.0000
  C   C126      1.0  0.9608753775119274  0.1418420438819188  0.9146354957939726  1.0000
  C   C127      1.0  0.9437027943454043  0.1711687464486047  0.8472358627941782  1.0000
  C   C128      1.0  0.8856992112442279  0.12059137117624341  0.8982797610035932  1.0000
  H   H121      1.0  0.9144278921293348  0.20704706663827  0.9083623460188696  1.0000
  H   H122      1.0  0.970038865969119  0.22215130699207952  0.9216260732203968  1.0000
  H   H123      1.0  0.9261473052538692  0.1846875354350701  0.9586069134081721  1.0000
  H   H124      1.0  0.9589476433446454  0.11399194282963054  0.8950562492778459  1.0000
  H   H125      1.0  0.9956245495817669  0.16873651244831311  0.914063660114288  1.0000
  H   H126      1.0  0.9520788272179613  0.13023027337008664  0.9508463992666103  1.0000
  H   H127      1.0  0.9222606734488618  0.18293002176294815  0.8317017779937366  1.0000
  H   H128      1.0  0.9410431433195569  0.14384951720050942  0.8260615847995323  1.0000
  H   H129      1.0  0.9781520396935196  0.19870413015322552  0.8444901146505552  1.0000
  H   H130      1.0  0.8812289553811697  0.09160591988734113  0.8788706177518998  1.0000
  H   H131      1.0  0.8624384318708103  0.13075571443263612  0.8843866774174509  1.0000
  H   H132      1.0  0.8757671352120179  0.10937353783524473  0.9345427199004951  1.0000
  N   N6        1.0  0.4460147116671198  0.7950889017226925  0.5921178598019481  1.0000
  C   C129      1.0  0.40014621960404606  0.7857568977621535  0.5898194327964356  1.0000
  C   C130      1.0  0.4579116052408598  0.7816920891539393  0.5491510369719963  1.0000
  C   C131      1.0  0.45081301746692437  0.7703349096602319  0.6311358914325191  1.0000
  C   C132      1.0  0.47541544664087415  0.8426250200019013  0.5985401465994479  1.0000
  H   H133      1.0  0.3898142214802953  0.794200632650159  0.6223583227186057  1.0000
  H   H134      1.0  0.3769951786314334  0.7504346616579501  0.5836520704120477  1.0000
  H   H135      1.0  0.3954831643399091  0.8051898965344237  0.5619364876627025  1.0000
  H   H136      1.0  0.43675576302106955  0.7458798497648601  0.5434379318744558  1.0000
  H   H137      1.0  0.45453866023041417  0.7996267946383934  0.5189082312432912  1.0000
  H   H138      1.0  0.49249272679421685  0.7885859302904231  0.5499975039120922  1.0000
  H   H139      1.0  0.4432587092358122  0.7804298768286376  0.6642954121888731  1.0000
  H   H140      1.0  0.4849832365415174  0.7764228667800608  0.6334845509012054  1.0000
  H   H141      1.0  0.4291336650207321  0.7343199909840552  0.6277116443912553  1.0000
  H   H142      1.0  0.5102001039447203  0.8506019374340726  0.6021998207891862  1.0000
  H   H143      1.0  0.46665366671138864  0.8540602902371454  0.6300223353776628  1.0000
  H   H144      1.0  0.47363500178327594  0.8625025397839515  0.569267252908932  1.0000
  N   N7        1.0  0.8747989866129909  0.7131700674101897  0.26904331834756917  1.0000
  C   C133      1.0  0.8797323417828374  0.7307820117717643  0.22164230837321136  1.0000
  C   C134      1.0  0.8665140207151005  0.7409497292809879  0.30049757576340286  1.0000
  C   C135      1.0  0.9150967080086481  0.7127236186001652  0.28292876000530925  1.0000
  C   C136      1.0  0.8375462489666917  0.6679138957842384  0.2713146065123348  1.0000
  H   H145      1.0  0.8498198662359128  0.7316203653038528  0.2103945114353616  1.0000
  H   H146      1.0  0.8852837221749735  0.7102549528796005  0.19678124056469914  1.0000
  H   H147      1.0  0.9076356273521992  0.7649209519431813  0.2185099909538234  1.0000
  H   H148      1.0  0.8618062992575388  0.7281038408824877  0.33646063318790753  1.0000
  H   H149      1.0  0.8940259812507375  0.7753762147622758  0.30001828061368435  1.0000
  H   H150      1.0  0.8363059303762332  0.7420090942825138  0.29082901089157265  1.0000
  H   H151      1.0  0.9440168394908267  0.7463630755075847  0.2820854688843545  1.0000
  H   H152      1.0  0.9221266242236059  0.6919239558939493  0.25988265987584336  1.0000
  H   H153      1.0  0.9119022100023935  0.698936071732696  0.31840617521421016  1.0000
  H   H154      1.0  0.8334592018417729  0.6534512112510256  0.3063913249525954  1.0000
  H   H155      1.0  0.8418828584360951  0.6459111933123406  0.24743785290300943  1.0000
  H   H156      1.0  0.8064065371151914  0.6671262101731109  0.26258678955337034  1.0000
  N   N8        1.0  0.7111157617580097  0.3753310863342755  0.3751751450662534  1.0000
  C   C137      1.0  0.7443146164676165  0.3650908992080025  0.35717927516731385  1.0000
  C   C138      1.0  0.6836079802945081  0.3416279612012  0.4098523186167903  1.0000
  C   C139      1.0  0.6831839556998103  0.3755454426466629  0.337248938031606  1.0000
  C   C140      1.0  0.7333402449441996  0.41900785743528235  0.3964501543957644  1.0000
  H   H157      1.0  0.7658275538964529  0.38988618235809974  0.33094991787366046  1.0000
  H   H158      1.0  0.7286858252783217  0.33223093026214257  0.3411074281825075  1.0000
  H   H159      1.0  0.765885527180061  0.36462467710994156  0.38503225829341786  1.0000
  H   H160      1.0  0.6585794540075173  0.3485291981393927  0.4248383026914889  1.0000
  H   H161      1.0  0.6655627574384473  0.30838666329435555  0.39468783226092086  1.0000
  H   H162      1.0  0.7036618109287501  0.3398292095952287  0.4385856225429227  1.0000
  H   H163      1.0  0.6577636156042106  0.38312302158187267  0.34974146700763975  1.0000
  H   H164      1.0  0.6656591212764511  0.34296100533455465  0.32062426765904906  1.0000
  H   H165      1.0  0.7027934111117073  0.40062062123940406  0.3104160958221781  1.0000
  H   H166      1.0  0.7092577913948989  0.42792245797598083  0.4101666265697884  1.0000
  H   H167      1.0  0.7546290169937792  0.44519795530096384  0.37126574701447984  1.0000
  H   H168      1.0  0.7545462600479421  0.4198982385670512  0.42535366736294006  1.0000
  N   N9        1.0  0.1640969605841989  0.4283142116206054  0.5424919234786842  1.0000
  C   C141      1.0  0.20893959053571157  0.4649075733415538  0.5500569760695972  1.0000
  C   C142      1.0  0.1394528601145196  0.4163691590988273  0.586225183381259  1.0000
  C   C143      1.0  0.16615605380789733  0.38987155475847657  0.5255130224369817  1.0000
  C   C144      1.0  0.14180225473898686  0.44209769975014673  0.5083589621532633  1.0000
  H   H169      1.0  0.22882033823066636  0.4748358580750588  0.5179775804850616  1.0000
  H   H170      1.0  0.22660887383300687  0.4560226825176896  0.5762200998948672  1.0000
  H   H171      1.0  0.20852839394928527  0.4944793371650639  0.5629174833284984  1.0000
  H   H172      1.0  0.10526098292060974  0.38901372279849566  0.5820666600470882  1.0000
  H   H173      1.0  0.155344914568176  0.40595694242858565  0.6129403228715858  1.0000
  H   H174      1.0  0.13725940993240335  0.4445649395270697  0.6000396971534022  1.0000
  H   H175      1.0  0.18468529271891995  0.39767721885522456  0.49259243313832024  1.0000
  H   H176      1.0  0.13275276492133348  0.36174483455875805  0.5194869809524297  1.0000
  H   H177      1.0  0.18266137181784586  0.3786021602244937  0.5506305280289004  1.0000
  H   H178      1.0  0.1069876659676012  0.41623165360273784  0.5037049769752894  1.0000
  H   H179      1.0  0.1582807304899111  0.4493726287399899  0.4742581262413422  1.0000
  H   H180      1.0  0.14166997817250707  0.47234490926708084  0.5191161190242387  1.0000
  N   N10       1.0  0.38950990456659007  0.06059867478062854  0.6898797982680656  1.0000
  C   C145      1.0  0.3610782372444836  0.018335713585269094  0.6676537351917251  1.0000
  C   C146      1.0  0.42529187935067786  0.08962139634929282  0.6580043154256933  1.0000
  C   C147      1.0  0.40830488303064544  0.05266450306058899  0.7320092490916407  1.0000
  C   C148      1.0  0.36322101842666776  0.08143392945263081  0.7018452092550622  1.0000
  H   H181      1.0  0.3331640918247224  0.9958100229789397  0.6902113426420063  1.0000
  H   H182      1.0  0.3796490215700465  0.001257734178259808  0.6594764422758925  1.0000
  H   H183      1.0  0.34728810984117336  0.02293166223455856  0.6349620089063458  1.0000
  H   H184      1.0  0.44693088328258695  0.12227890148347806  0.6730732283168244  1.0000
  H   H185      1.0  0.4463115850045765  0.07511021853008629  0.6493604282079296  1.0000
  H   H186      1.0  0.4123939804480108  0.09492429084506807  0.6249760793313013  1.0000
  H   H187      1.0  0.42859784971963555  0.08357591691874258  0.7507800964742969  1.0000
  H   H188      1.0  0.4297957592309059  0.03859674763334871  0.7238191588248585  1.0000
  H   H189      1.0  0.38215470313977706  0.029058750920373112  0.7558737805336008  1.0000
  H   H190      1.0  0.38356764279300454  0.1134820449302349  0.7187201877145197  1.0000
  H   H191      1.0  0.33603089869377123  0.060088694062106866  0.7259238136595368  1.0000
  H   H192      1.0  0.34834979699323515  0.0875540281714973  0.6707908329869084  1.0000
  N   N11       1.0  0.32369559768526235  0.09879938847779512  0.3592410981717394  1.0000
  C   C149      1.0  0.34954740507698323  0.07631932524809093  0.3534242553672484  1.0000
  C   C150      1.0  0.2768621835392457  0.06720439389902344  0.3519307874927861  1.0000
  C   C151      1.0  0.33843845615455126  0.1354740365166407  0.3254841331884183  1.0000
  C   C152      1.0  0.32993682756877174  0.11608964041139203  0.4061612606286598  1.0000
  H   H193      1.0  0.3852052977564879  0.09956269094996828  0.3571439378170469  1.0000
  H   H194      1.0  0.34438611303429784  0.06127196377861455  0.3191531891225635  1.0000
  H   H195      1.0  0.3407609865418365  0.049768191594288025  0.3797334845218061  1.0000
  H   H196      1.0  0.2711678081537398  0.05356419392698575  0.3167457390749862  1.0000
  H   H197      1.0  0.26475600378471575  0.03904742413056139  0.37676404356232057  1.0000
  H   H198      1.0  0.25634315823257786  0.0830452837319251  0.3559947407660678  1.0000
  H   H199      1.0  0.37423507053082256  0.15885483591859706  0.32828547138497916  1.0000
  H   H200      1.0  0.32117186703868955  0.15453971357660734  0.33023551991838923  1.0000
  H   H201      1.0  0.33226735084628145  0.12342406486802071  0.2897060450836774  1.0000
  H   H202      1.0  0.3108140940050563  0.13310221825388235  0.4121405652812488  1.0000
  H   H203      1.0  0.3649769883144047  0.13998495939677236  0.41267237040885635  1.0000
  H   H204      1.0  0.3199835670729096  0.0893929825058386  0.4325428511301311  1.0000
  N   N12       1.0  0.17374307293559332  0.8774926184355782  0.9237343509966014  1.0000
  C   C153      1.0  0.1605482652736412  0.9096241412094547  0.9080543308810346  1.0000
  C   C154      1.0  0.1352230145952209  0.8382825017120343  0.9433980410069592  1.0000
  C   C155      1.0  0.20792087144346483  0.8975175128505845  0.959137435526209  1.0000
  C   C156      1.0  0.19119664447108642  0.8646007580648563  0.8844923279787756  1.0000
  H   H205      1.0  0.1886578136862207  0.939614971007895  0.892821003395135  1.0000
  H   H206      1.0  0.14759017412532938  0.9201697562537102  0.9370490582291814  1.0000
  H   H207      1.0  0.13437598689019037  0.89556060478972  0.881747539500664  1.0000
  H   H208      1.0  0.14393626559055894  0.8134684415606198  0.9561848440873923  1.0000
  H   H209      1.0  0.12108851544751986  0.8470353648212162  0.9728930218535955  1.0000
  H   H210      1.0  0.10875132323770753  0.8223097881164295  0.9176440381707748  1.0000
  H   H211      1.0  0.21927504662786013  0.8745447479432573  0.9712774624571647  1.0000
  H   H212      1.0  0.19548508571280077  0.9067746554939284  0.9895952304119113  1.0000
  H   H213      1.0  0.23708457529849847  0.9278611498913895  0.9459382968124226  1.0000
  H   H214      1.0  0.20076005920221074  0.839781788434037  0.8949241512753932  1.0000
  H   H215      1.0  0.22087645163566205  0.8932591531164061  0.8695449440825547  1.0000
  H   H216      1.0  0.16671694846294005  0.8504011521660806  0.8565418470863829  1.0000
  N   N13       1.0  0.9089024532449101  0.3916360626833689  0.17869194026262086  1.0000
  C   C157      1.0  0.9467583770918243  0.4256479282150261  0.20382035609536045  1.0000
  C   C158      1.0  0.8785809461818569  0.3574780801241093  0.21141127202448445  1.0000
  C   C159      1.0  0.9243016792114853  0.37144506441364694  0.14460684135498975  1.0000
  C   C160      1.0  0.88585376790155  0.4120357291809975  0.15516176017566014  1.0000
  H   H217      1.0  0.9702545400824084  0.4521587637433982  0.18029893017408136  1.0000
  H   H218      1.0  0.965061241454877  0.41150743327274686  0.22188619326385453  1.0000
  H   H219      1.0  0.9361134655761614  0.4412703982433491  0.2300709383191414  1.0000
  H   H220      1.0  0.8502238654113067  0.3305318884412576  0.19365157852776058  1.0000
  H   H221      1.0  0.8952090507844397  0.3424037138136066  0.23102665930307187  1.0000
  H   H222      1.0  0.8653729004074324  0.37144367071987583  0.23668645486522297  1.0000
  H   H223      1.0  0.8967013001591927  0.34626326594602147  0.12433571748753598  1.0000
  H   H224      1.0  0.9406719404990781  0.35465155219458167  0.16144548910892867  1.0000
  H   H225      1.0  0.9483748017466445  0.3963943356164553  0.12015004752860199  1.0000
  H   H226      1.0  0.8567144907447591  0.3872778725523089  0.1363279664292771  1.0000
  H   H227      1.0  0.9076763474089129  0.43790733963105005  0.13005506468860561  1.0000
  H   H228      1.0  0.8741351274803552  0.4277927336822276  0.18015671764869157  1.0000
  N   N14       1.0  0.7268069922052768  0.7359668616401602  0.6447964955097123  1.0000
  C   C161      1.0  0.7689451229847472  0.7372294085944467  0.6367416727878916  1.0000
  C   C162      1.0  0.6955131117305039  0.693325394928477  0.6663794146361959  1.0000
  C   C163      1.0  0.70909629700014  0.7413077566796401  0.6005417745684938  1.0000
  C   C164      1.0  0.7337406270164966  0.7718804794749101  0.6756302509955434  1.0000
  H   H229      1.0  0.7933930838102772  0.7689821373388033  0.6205201382303046  1.0000
  H   H230      1.0  0.7648209946834912  0.7104865955901628  0.6135681474529079  1.0000
  H   H231      1.0  0.7830575466647652  0.73308622906719  0.6694623394373569  1.0000
  H   H232      1.0  0.6627430043544505  0.6904515594140622  0.671320110874268  1.0000
  H   H233      1.0  0.6909974527630188  0.6653704093167051  0.6452939566630931  1.0000
  H   H234      1.0  0.7068032572132215  0.6890821240419477  0.7008557498564371  1.0000
  H   H235      1.0  0.6761320439038548  0.73809620345106  0.6048811460856743  1.0000
  H   H236      1.0  0.7054559755358011  0.7159580957374242  0.5757229489346268  1.0000
  H   H237      1.0  0.7307984907610016  0.7739886497094084  0.5842951732022548  1.0000
  H   H238      1.0  0.7025795278323441  0.7717586015330034  0.6826359044605684  1.0000
  H   H239      1.0  0.7572660841739342  0.8046669330673631  0.6607917891814695  1.0000
  H   H240      1.0  0.7463935742202971  0.7684142672134042  0.7096453316831111  1.0000
  N   N15       1.0  0.024465952861528754  0.014689858778277998  0.051217371900717464  1.0000
  C   C165      1.0  0.01738632573773735  0.006749796145643527  0.10119861250246183  1.0000
  C   C166      1.0  0.068133198325899  0.02117327664075863  0.03899788424800942  1.0000
  C   C167      1.0  0.021982508042967423  0.054388097996015884  0.03811282278290482  1.0000
  C   C168      1.0  0.990286821875282  0.9764146562261506  0.026770906650582942  1.0000
  H   H241      1.0  0.01900646196703248  0.9770183808037263  0.1123317483270799  1.0000
  H   H242      1.0  0.9845756987884835  0.0013410372813287275  0.11150997149336361  1.0000
  H   H243      1.0  0.04231163317704091  0.03516781861886285  0.12079008567598226  1.0000
  H   H244      1.0  0.09467089727083938  0.04989687532424051  0.05677485881255105  1.0000
  H   H245      1.0  0.07113838106666906  0.991839016550212  0.04859069333429344  1.0000
  H   H246      1.0  0.0746464979628828  0.027114288799199526  0.001484806046697873  1.0000
  H   H247      1.0  0.028714780999598233  0.06231491016039668  0.0009118611282814547  1.0000
  H   H248      1.0  0.046088466863359344  0.08354385993445589  0.05742651724777269  1.0000
  H   H249      1.0  0.9889445467614355  0.04996619290717111  0.04550784860958173  1.0000
  H   H250      1.0  0.9947601153847981  0.9807242902751997  0.9889010104060019  1.0000
  H   H251      1.0  0.9569375014842915  0.9708421967711585  0.0348850328006404  1.0000
  H   H252      1.0  0.9906584999812281  0.9457102725433617  0.036473626520925014  1.0000
  N   N16       1.0  0.04367858125151627  0.5551816153538333  0.6244051944208804  1.0000
  C   C169      1.0  0.04176922297641248  0.5225037598487786  0.658467699864173  1.0000
  C   C170      1.0  0.03751296189332964  0.588744327734077  0.6480573181209849  1.0000
  C   C171      1.0  0.008719311221338398  0.5329148539466457  0.5901672518823856  1.0000
  C   C172      1.0  0.08684635187389492  0.5766758859307806  0.6011565042583328  1.0000
  H   H253      1.0  0.009387386754228002  0.5049922915896504  0.6761082215559893  1.0000
  H   H254      1.0  0.06701355621986196  0.5384388780534669  0.6853843317715772  1.0000
  H   H255      1.0  0.047372647455941184  0.49715456873705843  0.6423103760369684  1.0000
  H   H256      1.0  0.03857299233224156  0.6139398241588745  0.6234773908483207  1.0000
  H   H257      1.0  0.005556494164488978  0.5737443385968426  0.6665640872328493  1.0000
  H   H258      1.0  0.06372772949568187  0.6062638554961923  0.6738931674589976  1.0000
  H   H259      1.0  0.009648542850016173  0.5563515823012186  0.5632939526694352  1.0000
  H   H260      1.0  0.9756596984453462  0.5169109862581301  0.6064438808378919  1.0000
  H   H261      1.0  0.011942120043350268  0.5067315806324526  0.5724394820719992  1.0000
  H   H262      1.0  0.11398659804607013  0.5932048637155514  0.6261570201685243  1.0000
  H   H263      1.0  0.08971444268503295  0.6021146243152476  0.5758062999547652  1.0000
  H   H264      1.0  0.09253378271501014  0.5525636372861163  0.5824913984528414  1.0000
  N   N17       1.0  0.33706845124459034  0.6964875741037739  0.746388133978076  1.0000
  C   C173      1.0  0.2934335277101351  0.6734611351138605  0.7686223503030003  1.0000
  C   C174      1.0  0.3352441585276152  0.6756387424339716  0.7022441890341408  1.0000
  C   C175      1.0  0.36960534957082003  0.6935763299846638  0.7764380834001525  1.0000
  C   C176      1.0  0.34984683761463675  0.7431232774775933  0.7382342043301209  1.0000
  H   H265      1.0  0.2680640724895635  0.6748650913733365  0.746724076918439  1.0000
  H   H266      1.0  0.2934874973790614  0.6883456580120269  0.8020258005074795  1.0000
  H   H267      1.0  0.28269681247406336  0.6381507940688327  0.7753757187849433  1.0000
  H   H268      1.0  0.36795875294331887  0.6907370847800376  0.6854455397798633  1.0000
  H   H269      1.0  0.3239859000690289  0.6400606878695984  0.7071638030087525  1.0000
  H   H270      1.0  0.3120779450391293  0.6783679481111914  0.6781439286995122  1.0000
  H   H271      1.0  0.372707034833765  0.7098852628459735  0.809728390657348  1.0000
  H   H272      1.0  0.4027249575478606  0.7094903123291559  0.7602025532459469  1.0000
  H   H273      1.0  0.3605602478056429  0.6588123616922508  0.7840373917070432  1.0000
  H   H274      1.0  0.38293671583971656  0.7618947403459319  0.7223721358698902  1.0000
  H   H275      1.0  0.35097375879384785  0.7596834407443975  0.7708770176580052  1.0000
  H   H276      1.0  0.3263158270399407  0.7466673357680147  0.7152644397836847  1.0000
  N   N18       1.0  0.8066480838247483  0.188352130909064  0.3851618717408065  1.0000
  C   C177      1.0  0.7820538383324737  0.13983900485152326  0.38744444305996223  1.0000
  C   C178      1.0  0.8540709535393725  0.20397714565581518  0.3889385031447775  1.0000
  C   C179      1.0  0.7926328739128882  0.20598612162090849  0.4232490425792764  1.0000
  C   C180      1.0  0.7978308234735746  0.20364036325550094  0.3409097224833604  1.0000
  H   H277      1.0  0.7461315993682286  0.12708842169142584  0.3845388931049252  1.0000
  H   H278      1.0  0.7877901517922883  0.12708686534330307  0.4204552078841058  1.0000
  H   H279      1.0  0.7919040891291466  0.12552374081109494  0.3591446481091284  1.0000
  H   H280      1.0  0.8734283219100812  0.24050393614375334  0.3881795670221758  1.0000
  H   H281      1.0  0.8619949045831335  0.19235516969208147  0.4214192559913148  1.0000
  H   H282      1.0  0.8661954091676101  0.19265231379890804  0.35981173372608394  1.0000
  H   H283      1.0  0.8101664604919591  0.2425674339942647  0.4222256893407396  1.0000
  H   H284      1.0  0.7992512367661952  0.19564541878935968  0.4572475601187032  1.0000
  H   H285      1.0  0.7569192079511852  0.19466629615790956  0.4217783651638439  1.0000
  H   H286      1.0  0.8089238537521803  0.19179472372307646  0.3113767570425541  1.0000
  H   H287      1.0  0.8156509237006094  0.240110077315773  0.3382137093235355  1.0000
  H   H288      1.0  0.7623037493507303  0.19214041469803897  0.33655701529057397  1.0000
