data_image0
_chemical_formula_structural       CH2CH10CHCHCHCS2H2CSHCHCHCNFeS2FeS2FeSFeHS2HSCHS2HFeHC2H2CH3C2H4C6H5NCHNSHC2FeSC2HC2HCSFeH4SHFeCNHCNC2FeHCH2CH2C2HC2H2CS2CH4SFeHSH2C2HC2H2CHCHSH4C2H2C2FeH2C2HCHFeNHC3HSCHS2HSCHCH6CH2CS2HCH2CH3CHCH5CH2CHFeSCH2SHC2HC3HNH5FeH3FeS2CH2SHSH2FeSHC3H3CH3CS3H2SC5H2NCSHCH2CHCH2CHCHSHSH2C2H2C2HNC3SCHFeH5Fe2H2SHCSCHCFeHC2HCHSFeHCH4SHCHNFeCHCH2C2H3NH6SNHSFeH4CH5CHCNH2SC2HC2SH4SCHNHCH2FeHSFeCFeNHS2FeH2FeCHCH2SCHSHCHCSH2FeHCHCFeCH3CFeHC3HC2S3H2CHC2FeHS2H3C2H3SC2SH2NH5C4H2CH3CHC2H3CHC2H2CHCHSH4C2H8C2SC3HC2H2C3H2CH5NH3SCHCH5C3HSHCFeNCHC2SH3C4HS2CH4SHC2SCH4CH2CH4FeHCHFeSCSNS2FeSFeHC8H7CH2FeC2H5FeH6CHSCH2CH2C2H5NHS2FeSFeCHCH2FeHSCSH2CSC6H3C5H2CS2H2CSH8CSH4CFe2CHNSCFeH3C3HSH2SH4CNHFeH2CH3FeSHC3HFeS2FeSHFeS2H2FeSHS3H2Fe2SHSHC5FeCHSH2CHCH3C2H2CHFeHC4H6C6H5C3SH2C2N2CHSHSCHC2H4C2HC2SH4CSHCH3SH2NSHFeHC2SHCFe2SHCSC2SHFeH6CHCHC2H7CHSH2SHC2FeC3H2CSNH2CHNHCHC2HNHCH5CSCHC2HCH3CSFeS2HCHCFeS2H2FeS2H3C3HC3HC6H6CH2CSH7CSFeHC2H3CHNH2CH2SCHCH2CNCFeC2FeC2NC2HC4HCH2CH3SH3CH4CSH4C4H6NH5CHS2CH2C2HC2H2CSH2CHNC2H5FeCNCSCH2FeH3SFeSHCH3C2H3CSHCHFeSHCH2SH3CH3FeH7SH3CHC2SC2H2SHSH2FeSHNHSCFeH2CSNC2HC3H2CFeCHC2FeCHC4H4CFeS2CH6SHC2SNFeHCS2H3NSH5C4H3SH2CFeH2CNHCHSHCHFeSHCH2CH2C2S3H2C2H3CHSFeCFeC5NH4SC2H3SHCHCFeH9FeCH2SHNH2C3H4C2HNH2SHSH2FeCH2SHS2HC3NH2SC2FeCFeCHSCHCHCHCFeCSFeH2S2C3HC2H6SHNHCHCNHCH3C3HC2NCHC2SCH2CNCH7FeH5FeSCH2CHCH2CSH3FeH2SFeHCHFeHCSCHCSC4HCH3FeSCHCSFeHS2CH5CSCH2SHCHC2H2CH2CHCH6C2NH5CH2CHNH2SHFeH2C2H2CHNC5FeSCFeSFeSFeS3NFeCHFeS2FeCHS2H7C9H4C4SHC2H5CH3SH3CHSHCNHNC4H12CHCH3CHCH4CH4C2HSH5CHSC2HFeS2HC2H3CHFeS2FeS2FeSFeCS2HS2H6C2H2S2FeSHFeS2NCFe2S2C6H4CHCH2CHCHCH3SH4C6H4C4S2H2C8H7CH3C2H6SH2CHCH2NH3CSC2H2CNH2CHC2HC2SH2FeH4FeHFeC2H2CHSCSC2SH3NFeH2SFe2HCHFeHC3S4HSHFe2SHSHCHCHCFeCH4NCSH4CHCHC2H2CH2CHCHC2HNH2NH2CS2H6C2HFeC4SC2HCHC3H2C2SHC2HCH4S2C3HNH3C2H2Fe2CH9SHCNH8C2HFeCHNCSH4SCH3CH5C3S2CH3CH2CH2C2H3NH2CH2CH3FeH2CHFeHCSH2NH2SCH2SHSC3H6CHC7SH3SFeHCFe2SCHCH5SCHCH2Fe2S2HSCSCH2CH3CHC2FeS2FeSFeSFeS3FeS2FeS2FeSFeS3NH2NFeCSCH3C4HC6H8CH3C6H4CH2CH2CH2SC3H3SC2H3CH4CHSC4NH4C2HSH2CHNH2FeH3CHNHCHC2H4CH2CHNC4H12CH4CSHSCSC3SFeH5CH2C2H2CH3C2NH
_chemical_formula_sum              "C720 H1152 S288 N72 Fe144"
_cell_length_a       62.7805
_cell_length_b       69.1963
_cell_length_c       46.6619
_cell_angle_alpha    79.3544
_cell_angle_beta     79.558
_cell_angle_gamma    107.803

_space_group_name_H-M_alt    "P 1"
_space_group_IT_number       1

loop_
  _space_group_symop_operation_xyz
  'x, y, z'

loop_
  _atom_site_type_symbol
  _atom_site_label
  _atom_site_symmetry_multiplicity
  _atom_site_fract_x
  _atom_site_fract_y
  _atom_site_fract_z
  _atom_site_occupancy
  C   C1        1.0  0.24291  0.03118  0.00367  1.0000
  H   H1        1.0  0.22657  0.02153  0.02111  1.0000
  H   H2        1.0  0.29657  0.02226  0.18549  1.0000
  C   C2        1.0  0.31361  0.10291  0.12227  1.0000
  H   H3        1.0  0.30190  0.08699  0.12289  1.0000
  H   H4        1.0  0.25423  0.04201  0.01412  1.0000
  H   H5        1.0  0.20953  0.04787  0.00266  1.0000
  H   H6        1.0  0.25180  0.02024  0.99770  1.0000
  H   H7        1.0  0.30264  0.01450  0.13520  1.0000
  H   H8        1.0  0.29145  0.01569  0.99908  1.0000
  H   H9        1.0  0.30277  0.11159  0.13121  1.0000
  H   H10       1.0  0.30789  0.09862  0.18191  1.0000
  H   H11       1.0  0.30755  0.07408  0.17379  1.0000
  H   H12       1.0  0.30940  0.99390  0.23141  1.0000
  C   C3        1.0  0.31374  0.02812  0.17049  1.0000
  H   H13       1.0  0.23692  0.06859  0.99566  1.0000
  C   C4        1.0  0.22632  0.05686  0.98568  1.0000
  H   H14       1.0  0.12497  0.12695  0.63974  1.0000
  C   C5        1.0  0.02513  0.19362  0.64539  1.0000
  H   H15       1.0  0.04348  0.20095  0.63484  1.0000
  C   C6        1.0  0.00956  0.20183  0.63443  1.0000
  S   S1        1.0  0.25442  0.00065  0.64196  1.0000
  S   S2        1.0  0.01954  0.22534  0.60629  1.0000
  H   H16       1.0  0.00777  0.13970  0.61046  1.0000
  H   H17       1.0  0.23036  0.06115  0.61584  1.0000
  C   C7        1.0  0.21153  0.02964  0.64377  1.0000
  S   S3        1.0  0.20670  0.08694  0.63904  1.0000
  H   H18       1.0  0.99241  0.15300  0.63076  1.0000
  C   C8        1.0  0.21545  0.05116  0.63397  1.0000
  H   H19       1.0  0.99128  0.10125  0.61873  1.0000
  C   C9        1.0  0.99626  0.13820  0.63253  1.0000
  H   H20       1.0  0.22324  0.02301  0.63291  1.0000
  C   C10       1.0  0.11883  0.02301  0.71541  1.0000
  N   N1        1.0  0.07340  0.06457  0.70368  1.0000
  Fe  Fe1       1.0  0.15845  0.08402  0.74065  1.0000
  S   S4        1.0  0.16023  0.10155  0.69449  1.0000
  S   S5        1.0  0.12504  0.06113  0.77158  1.0000
  Fe  Fe2       1.0  0.20947  0.10535  0.73490  1.0000
  S   S6        1.0  0.21576  0.12554  0.68866  1.0000
  S   S7        1.0  0.23926  0.10468  0.75444  1.0000
  Fe  Fe3       1.0  0.18219  0.12944  0.70693  1.0000
  S   S8        1.0  0.17403  0.15910  0.70059  1.0000
  Fe  Fe4       1.0  0.19351  0.09601  0.68051  1.0000
  H   H21       1.0  0.23218  0.04243  0.69574  1.0000
  S   S9        1.0  0.17806  0.11214  0.75439  1.0000
  S   S10       1.0  0.18945  0.07541  0.72573  1.0000
  H   H22       1.0  0.03103  0.22635  0.77134  1.0000
  S   S11       1.0  0.04775  0.15345  0.72195  1.0000
  C   C11       1.0  0.14290  0.99807  0.80724  1.0000
  H   H23       1.0  0.20677  0.01808  0.97946  1.0000
  S   S12       1.0  0.00525  0.11648  0.77512  1.0000
  S   S13       1.0  0.99623  0.05917  0.76944  1.0000
  H   H24       1.0  0.98284  0.21403  0.75977  1.0000
  Fe  Fe5       1.0  0.05371  0.12706  0.70416  1.0000
  H   H25       1.0  0.04542  0.20541  0.72150  1.0000
  C   C12       1.0  0.09285  0.11282  0.80697  1.0000
  C   C13       1.0  0.12672  0.13626  0.65600  1.0000
  H   H26       1.0  0.13347  0.10704  0.80854  1.0000
  H   H27       1.0  0.01064  0.14164  0.81720  1.0000
  C   C14       1.0  0.14997  0.15480  0.68539  1.0000
  H   H28       1.0  0.05323  0.08467  0.70169  1.0000
  H   H29       1.0  0.25346  0.04817  0.66103  1.0000
  H   H30       1.0  0.23225  0.01660  0.95701  1.0000
  C   C15       1.0  0.11031  0.15318  0.69050  1.0000
  C   C16       1.0  0.13160  0.16068  0.69756  1.0000
  H   H31       1.0  0.09274  0.01913  0.79912  1.0000
  H   H32       1.0  0.03057  0.19262  0.76035  1.0000
  H   H33       1.0  0.09589  0.15703  0.70095  1.0000
  H   H34       1.0  0.13356  0.17036  0.71329  1.0000
  C   C17       1.0  0.22988  0.08907  0.79153  1.0000
  C   C18       1.0  0.20691  0.08307  0.80810  1.0000
  C   C19       1.0  0.19966  0.07025  0.83768  1.0000
  C   C20       1.0  0.21528  0.06305  0.85031  1.0000
  C   C21       1.0  0.23821  0.06907  0.83365  1.0000
  C   C22       1.0  0.24554  0.08218  0.80442  1.0000
  H   H35       1.0  0.19475  0.08837  0.79822  1.0000
  H   H36       1.0  0.18190  0.06554  0.85046  1.0000
  H   H37       1.0  0.25038  0.06363  0.84322  1.0000
  H   H38       1.0  0.26328  0.08672  0.79162  1.0000
  H   H39       1.0  0.00482  0.23305  0.70691  1.0000
  N   N2        1.0  0.01586  0.21352  0.73809  1.0000
  C   C23       1.0  0.09508  0.08175  0.70135  1.0000
  H   H40       1.0  0.25851  0.03716  0.69583  1.0000
  N   N3        1.0  0.26246  0.06984  0.68824  1.0000
  S   S14       1.0  0.01660  0.11057  0.70620  1.0000
  H   H41       1.0  0.02913  0.17052  0.67948  1.0000
  C   C24       1.0  0.10006  0.02026  0.77575  1.0000
  C   C25       1.0  0.28716  0.07770  0.67193  1.0000
  Fe  Fe6       1.0  0.04329  0.13271  0.76710  1.0000
  S   S15       1.0  0.26959  0.00101  0.95397  1.0000
  C   C26       1.0  0.25112  0.04846  0.68516  1.0000
  C   C27       1.0  0.05755  0.18343  0.81408  1.0000
  H   H42       1.0  0.26858  0.00628  0.74249  1.0000
  C   C28       1.0  0.16863  0.01589  0.75794  1.0000
  C   C29       1.0  0.99339  0.16782  0.68549  1.0000
  H   H43       1.0  0.22041  0.03582  0.94271  1.0000
  C   C30       1.0  0.17045  0.03298  0.79863  1.0000
  S   S16       1.0  0.21980  0.99339  0.91160  1.0000
  Fe  Fe7       1.0  0.01509  0.09362  0.75250  1.0000
  H   H44       1.0  0.09078  0.09595  0.81431  1.0000
  H   H45       1.0  0.08757  0.05715  0.66331  1.0000
  H   H46       1.0  0.13164  0.12877  0.82375  1.0000
  H   H47       1.0  0.10517  0.14969  0.76519  1.0000
  S   S17       1.0  0.23710  0.01755  0.83904  1.0000
  H   H48       1.0  0.13739  0.05544  0.71230  1.0000
  Fe  Fe8       1.0  0.25758  0.00464  0.91132  1.0000
  C   C31       1.0  0.28295  0.01911  0.74380  1.0000
  N   N4        1.0  0.16643  0.01266  0.79071  1.0000
  H   H49       1.0  0.29623  0.09384  0.67361  1.0000
  C   C32       1.0  0.11806  0.14764  0.77793  1.0000
  N   N5        1.0  0.23841  0.04278  0.97683  1.0000
  C   C33       1.0  0.06201  0.05371  0.73579  1.0000
  C   C34       1.0  0.18365  0.00363  0.79904  1.0000
  Fe  Fe9       1.0  0.27013  0.99807  0.68130  1.0000
  H   H50       1.0  0.26855  0.05853  0.73109  1.0000
  C   C35       1.0  0.26061  0.05536  0.95446  1.0000
  H   H51       1.0  0.16149  0.01522  0.69803  1.0000
  H   H52       1.0  0.13675  0.12615  0.74431  1.0000
  C   C36       1.0  0.13393  0.12354  0.80259  1.0000
  H   H53       1.0  0.05623  0.21259  0.82293  1.0000
  H   H54       1.0  0.03050  0.22854  0.69069  1.0000
  C   C37       1.0  0.02061  0.15711  0.81824  1.0000
  C   C38       1.0  0.30276  0.02459  0.97710  1.0000
  H   H55       1.0  0.16922  0.05350  0.68180  1.0000
  C   C39       1.0  0.04477  0.16349  0.81207  1.0000
  C   C40       1.0  0.01342  0.22113  0.70751  1.0000
  H   H56       1.0  0.07621  0.18846  0.80925  1.0000
  H   H57       1.0  0.00286  0.20811  0.69959  1.0000
  C   C41       1.0  0.31155  0.03133  0.92276  1.0000
  S   S18       1.0  0.08055  0.12905  0.66416  1.0000
  S   S19       1.0  0.00847  0.20820  0.83690  1.0000
  C   C42       1.0  0.10341  0.00377  0.73429  1.0000
  H   H58       1.0  0.27048  0.01452  0.79156  1.0000
  H   H59       1.0  0.24199  0.06384  0.73338  1.0000
  H   H60       1.0  0.01814  0.18430  0.73103  1.0000
  H   H61       1.0  0.30199  0.07797  0.84450  1.0000
  S   S20       1.0  0.18778  0.99029  0.68158  1.0000
  Fe  Fe10      1.0  0.22836  0.02574  0.88269  1.0000
  H   H62       1.0  0.13559  0.15762  0.76331  1.0000
  S   S21       1.0  0.98307  0.14818  0.71928  1.0000
  H   H63       1.0  0.09030  0.04242  0.69740  1.0000
  H   H64       1.0  0.04554  0.04067  0.73843  1.0000
  C   C43       1.0  0.29660  0.02001  0.95103  1.0000
  C   C44       1.0  0.02922  0.23148  0.74809  1.0000
  H   H65       1.0  0.20163  0.01437  0.78736  1.0000
  C   C45       1.0  0.11612  0.03926  0.75709  1.0000
  C   C46       1.0  0.22380  0.02769  0.96343  1.0000
  H   H66       1.0  0.15775  0.04025  0.79261  1.0000
  H   H67       1.0  0.30721  0.02756  0.90258  1.0000
  C   C47       1.0  0.12534  0.04068  0.72689  1.0000
  H   H68       1.0  0.99395  0.19764  0.78259  1.0000
  C   C48       1.0  0.01700  0.17653  0.67090  1.0000
  H   H69       1.0  0.99066  0.09826  0.65797  1.0000
  S   S22       1.0  0.30422  0.04683  0.80781  1.0000
  H   H70       1.0  0.26903  0.08508  0.72360  1.0000
  H   H71       1.0  0.12600  0.02416  0.69197  1.0000
  H   H72       1.0  0.16886  0.03105  0.82325  1.0000
  H   H73       1.0  0.15583  0.02263  0.75093  1.0000
  C   C49       1.0  0.17672  0.02530  0.68048  1.0000
  C   C50       1.0  0.30259  0.04063  0.77338  1.0000
  H   H74       1.0  0.15157  0.13345  0.78824  1.0000
  H   H75       1.0  0.11496  0.15395  0.79797  1.0000
  C   C51       1.0  0.99268  0.20312  0.75919  1.0000
  C   C52       1.0  0.07872  0.04946  0.68755  1.0000
  Fe  Fe11      1.0  0.27307  0.02637  0.84488  1.0000
  H   H76       1.0  0.08965  0.11862  0.82749  1.0000
  H   H77       1.0  0.05771  0.06462  0.74866  1.0000
  C   C53       1.0  0.10778  0.14069  0.67008  1.0000
  C   C54       1.0  0.00924  0.17056  0.82669  1.0000
  H   H78       1.0  0.07333  0.04684  0.74678  1.0000
  C   C55       1.0  0.18102  0.04685  0.67133  1.0000
  H   H79       1.0  0.09165  0.09393  0.71212  1.0000
  Fe  Fe12      1.0  0.01026  0.13504  0.72834  1.0000
  N   N6        1.0  0.11599  0.12537  0.78676  1.0000
  H   H80       1.0  0.99057  0.16547  0.83182  1.0000
  C   C56       1.0  0.04625  0.19708  0.82173  1.0000
  C   C57       1.0  0.28397  0.02390  0.77156  1.0000
  C   C58       1.0  0.02211  0.19062  0.82824  1.0000
  H   H81       1.0  0.10657  0.11945  0.74628  1.0000
  S   S23       1.0  0.20603  0.04525  0.88590  1.0000
  C   C59       1.0  0.11917  0.11749  0.75951  1.0000
  H   H82       1.0  0.07896  0.11380  0.79561  1.0000
  S   S24       1.0  0.05287  0.10794  0.74888  1.0000
  S   S25       1.0  0.26490  0.03766  0.88596  1.0000
  H   H83       1.0  0.11708  0.10057  0.76533  1.0000
  S   S26       1.0  0.05916  0.14696  0.80082  1.0000
  C   C60       1.0  0.26041  0.06923  0.72050  1.0000
  H   H84       1.0  0.31091  0.10612  0.83550  1.0000
  C   C61       1.0  0.09396  0.00245  0.76445  1.0000
  H   H85       1.0  0.23242  0.07826  0.68640  1.0000
  H   H86       1.0  0.14062  0.99481  0.83210  1.0000
  H   H87       1.0  0.18613  0.02680  0.74457  1.0000
  H   H88       1.0  0.18217  0.00063  0.82375  1.0000
  H   H89       1.0  0.27005  0.04515  0.94723  1.0000
  H   H90       1.0  0.18808  0.04440  0.78663  1.0000
  C   C62       1.0  0.25120  0.08400  0.67530  1.0000
  H   H91       1.0  0.10697  0.07579  0.71237  1.0000
  H   H92       1.0  0.27223  0.06674  0.96390  1.0000
  C   C63       1.0  0.19230  0.01680  0.66731  1.0000
  S   S27       1.0  0.26894  0.99412  0.87026  1.0000
  S   S28       1.0  0.29950  0.02598  0.68265  1.0000
  H   H93       1.0  0.25877  0.10014  0.67806  1.0000
  C   C64       1.0  0.14775  0.14312  0.66394  1.0000
  H   H94       1.0  0.16223  0.13922  0.65363  1.0000
  H   H95       1.0  0.22249  0.06565  0.96588  1.0000
  C   C65       1.0  0.02805  0.19832  0.73770  1.0000
  H   H96       1.0  0.25787  0.06430  0.93388  1.0000
  H   H97       1.0  0.06609  0.08205  0.66588  1.0000
  H   H98       1.0  0.10453  0.08987  0.67739  1.0000
  C   C66       1.0  0.05780  0.07334  0.68996  1.0000
  H   H99       1.0  0.12948  0.00453  0.80197  1.0000
  C   C67       1.0  0.30057  0.03103  0.71788  1.0000
  H   H100      1.0  0.98235  0.18918  0.75271  1.0000
  H   H101      1.0  0.29624  0.06744  0.68112  1.0000
  H   H102      1.0  0.06278  0.03626  0.68879  1.0000
  H   H103      1.0  0.04133  0.06082  0.69107  1.0000
  H   H104      1.0  0.16557  0.00082  0.75118  1.0000
  C   C68       1.0  0.20043  0.05980  0.64828  1.0000
  H   H105      1.0  0.00624  0.13734  0.64987  1.0000
  H   H106      1.0  0.28934  0.07811  0.64757  1.0000
  C   C69       1.0  0.98590  0.19211  0.64776  1.0000
  H   H107      1.0  0.25279  0.08522  0.65081  1.0000
  Fe  Fe13      1.0  0.04424  0.43478  0.29856  1.0000
  S   S29       1.0  0.03213  0.41572  0.26640  1.0000
  C   C70       1.0  0.00241  0.40162  0.27319  1.0000
  H   H108      1.0  0.01142  0.44546  0.24478  1.0000
  H   H109      1.0  0.01090  0.47956  0.17337  1.0000
  S   S30       1.0  0.07893  0.46102  0.28339  1.0000
  H   H110      1.0  0.00754  0.38887  0.23484  1.0000
  C   C71       1.0  0.99494  0.38991  0.25313  1.0000
  C   C72       1.0  0.98608  0.40263  0.29710  1.0000
  H   H111      1.0  0.99481  0.43221  0.17631  1.0000
  C   C73       1.0  0.99358  0.46880  0.18764  1.0000
  C   C74       1.0  0.01004  0.45864  0.22840  1.0000
  C   C75       1.0  0.00579  0.43879  0.19097  1.0000
  H   H112      1.0  0.02322  0.44878  0.17622  1.0000
  N   N7        1.0  0.99537  0.45084  0.20853  1.0000
  H   H113      1.0  0.99172  0.41150  0.31285  1.0000
  H   H114      1.0  0.98557  0.47813  0.20008  1.0000
  H   H115      1.0  0.02797  0.46867  0.21528  1.0000
  H   H116      1.0  0.00291  0.46805  0.24173  1.0000
  H   H117      1.0  0.00796  0.42545  0.20606  1.0000
  Fe  Fe14      1.0  0.05969  0.47858  0.30681  1.0000
  H   H118      1.0  0.98276  0.46341  0.17219  1.0000
  H   H119      1.0  0.98259  0.47996  0.05286  1.0000
  H   H120      1.0  0.98170  0.46735  0.10665  1.0000
  Fe  Fe15      1.0  0.03449  0.44178  0.36104  1.0000
  S   S31       1.0  0.05066  0.42064  0.34192  1.0000
  S   S32       1.0  0.01341  0.43336  0.40874  1.0000
  C   C76       1.0  0.00677  0.37496  0.44570  1.0000
  H   H121      1.0  0.12412  0.45541  0.62072  1.0000
  H   H122      1.0  0.24757  0.46193  0.50062  1.0000
  S   S33       1.0  0.06763  0.46880  0.35083  1.0000
  H   H123      1.0  0.01445  0.47624  0.42048  1.0000
  S   S34       1.0  0.11711  0.40502  0.60612  1.0000
  H   H124      1.0  0.14441  0.38277  0.46809  1.0000
  H   H125      1.0  0.04186  0.32247  0.61460  1.0000
  Fe  Fe16      1.0  0.20517  0.47141  0.47086  1.0000
  S   S35       1.0  0.02477  0.45336  0.31898  1.0000
  H   H126      1.0  0.12839  0.39433  0.42502  1.0000
  C   C77       1.0  0.03200  0.42912  0.43099  1.0000
  C   C78       1.0  0.05345  0.42856  0.41732  1.0000
  C   C79       1.0  0.06830  0.42461  0.43457  1.0000
  H   H127      1.0  0.05878  0.43098  0.39338  1.0000
  H   H128      1.0  0.08490  0.42433  0.42354  1.0000
  H   H129      1.0  0.10984  0.46408  0.43067  1.0000
  C   C80       1.0  0.14505  0.43269  0.46114  1.0000
  H   H130      1.0  0.02471  0.38265  0.44744  1.0000
  H   H131      1.0  0.15875  0.40175  0.48629  1.0000
  H   H132      1.0  0.17561  0.47080  0.39257  1.0000
  C   C81       1.0  0.27587  0.47755  0.44466  1.0000
  S   S36       1.0  0.06634  0.42879  0.61361  1.0000
  S   S37       1.0  0.98726  0.30866  0.56357  1.0000
  S   S38       1.0  0.08138  0.41722  0.48622  1.0000
  H   H133      1.0  0.15188  0.44410  0.37057  1.0000
  H   H134      1.0  0.11003  0.40141  0.45206  1.0000
  S   S39       1.0  0.11499  0.44342  0.34202  1.0000
  C   C82       1.0  0.00108  0.34352  0.48336  1.0000
  C   C83       1.0  0.12716  0.40729  0.43547  1.0000
  C   C84       1.0  0.14930  0.45891  0.36954  1.0000
  C   C85       1.0  0.13254  0.46301  0.35560  1.0000
  C   C86       1.0  0.03481  0.33424  0.62176  1.0000
  H   H135      1.0  0.26686  0.45237  0.51802  1.0000
  H   H136      1.0  0.15513  0.46569  0.61028  1.0000
  N   N8        1.0  0.14626  0.41433  0.44993  1.0000
  C   C87       1.0  0.14421  0.39711  0.47549  1.0000
  S   S40       1.0  0.08396  0.48741  0.56717  1.0000
  H   H137      1.0  0.15957  0.43871  0.47141  1.0000
  C   C88       1.0  0.30191  0.46484  0.46809  1.0000
  H   H138      1.0  0.14575  0.44578  0.44270  1.0000
  H   H139      1.0  0.00004  0.38767  0.43820  1.0000
  C   C89       1.0  0.06186  0.42128  0.46573  1.0000
  H   H140      1.0  0.12784  0.39280  0.49322  1.0000
  C   C90       1.0  0.06927  0.34980  0.63764  1.0000
  H   H141      1.0  0.12884  0.42861  0.47890  1.0000
  H   H142      1.0  0.17033  0.40672  0.41894  1.0000
  C   C91       1.0  0.02541  0.42572  0.46230  1.0000
  H   H143      1.0  0.15393  0.48490  0.56064  1.0000
  C   C92       1.0  0.03235  0.48783  0.41496  1.0000
  H   H144      1.0  0.17082  0.43315  0.40814  1.0000
  S   S41       1.0  0.20007  0.43762  0.49011  1.0000
  H   H145      1.0  0.12706  0.42028  0.41748  1.0000
  S   S42       1.0  0.00543  0.38651  0.61941  1.0000
  H   H146      1.0  0.01564  0.32674  0.62848  1.0000
  H   H147      1.0  0.29702  0.45033  0.45999  1.0000
  C   C93       1.0  0.16869  0.42023  0.42774  1.0000
  C   C94       1.0  0.16278  0.47400  0.38174  1.0000
  H   H148      1.0  0.07364  0.46430  0.48474  1.0000
  H   H149      1.0  0.00878  0.42606  0.47304  1.0000
  C   C95       1.0  0.04036  0.42171  0.47973  1.0000
  C   C96       1.0  0.99133  0.37200  0.49828  1.0000
  H   H150      1.0  0.04461  0.47497  0.54148  1.0000
  N   N9        1.0  0.99183  0.36038  0.47471  1.0000
  C   C97       1.0  0.99794  0.36562  0.60255  1.0000
  C   C98       1.0  0.00634  0.35019  0.56116  1.0000
  C   C99       1.0  0.00989  0.36771  0.57312  1.0000
  S   S43       1.0  0.04666  0.43388  0.55215  1.0000
  C   C100      1.0  0.26251  0.45650  0.49615  1.0000
  H   H151      1.0  0.01652  0.35166  0.53905  1.0000
  Fe  Fe17      1.0  0.04080  0.40867  0.59354  1.0000
  H   H152      1.0  0.02210  0.38280  0.55966  1.0000
  H   H153      1.0  0.27019  0.46343  0.43588  1.0000
  H   H154      1.0  0.11187  0.46138  0.46908  1.0000
  H   H155      1.0  0.25628  0.44184  0.48870  1.0000
  H   H156      1.0  0.01895  0.34998  0.48604  1.0000
  Fe  Fe18      1.0  0.07456  0.45299  0.56989  1.0000
  Fe  Fe19      1.0  0.09175  0.41733  0.58820  1.0000
  H   H157      1.0  0.18346  0.42573  0.43795  1.0000
  H   H158      1.0  0.11765  0.48613  0.34140  1.0000
  S   S44       1.0  0.06567  0.39498  0.57217  1.0000
  H   H159      1.0  0.14474  0.44639  0.57010  1.0000
  C   C101      1.0  0.14230  0.41417  0.57665  1.0000
  S   S45       1.0  0.10221  0.44309  0.54604  1.0000
  C   C102      1.0  0.15192  0.43552  0.56196  1.0000
  H   H160      1.0  0.14453  0.38360  0.57775  1.0000
  C   C103      1.0  0.15191  0.40015  0.56635  1.0000
  Fe  Fe20      1.0  0.07357  0.42171  0.53243  1.0000
  H   H161      1.0  0.17729  0.39648  0.53183  1.0000
  C   C104      1.0  0.17940  0.42876  0.52501  1.0000
  C   C105      1.0  0.17040  0.40744  0.54037  1.0000
  H   H162      1.0  0.17829  0.45942  0.52594  1.0000
  C   C106      1.0  0.17070  0.44285  0.53658  1.0000
  H   H163      1.0  0.03504  0.41862  0.50391  1.0000
  S   S46       1.0  0.00921  0.27606  0.61919  1.0000
  Fe  Fe21      1.0  0.08364  0.44863  0.32913  1.0000
  H   H164      1.0  0.07091  0.46654  0.44668  1.0000
  C   C107      1.0  0.99034  0.33064  0.57824  1.0000
  H   H165      1.0  0.07656  0.33772  0.63236  1.0000
  H   H166      1.0  0.99021  0.33226  0.50521  1.0000
  H   H167      1.0  0.98471  0.38502  0.49233  1.0000
  H   H168      1.0  0.12295  0.47536  0.57178  1.0000
  S   S47       1.0  0.22244  0.48888  0.42244  1.0000
  H   H169      1.0  0.07584  0.36325  0.61720  1.0000
  C   C108      1.0  0.07758  0.47564  0.46250  1.0000
  H   H170      1.0  0.00790  0.36673  0.42743  1.0000
  N   N10       1.0  0.28252  0.47271  0.47321  1.0000
  Fe  Fe22      1.0  0.99538  0.24259  0.61717  1.0000
  C   C109      1.0  0.13950  0.46889  0.62050  1.0000
  H   H171      1.0  0.03937  0.34763  0.60168  1.0000
  C   C110      1.0  0.11517  0.47299  0.44734  1.0000
  H   H172      1.0  0.26136  0.48360  0.44772  1.0000
  H   H173      1.0  0.30743  0.46108  0.48917  1.0000
  C   C111      1.0  0.13867  0.48800  0.57221  1.0000
  C   C112      1.0  0.12999  0.48257  0.35287  1.0000
  H   H174      1.0  0.06763  0.48623  0.46553  1.0000
  H   H175      1.0  0.10706  0.48901  0.49540  1.0000
  H   H176      1.0  0.04418  0.48019  0.40534  1.0000
  N   N11       1.0  0.10262  0.48764  0.45099  1.0000
  H   H177      1.0  0.00163  0.33434  0.46621  1.0000
  H   H178      1.0  0.00892  0.37906  0.50153  1.0000
  H   H179      1.0  0.29521  0.48910  0.50520  1.0000
  H   H180      1.0  0.13415  0.48153  0.43932  1.0000
  H   H181      1.0  0.04111  0.37179  0.63507  1.0000
  H   H182      1.0  0.10222  0.47968  0.61926  1.0000
  S   S48       1.0  0.17649  0.48460  0.47441  1.0000
  N   N12       1.0  0.13915  0.48901  0.60343  1.0000
  H   H183      1.0  0.13953  0.46893  0.64431  1.0000
  S   S49       1.0  0.99412  0.27271  0.70466  1.0000
  Fe  Fe23      1.0  0.98327  0.26529  0.66368  1.0000
  H   H184      1.0  0.01647  0.31695  0.68157  1.0000
  H   H185      1.0  0.99206  0.25831  0.76723  1.0000
  H   H186      1.0  0.04094  0.30990  0.66835  1.0000
  H   H187      1.0  0.04270  0.32749  0.69257  1.0000
  C   C113      1.0  0.03570  0.32314  0.67349  1.0000
  H   H188      1.0  0.04051  0.36277  0.67380  1.0000
  H   H189      1.0  0.01558  0.35201  0.66009  1.0000
  H   H190      1.0  0.99004  0.44178  0.94375  1.0000
  H   H191      1.0  0.07658  0.35572  0.65568  1.0000
  H   H192      1.0  0.02061  0.24334  0.74834  1.0000
  C   C114      1.0  0.98173  0.43473  0.96823  1.0000
  H   H193      1.0  0.99368  0.42830  0.97839  1.0000
  C   C115      1.0  0.03485  0.35763  0.65433  1.0000
  N   N13       1.0  0.04369  0.34121  0.64678  1.0000
  H   H194      1.0  0.04693  0.23951  0.73291  1.0000
  H   H195      1.0  0.10517  0.50710  0.29724  1.0000
  S   S50       1.0  0.06227  0.51202  0.29126  1.0000
  C   C116      1.0  0.10427  0.52090  0.30442  1.0000
  C   C117      1.0  0.08562  0.52754  0.30211  1.0000
  H   H196      1.0  0.07071  0.55115  0.30827  1.0000
  C   C118      1.0  0.08492  0.54577  0.31056  1.0000
  C   C119      1.0  0.16566  0.64857  0.42553  1.0000
  S   S51       1.0  0.22759  0.49483  0.48980  1.0000
  H   H197      1.0  0.14926  0.64034  0.42010  1.0000
  H   H198      1.0  0.30977  0.65391  0.48659  1.0000
  H   H199      1.0  0.16193  0.68674  0.42252  1.0000
  H   H200      1.0  0.02100  0.53242  0.39218  1.0000
  S   S52       1.0  0.21762  0.53081  0.44283  1.0000
  C   C120      1.0  0.14954  0.67951  0.36890  1.0000
  H   H201      1.0  0.13829  0.68552  0.38213  1.0000
  N   N14       1.0  0.16129  0.65818  0.45073  1.0000
  H   H202      1.0  0.12553  0.51253  0.41292  1.0000
  C   C121      1.0  0.27998  0.71856  0.46402  1.0000
  H   H203      1.0  0.30463  0.50471  0.46679  1.0000
  H   H204      1.0  0.19061  0.56078  0.54297  1.0000
  Fe  Fe24      1.0  0.12631  0.57429  0.38145  1.0000
  H   H205      1.0  0.12983  0.50829  0.46489  1.0000
  S   S53       1.0  0.14074  0.56111  0.34522  1.0000
  Fe  Fe25      1.0  0.13557  0.58667  0.43866  1.0000
  C   C122      1.0  0.30926  0.61779  0.52194  1.0000
  Fe  Fe26      1.0  0.20074  0.50963  0.48921  1.0000
  N   N15       1.0  0.20291  0.57945  0.36726  1.0000
  H   H206      1.0  0.21679  0.57322  0.32566  1.0000
  S   S54       1.0  0.11900  0.55587  0.42909  1.0000
  S   S55       1.0  0.14658  0.60432  0.39032  1.0000
  Fe  Fe27      1.0  0.08688  0.56392  0.43584  1.0000
  H   H207      1.0  0.22889  0.57278  0.38747  1.0000
  H   H208      1.0  0.19570  0.68102  0.43712  1.0000
  Fe  Fe28      1.0  0.23348  0.71950  0.35317  1.0000
  C   C123      1.0  0.19870  0.59793  0.35128  1.0000
  H   H209      1.0  0.03309  0.49454  0.50056  1.0000
  C   C124      1.0  0.29874  0.72009  0.47690  1.0000
  H   H210      1.0  0.30593  0.70905  0.36171  1.0000
  H   H211      1.0  0.06135  0.53757  0.37139  1.0000
  S   S56       1.0  0.10285  0.59345  0.44927  1.0000
  C   C125      1.0  0.15998  0.49347  0.37917  1.0000
  H   H212      1.0  0.23983  0.59486  0.35497  1.0000
  S   S57       1.0  0.21540  0.72576  0.39459  1.0000
  H   H213      1.0  0.22520  0.59711  0.39047  1.0000
  C   C126      1.0  0.29468  0.55149  0.49696  1.0000
  H   H214      1.0  0.28917  0.69448  0.41766  1.0000
  C   C127      1.0  0.01931  0.51737  0.40757  1.0000
  S   S58       1.0  0.21758  0.69762  0.32661  1.0000
  H   H215      1.0  0.29384  0.61527  0.51255  1.0000
  H   H216      1.0  0.18704  0.55456  0.40799  1.0000
  Fe  Fe29      1.0  0.19571  0.50427  0.42770  1.0000
  H   H217      1.0  0.18961  0.65824  0.32053  1.0000
  C   C128      1.0  0.02897  0.50299  0.36578  1.0000
  H   H218      1.0  0.17611  0.50387  0.59246  1.0000
  C   C129      1.0  0.18414  0.56832  0.39503  1.0000
  Fe  Fe30      1.0  0.11261  0.60925  0.39986  1.0000
  C   C130      1.0  0.04809  0.50241  0.50786  1.0000
  H   H219      1.0  0.09037  0.55015  0.49327  1.0000
  H   H220      1.0  0.03133  0.51759  0.34878  1.0000
  H   H221      1.0  0.31431  0.73372  0.46810  1.0000
  C   C131      1.0  0.14077  0.65922  0.36502  1.0000
  Fe  Fe31      1.0  0.24271  0.51378  0.44196  1.0000
  H   H222      1.0  0.19785  0.60900  0.36562  1.0000
  C   C132      1.0  0.07422  0.50134  0.54018  1.0000
  C   C133      1.0  0.22523  0.58639  0.37536  1.0000
  C   C134      1.0  0.06123  0.52352  0.49376  1.0000
  H   H223      1.0  0.17717  0.66058  0.40468  1.0000
  C   C135      1.0  0.15032  0.67373  0.44227  1.0000
  C   C136      1.0  0.17313  0.69165  0.35685  1.0000
  S   S59       1.0  0.23620  0.69856  0.45932  1.0000
  S   S60       1.0  0.09287  0.58029  0.38727  1.0000
  S   S61       1.0  0.28120  0.53020  0.42430  1.0000
  H   H224      1.0  0.04020  0.49535  0.35487  1.0000
  H   H225      1.0  0.02327  0.52101  0.42869  1.0000
  C   C137      1.0  0.05475  0.49126  0.53079  1.0000
  H   H226      1.0  0.30832  0.69368  0.44175  1.0000
  C   C138      1.0  0.05913  0.52212  0.38612  1.0000
  C   C139      1.0  0.30615  0.69285  0.41882  1.0000
  Fe  Fe32      1.0  0.24413  0.72068  0.41386  1.0000
  H   H227      1.0  0.18002  0.70707  0.36056  1.0000
  S   S62       1.0  0.26012  0.71160  0.37413  1.0000
  S   S63       1.0  0.11289  0.64225  0.38584  1.0000
  H   H228      1.0  0.28101  0.73120  0.44579  1.0000
  H   H229      1.0  0.00090  0.50684  0.41344  1.0000
  H   H230      1.0  0.10140  0.57041  0.33013  1.0000
  C   C140      1.0  0.16236  0.55538  0.47606  1.0000
  C   C141      1.0  0.16008  0.50636  0.60296  1.0000
  H   H231      1.0  0.10236  0.51126  0.47484  1.0000
  H   H232      1.0  0.21254  0.60676  0.33024  1.0000
  H   H233      1.0  0.17409  0.63687  0.43103  1.0000
  S   S64       1.0  0.05504  0.53646  0.46202  1.0000
  C   C142      1.0  0.29509  0.54357  0.44827  1.0000
  C   C143      1.0  0.10691  0.50245  0.42158  1.0000
  S   S65       1.0  0.15990  0.59478  0.46773  1.0000
  H   H234      1.0  0.14816  0.63673  0.34236  1.0000
  H   H235      1.0  0.16089  0.50795  0.62605  1.0000
  N   N16       1.0  0.03494  0.50757  0.39362  1.0000
  H   H236      1.0  0.14624  0.68095  0.46101  1.0000
  H   H237      1.0  0.30507  0.67688  0.41656  1.0000
  H   H238      1.0  0.18203  0.59319  0.34470  1.0000
  H   H239      1.0  0.10166  0.53067  0.53438  1.0000
  H   H240      1.0  0.10194  0.49404  0.40430  1.0000
  C   C144      1.0  0.17598  0.57543  0.51067  1.0000
  C   C145      1.0  0.08031  0.53376  0.50373  1.0000
  C   C146      1.0  0.18347  0.66874  0.45727  1.0000
  C   C147      1.0  0.20357  0.56513  0.34746  1.0000
  H   H241      1.0  0.18111  0.67657  0.47579  1.0000
  H   H242      1.0  0.01078  0.49221  0.37039  1.0000
  C   C148      1.0  0.25861  0.68455  0.49892  1.0000
  H   H243      1.0  0.26447  0.53388  0.48473  1.0000
  H   H244      1.0  0.16063  0.52165  0.58940  1.0000
  H   H245      1.0  0.09689  0.51312  0.42335  1.0000
  C   C149      1.0  0.27747  0.68605  0.51166  1.0000
  H   H246      1.0  0.19219  0.65747  0.46402  1.0000
  C   C150      1.0  0.16610  0.57360  0.48627  1.0000
  C   C151      1.0  0.28292  0.54220  0.47729  1.0000
  H   H247      1.0  0.16714  0.56224  0.38973  1.0000
  H   H248      1.0  0.17888  0.58954  0.51857  1.0000
  H   H249      1.0  0.07136  0.51580  0.37396  1.0000
  C   C152      1.0  0.18250  0.55917  0.52454  1.0000
  H   H250      1.0  0.12916  0.63294  0.47316  1.0000
  C   C153      1.0  0.25986  0.70081  0.47509  1.0000
  C   C154      1.0  0.14576  0.64170  0.47774  1.0000
  H   H251      1.0  0.15379  0.63002  0.48523  1.0000
  H   H252      1.0  0.13389  0.66636  0.43615  1.0000
  C   C155      1.0  0.29998  0.64308  0.54661  1.0000
  H   H253      1.0  0.15469  0.55387  0.45737  1.0000
  C   C156      1.0  0.16948  0.53940  0.48934  1.0000
  H   H254      1.0  0.24297  0.67087  0.50769  1.0000
  S   S66       1.0  0.19058  0.52240  0.52783  1.0000
  H   H255      1.0  0.13660  0.52727  0.31678  1.0000
  H   H256      1.0  0.16730  0.52564  0.48075  1.0000
  H   H257      1.0  0.03617  0.49072  0.43651  1.0000
  H   H258      1.0  0.27617  0.67374  0.53055  1.0000
  C   C157      1.0  0.08666  0.52273  0.52710  1.0000
  C   C158      1.0  0.17972  0.54141  0.51338  1.0000
  H   H259      1.0  0.14163  0.64846  0.49699  1.0000
  H   H260      1.0  0.28524  0.55011  0.51952  1.0000
  H   H261      1.0  0.18655  0.55869  0.34222  1.0000
  H   H262      1.0  0.18267  0.57883  0.41014  1.0000
  H   H263      1.0  0.13859  0.50298  0.55848  1.0000
  H   H264      1.0  0.20767  0.55145  0.35829  1.0000
  H   H265      1.0  0.11701  0.50736  0.60469  1.0000
  H   H266      1.0  0.14204  0.51300  0.36184  1.0000
  C   C159      1.0  0.18772  0.68375  0.33999  1.0000
  C   C160      1.0  0.15512  0.65189  0.34681  1.0000
  S   S67       1.0  0.17539  0.51252  0.39538  1.0000
  C   C161      1.0  0.29751  0.70391  0.50079  1.0000
  C   C162      1.0  0.11084  0.49952  0.47251  1.0000
  C   C163      1.0  0.17851  0.66416  0.33421  1.0000
  H   H267      1.0  0.27564  0.49835  0.48801  1.0000
  C   C164      1.0  0.10215  0.55653  0.32321  1.0000
  C   C165      1.0  0.12039  0.54943  0.32650  1.0000
  H   H268      1.0  0.06459  0.52529  0.40666  1.0000
  H   H269      1.0  0.28420  0.64104  0.53809  1.0000
  C   C166      1.0  0.12195  0.53218  0.31581  1.0000
  C   C167      1.0  0.28984  0.49199  0.48383  1.0000
  C   C168      1.0  0.14391  0.49781  0.36426  1.0000
  H   H270      1.0  0.30427  0.60571  0.54372  1.0000
  H   H271      1.0  0.29480  0.63206  0.56936  1.0000
  C   C169      1.0  0.11832  0.49277  0.61787  1.0000
  H   H272      1.0  0.11837  0.49435  0.64114  1.0000
  H   H273      1.0  0.30866  0.73214  0.39764  1.0000
  H   H274      1.0  0.30611  0.65940  0.54941  1.0000
  H   H275      1.0  0.29044  0.48994  0.42687  1.0000
  H   H276      1.0  0.26163  0.86458  0.26767  1.0000
  N   N17       1.0  0.26137  0.83656  0.29703  1.0000
  H   H277      1.0  0.29739  0.97084  0.26257  1.0000
  H   H278      1.0  0.29384  0.83324  0.30018  1.0000
  H   H279      1.0  0.28962  0.86432  0.27025  1.0000
  S   S68       1.0  0.28755  0.90280  0.29111  1.0000
  C   C170      1.0  0.27628  0.82372  0.29929  1.0000
  H   H280      1.0  0.23969  0.81671  0.27537  1.0000
  C   C171      1.0  0.23838  0.82341  0.29526  1.0000
  H   H281      1.0  0.27840  0.81687  0.27963  1.0000
  H   H282      1.0  0.30508  0.96833  0.22480  1.0000
  H   H283      1.0  0.25268  0.91947  0.31122  1.0000
  H   H284      1.0  0.22666  0.83258  0.29364  1.0000
  H   H285      1.0  0.27417  0.84859  0.24889  1.0000
  C   C172      1.0  0.27213  0.85424  0.26969  1.0000
  C   C173      1.0  0.31040  0.97819  0.24041  1.0000
  C   C174      1.0  0.27101  0.77230  0.47557  1.0000
  H   H286      1.0  0.28423  0.80459  0.57054  1.0000
  S   S69       1.0  0.25610  0.75309  0.33180  1.0000
  H   H287      1.0  0.26894  0.81043  0.31997  1.0000
  C   C175      1.0  0.24981  0.90106  0.38530  1.0000
  Fe  Fe33      1.0  0.24046  0.75882  0.37513  1.0000
  N   N18       1.0  0.27730  0.79495  0.47411  1.0000
  C   C176      1.0  0.22159  0.79069  0.40900  1.0000
  H   H288      1.0  0.23290  0.91946  0.36229  1.0000
  C   C177      1.0  0.26573  0.89074  0.38191  1.0000
  C   C178      1.0  0.16495  0.95300  0.64105  1.0000
  S   S70       1.0  0.23149  0.78788  0.37297  1.0000
  H   H289      1.0  0.27121  0.76320  0.49779  1.0000
  H   H290      1.0  0.29627  0.88872  0.43491  1.0000
  H   H291      1.0  0.22365  0.82264  0.39257  1.0000
  C   C179      1.0  0.29782  0.81675  0.55274  1.0000
  C   C180      1.0  0.21620  0.77418  0.43460  1.0000
  C   C181      1.0  0.21358  0.81290  0.44097  1.0000
  C   C182      1.0  0.27770  0.89152  0.35297  1.0000
  H   H292      1.0  0.13036  0.92193  0.63259  1.0000
  S   S71       1.0  0.26772  0.75443  0.39816  1.0000
  S   S72       1.0  0.25204  0.85421  0.46098  1.0000
  C   C183      1.0  0.29341  0.83389  0.53723  1.0000
  H   H293      1.0  0.26195  0.79057  0.52108  1.0000
  H   H294      1.0  0.21240  0.82783  0.44332  1.0000
  H   H295      1.0  0.25387  0.85519  0.63226  1.0000
  H   H296      1.0  0.26915  0.88254  0.40154  1.0000
  S   S73       1.0  0.20449  0.85982  0.49717  1.0000
  H   H297      1.0  0.21734  0.75926  0.43222  1.0000
  C   C184      1.0  0.29688  0.86970  0.59601  1.0000
  C   C185      1.0  0.30088  0.80320  0.47813  1.0000
  S   S74       1.0  0.23646  0.90240  0.42093  1.0000
  C   C186      1.0  0.21989  0.80992  0.41221  1.0000
  H   H298      1.0  0.31250  0.89411  0.39656  1.0000
  H   H299      1.0  0.30985  0.79225  0.34453  1.0000
  H   H300      1.0  0.26420  0.81493  0.49686  1.0000
  H   H301      1.0  0.20537  0.76435  0.48323  1.0000
  C   C187      1.0  0.20939  0.77705  0.46341  1.0000
  H   H302      1.0  0.29040  0.88399  0.35053  1.0000
  H   H303      1.0  0.25336  0.76563  0.47222  1.0000
  C   C188      1.0  0.20854  0.79656  0.46658  1.0000
  H   H304      1.0  0.16993  0.94794  0.62032  1.0000
  H   H305      1.0  0.30678  0.82050  0.47519  1.0000
  H   H306      1.0  0.27917  0.89123  0.63071  1.0000
  H   H307      1.0  0.28609  0.92024  0.42291  1.0000
  Fe  Fe34      1.0  0.23720  0.87979  0.46167  1.0000
  H   H308      1.0  0.15969  0.96685  0.63466  1.0000
  C   C189      1.0  0.27655  0.80635  0.44442  1.0000
  H   H309      1.0  0.25277  0.84745  0.59762  1.0000
  Fe  Fe35      1.0  0.25578  0.96857  0.64215  1.0000
  S   S75       1.0  0.25609  0.89275  0.49416  1.0000
  C   C190      1.0  0.24524  0.91148  0.35973  1.0000
  S   S76       1.0  0.20321  0.80103  0.50250  1.0000
  N   N19       1.0  0.27803  0.87784  0.59261  1.0000
  S   S77       1.0  0.26854  0.96168  0.59833  1.0000
  S   S78       1.0  0.23806  0.84401  0.53508  1.0000
  Fe  Fe36      1.0  0.22471  0.87068  0.52987  1.0000
  S   S79       1.0  0.20992  0.87750  0.57304  1.0000
  Fe  Fe37      1.0  0.22083  0.83515  0.49907  1.0000
  H   H310      1.0  0.27560  0.85507  0.32579  1.0000
  C   C191      1.0  0.31349  0.89733  0.41888  1.0000
  C   C192      1.0  0.26088  0.79798  0.49834  1.0000
  C   C193      1.0  0.25084  0.93890  0.59131  1.0000
  C   C194      1.0  0.25464  0.93627  0.56201  1.0000
  C   C195      1.0  0.24146  0.91782  0.55597  1.0000
  C   C196      1.0  0.22474  0.90171  0.57932  1.0000
  C   C197      1.0  0.22065  0.90446  0.60858  1.0000
  C   C198      1.0  0.23370  0.92302  0.61459  1.0000
  H   H311      1.0  0.26773  0.94861  0.54389  1.0000
  H   H312      1.0  0.24419  0.91616  0.53322  1.0000
  H   H313      1.0  0.20773  0.89202  0.62674  1.0000
  H   H314      1.0  0.23097  0.92473  0.63735  1.0000
  H   H315      1.0  0.27652  0.83492  0.54342  1.0000
  H   H316      1.0  0.24278  0.79076  0.49716  1.0000
  H   H317      1.0  0.29580  0.89786  0.54803  1.0000
  C   C199      1.0  0.27933  0.88476  0.56026  1.0000
  H   H318      1.0  0.25096  0.83202  0.34498  1.0000
  H   H319      1.0  0.25894  0.80067  0.44070  1.0000
  Fe  Fe38      1.0  0.26795  0.86529  0.49684  1.0000
  C   C200      1.0  0.25544  0.86106  0.60784  1.0000
  C   C201      1.0  0.30359  0.92843  0.40709  1.0000
  H   H320      1.0  0.27832  0.87174  0.54919  1.0000
  H   H321      1.0  0.28330  0.76944  0.45785  1.0000
  H   H322      1.0  0.30179  0.79596  0.50102  1.0000
  H   H323      1.0  0.26482  0.89018  0.55689  1.0000
  H   H324      1.0  0.11934  0.94091  0.64519  1.0000
  Fe  Fe39      1.0  0.28124  0.74577  0.35638  1.0000
  H   H325      1.0  0.26655  0.90243  0.60357  1.0000
  H   H326      1.0  0.29720  0.90886  0.59522  1.0000
  H   H327      1.0  0.30593  0.91543  0.46393  1.0000
  H   H328      1.0  0.30829  0.94547  0.40589  1.0000
  H   H329      1.0  0.24741  0.85456  0.32311  1.0000
  H   H330      1.0  0.30192  0.92637  0.38439  1.0000
  C   C202      1.0  0.31087  0.84954  0.51406  1.0000
  H   H331      1.0  0.24084  0.86678  0.60603  1.0000
  S   S80       1.0  0.30556  0.87089  0.49394  1.0000
  C   C203      1.0  0.28040  0.89584  0.60617  1.0000
  H   H332      1.0  0.28876  0.80431  0.42568  1.0000
  H   H333      1.0  0.29656  0.86443  0.62015  1.0000
  C   C204      1.0  0.25869  0.84490  0.32391  1.0000
  H   H334      1.0  0.28125  0.82349  0.44250  1.0000
  H   H335      1.0  0.29547  0.85603  0.58607  1.0000
  C   C205      1.0  0.25646  0.91153  0.33086  1.0000
  C   C206      1.0  0.27291  0.90179  0.32743  1.0000
  H   H336      1.0  0.31344  0.79983  0.46158  1.0000
  H   H337      1.0  0.31415  0.88189  0.58435  1.0000
  H   H338      1.0  0.22982  0.80997  0.31567  1.0000
  H   H339      1.0  0.12883  0.90301  0.88001  1.0000
  H   H340      1.0  0.14086  0.90478  0.69054  1.0000
  N   N20       1.0  0.27086  0.95527  0.79425  1.0000
  H   H341      1.0  0.25702  0.92405  0.78887  1.0000
  S   S81       1.0  0.11790  0.94645  0.77113  1.0000
  S   S82       1.0  0.07425  0.91988  0.74783  1.0000
  Fe  Fe40      1.0  0.10153  0.91331  0.76883  1.0000
  S   S83       1.0  0.12075  0.89267  0.75460  1.0000
  Fe  Fe41      1.0  0.08821  0.95201  0.75538  1.0000
  C   C207      1.0  0.13814  0.95041  0.85249  1.0000
  H   H342      1.0  0.19413  0.88264  0.75826  1.0000
  C   C208      1.0  0.17481  0.94777  0.82956  1.0000
  H   H343      1.0  0.13335  0.95685  0.68488  1.0000
  H   H344      1.0  0.11545  0.85481  0.89349  1.0000
  Fe  Fe42      1.0  0.23897  0.95314  0.70985  1.0000
  H   H345      1.0  0.17911  0.96879  0.88954  1.0000
  S   S84       1.0  0.22718  0.92435  0.74803  1.0000
  C   C209      1.0  0.00117  0.88161  0.78363  1.0000
  S   S85       1.0  0.21356  0.95871  0.85089  1.0000
  H   H346      1.0  0.11360  0.88055  0.81729  1.0000
  H   H347      1.0  0.10107  0.88420  0.88211  1.0000
  C   C210      1.0  0.17157  0.96225  0.87283  1.0000
  S   S86       1.0  0.27451  0.96740  0.67872  1.0000
  C   C211      1.0  0.14995  0.90124  0.75510  1.0000
  C   C212      1.0  0.16150  0.88684  0.75758  1.0000
  C   C213      1.0  0.18506  0.89367  0.75716  1.0000
  C   C214      1.0  0.19717  0.91500  0.75341  1.0000
  C   C215      1.0  0.18555  0.92930  0.75127  1.0000
  C   C216      1.0  0.16194  0.92238  0.75250  1.0000
  H   H348      1.0  0.15232  0.87047  0.75937  1.0000
  H   H349      1.0  0.19482  0.94581  0.74826  1.0000
  H   H350      1.0  0.15336  0.93362  0.75038  1.0000
  C   C217      1.0  0.13259  0.86522  0.87828  1.0000
  C   C218      1.0  0.01080  0.89127  0.75288  1.0000
  C   C219      1.0  0.26517  0.94804  0.82746  1.0000
  C   C220      1.0  0.13961  0.94358  0.69090  1.0000
  C   C221      1.0  0.18479  0.95623  0.85108  1.0000
  H   H351      1.0  0.14417  0.93871  0.81324  1.0000
  H   H352      1.0  0.12442  0.85960  0.82480  1.0000
  C   C222      1.0  0.27328  0.93803  0.78091  1.0000
  S   S87       1.0  0.07925  0.90216  0.81608  1.0000
  S   S88       1.0  0.06515  0.94395  0.80182  1.0000
  H   H353      1.0  0.15184  0.90573  0.81546  1.0000
  H   H354      1.0  0.14128  0.85502  0.86913  1.0000
  C   C223      1.0  0.99867  0.88506  0.73167  1.0000
  S   S89       1.0  0.01517  0.89014  0.81099  1.0000
  H   H355      1.0  0.25016  0.97497  0.79410  1.0000
  H   H356      1.0  0.02734  0.90385  0.74541  1.0000
  H   H357      1.0  0.11584  0.90524  0.84904  1.0000
  H   H358      1.0  0.27890  0.94315  0.83524  1.0000
  H   H359      1.0  0.14311  0.87325  0.89232  1.0000
  H   H360      1.0  0.27699  0.94280  0.75584  1.0000
  H   H361      1.0  0.09845  0.85895  0.84965  1.0000
  H   H362      1.0  0.13796  0.96335  0.89109  1.0000
  C   C224      1.0  0.15164  0.94515  0.82999  1.0000
  S   S90       1.0  0.09609  0.98165  0.71982  1.0000
  H   H363      1.0  0.25543  0.96629  0.76031  1.0000
  H   H364      1.0  0.15452  0.94947  0.70057  1.0000
  H   H365      1.0  0.00610  0.89285  0.70796  1.0000
  H   H366      1.0  0.16240  0.88465  0.82372  1.0000
  C   C225      1.0  0.11602  0.86935  0.83571  1.0000
  Fe  Fe43      1.0  0.09403  0.93580  0.81714  1.0000
  Fe  Fe44      1.0  0.05286  0.91125  0.79547  1.0000
  C   C226      1.0  0.11847  0.89377  0.86689  1.0000
  H   H367      1.0  0.16428  0.90286  0.84697  1.0000
  N   N21       1.0  0.13006  0.88058  0.85379  1.0000
  S   S91       1.0  0.10860  0.94607  0.85494  1.0000
  C   C227      1.0  0.15317  0.89402  0.83420  1.0000
  Fe  Fe45      1.0  0.22064  0.98345  0.67639  1.0000
  H   H368      1.0  0.26298  0.96063  0.83817  1.0000
  H   H369      1.0  0.18507  0.94336  0.81239  1.0000
  H   H370      1.0  0.12566  0.93097  0.70906  1.0000
  C   C228      1.0  0.25210  0.96158  0.78522  1.0000
  C   C229      1.0  0.14824  0.95912  0.87373  1.0000
  C   C230      1.0  0.29280  0.97344  0.78334  1.0000
  H   H371      1.0  0.30752  0.96913  0.78886  1.0000
  S   S92       1.0  0.22044  0.95157  0.67320  1.0000
  H   H372      1.0  0.24853  0.93450  0.83637  1.0000
  H   H373      1.0  0.23511  0.94845  0.79386  1.0000
  S   S93       1.0  0.23610  0.98368  0.71586  1.0000
  H   H374      1.0  0.28746  0.93297  0.78685  1.0000
  H   H375      1.0  0.29710  0.97980  0.75841  1.0000
  H   H376      1.0  0.11162  0.91522  0.66974  1.0000
  H   H377      1.0  0.16935  0.92337  0.68432  1.0000
  C   C231      1.0  0.15473  0.91839  0.67372  1.0000
  N   N22       1.0  0.14634  0.93577  0.66450  1.0000
  H   H378      1.0  0.16089  0.91268  0.65413  1.0000
  Fe  Fe46      1.0  0.23178  0.98601  0.86793  1.0000
  H   H379      1.0  0.13902  0.98273  0.80129  1.0000
  H   H380      1.0  0.29178  0.98647  0.79377  1.0000
  C   C232      1.0  0.12602  0.92812  0.65241  1.0000
  H   H381      1.0  0.18127  0.98842  0.79299  1.0000
  H   H382      1.0  0.08169  0.98779  0.77902  1.0000
  H   H383      1.0  0.18080  0.95855  0.64916  1.0000
  Fe  Fe47      1.0  0.39681  0.05213  0.25493  1.0000
  S   S94       1.0  0.38476  0.04111  0.21660  1.0000
  H   H384      1.0  0.41974  0.02683  0.23358  1.0000
  C   C233      1.0  0.46210  0.13540  0.01719  1.0000
  C   C234      1.0  0.41472  0.04625  0.07833  1.0000
  C   C235      1.0  0.44190  0.12870  0.10198  1.0000
  H   H385      1.0  0.46039  0.06048  0.05070  1.0000
  Fe  Fe48      1.0  0.41284  0.06997  0.18707  1.0000
  S   S95       1.0  0.43352  0.07161  0.14192  1.0000
  S   S96       1.0  0.42736  0.07903  0.22492  1.0000
  Fe  Fe49      1.0  0.58462  0.18681  0.08104  1.0000
  S   S97       1.0  0.57154  0.16960  0.12982  1.0000
  H   H386      1.0  0.48911  0.20775  0.03509  1.0000
  Fe  Fe50      1.0  0.53635  0.17470  0.07024  1.0000
  S   S98       1.0  0.51936  0.15775  0.11859  1.0000
  S   S99       1.0  0.51286  0.17784  0.03972  1.0000
  H   H387      1.0  0.52851  0.22986  0.19433  1.0000
  H   H388      1.0  0.35023  0.00542  0.20334  1.0000
  Fe  Fe51      1.0  0.54785  0.14452  0.11478  1.0000
  S   S100      1.0  0.53796  0.11131  0.14127  1.0000
  H   H389      1.0  0.46879  0.15512  0.20740  1.0000
  S   S101      1.0  0.56360  0.15983  0.06527  1.0000
  S   S102      1.0  0.44133  0.21556  0.10815  1.0000
  S   S103      1.0  0.37913  0.19124  0.15498  1.0000
  H   H390      1.0  0.47748  0.10845  0.24948  1.0000
  H   H391      1.0  0.47260  0.16835  0.01609  1.0000
  Fe  Fe52      1.0  0.54456  0.18419  0.12943  1.0000
  Fe  Fe53      1.0  0.41332  0.08865  0.01651  1.0000
  S   S104      1.0  0.38973  0.08612  0.06031  1.0000
  H   H392      1.0  0.33621  0.13250  0.14665  1.0000
  S   S105      1.0  0.41997  0.13091  0.22731  1.0000
  H   H393      1.0  0.51440  0.12014  0.20946  1.0000
  C   C236      1.0  0.41044  0.14133  0.11482  1.0000
  C   C237      1.0  0.42440  0.19135  0.03170  1.0000
  C   C238      1.0  0.42577  0.17773  0.01324  1.0000
  C   C239      1.0  0.40758  0.15850  0.01884  1.0000
  C   C240      1.0  0.38771  0.15327  0.04221  1.0000
  Fe  Fe54      1.0  0.40334  0.09723  0.22740  1.0000
  C   C241      1.0  0.49926  0.22653  0.12804  1.0000
  H   H394      1.0  0.41867  0.05592  0.05492  1.0000
  S   S106      1.0  0.44733  0.21504  0.02576  1.0000
  H   H395      1.0  0.49471  0.16329  0.17774  1.0000
  H   H396      1.0  0.44091  0.18194  0.99479  1.0000
  C   C242      1.0  0.44677  0.16482  0.08122  1.0000
  H   H397      1.0  0.32221  0.11126  0.09811  1.0000
  C   C243      1.0  0.62443  0.21711  0.11651  1.0000
  H   H398      1.0  0.43565  0.12378  0.08266  1.0000
  H   H399      1.0  0.43758  0.17547  0.20222  1.0000
  H   H400      1.0  0.44008  0.16645  0.13883  1.0000
  C   C244      1.0  0.38638  0.16699  0.06042  1.0000
  C   C245      1.0  0.42081  0.16918  0.19785  1.0000
  H   H401      1.0  0.60744  0.20540  0.12587  1.0000
  H   H402      1.0  0.48556  0.12752  0.16764  1.0000
  C   C246      1.0  0.43025  0.02172  0.06014  1.0000
  H   H403      1.0  0.36937  0.05676  0.16615  1.0000
  Fe  Fe55      1.0  0.37445  0.10486  0.03143  1.0000
  H   H404      1.0  0.45848  0.12116  0.19431  1.0000
  C   C247      1.0  0.46755  0.11714  0.02295  1.0000
  C   C248      1.0  0.48723  0.11767  0.03349  1.0000
  C   C249      1.0  0.50111  0.13618  0.03888  1.0000
  C   C250      1.0  0.49581  0.15447  0.03287  1.0000
  H   H405      1.0  0.32794  0.04448  0.99505  1.0000
  H   H406      1.0  0.52214  0.14365  0.18034  1.0000
  H   H407      1.0  0.49171  0.10369  0.03772  1.0000
  H   H408      1.0  0.51623  0.13641  0.04698  1.0000
  H   H409      1.0  0.43588  0.13949  0.15488  1.0000
  H   H410      1.0  0.41255  0.00993  0.06467  1.0000
  C   C251      1.0  0.50959  0.09825  0.14022  1.0000
  C   C252      1.0  0.50166  0.10505  0.11549  1.0000
  C   C253      1.0  0.47841  0.09610  0.11561  1.0000
  C   C254      1.0  0.46291  0.08084  0.14088  1.0000
  C   C255      1.0  0.47083  0.07370  0.16549  1.0000
  C   C256      1.0  0.49432  0.08219  0.16494  1.0000
  H   H411      1.0  0.51353  0.11725  0.09624  1.0000
  H   H412      1.0  0.47233  0.10138  0.09645  1.0000
  H   H413      1.0  0.45889  0.06165  0.18492  1.0000
  H   H414      1.0  0.50047  0.07686  0.18406  1.0000
  H   H415      1.0  0.43422  0.11484  0.12186  1.0000
  C   C257      1.0  0.38625  0.13964  0.20295  1.0000
  C   C258      1.0  0.37717  0.15323  0.18726  1.0000
  C   C259      1.0  0.39016  0.17469  0.17611  1.0000
  S   S107      1.0  0.39000  0.05873  0.00975  1.0000
  H   H416      1.0  0.39659  0.03508  0.08386  1.0000
  H   H417      1.0  0.37611  0.12310  0.21163  1.0000
  C   C260      1.0  0.51281  0.13595  0.20439  1.0000
  C   C261      1.0  0.41223  0.01105  0.24802  1.0000
  N   N23       1.0  0.48832  0.13443  0.21025  1.0000
  N   N24       1.0  0.43580  0.14684  0.10806  1.0000
  C   C262      1.0  0.34615  0.12303  0.13795  1.0000
  H   H418      1.0  0.40162  0.12795  0.13512  1.0000
  S   S108      1.0  0.32853  0.04697  0.21367  1.0000
  H   H419      1.0  0.41866  0.99662  0.21178  1.0000
  S   S109      1.0  0.55873  0.20306  0.08151  1.0000
  C   C263      1.0  0.63514  0.22162  0.08582  1.0000
  H   H420      1.0  0.37501  0.05035  0.11602  1.0000
  C   C264      1.0  0.53353  0.23285  0.01183  1.0000
  C   C265      1.0  0.48700  0.15565  0.20218  1.0000
  H   H421      1.0  0.46777  0.04303  0.07750  1.0000
  H   H422      1.0  0.40534  0.15484  0.11914  1.0000
  H   H423      1.0  0.46098  0.13254  0.09610  1.0000
  H   H424      1.0  0.36004  0.14721  0.18388  1.0000
  C   C266      1.0  0.31716  0.02376  0.14211  1.0000
  C   C267      1.0  0.47679  0.12449  0.24255  1.0000
  H   H425      1.0  0.44718  0.13526  0.00858  1.0000
  C   C268      1.0  0.47650  0.15412  0.02151  1.0000
  C   C269      1.0  0.63603  0.22738  0.13552  1.0000
  S   S110      1.0  0.36459  0.12949  0.04992  1.0000
  H   H426      1.0  0.46321  0.15666  0.12975  1.0000
  H   H427      1.0  0.45598  0.06175  0.08910  1.0000
  H   H428      1.0  0.49646  0.16610  0.21475  1.0000
  H   H429      1.0  0.51150  0.20110  0.12335  1.0000
  C   C270      1.0  0.35796  0.04392  0.13115  1.0000
  S   S111      1.0  0.62209  0.20757  0.06191  1.0000
  H   H430      1.0  0.42566  0.03189  0.12913  1.0000
  C   C271      1.0  0.35469  0.04758  0.15978  1.0000
  H   H431      1.0  0.40362  0.13684  0.09562  1.0000
  H   H432      1.0  0.43481  0.03124  0.03639  1.0000
  H   H433      1.0  0.47602  0.10509  0.19882  1.0000
  S   S112      1.0  0.37355  0.07088  0.26099  1.0000
  H   H434      1.0  0.52222  0.14539  0.21808  1.0000
  H   H435      1.0  0.35584  0.13157  0.11428  1.0000
  N   N25       1.0  0.43123  0.03519  0.08139  1.0000
  S   S113      1.0  0.34741  0.07669  0.02654  1.0000
  H   H436      1.0  0.54119  0.22519  0.02826  1.0000
  Fe  Fe56      1.0  0.37376  0.07915  0.98529  1.0000
  H   H437      1.0  0.50325  0.21131  0.06488  1.0000
  C   C272      1.0  0.49635  0.21927  0.04777  1.0000
  C   C273      1.0  0.45489  0.05073  0.07438  1.0000
  S   S114      1.0  0.45064  0.09358  0.01642  1.0000
  H   H438      1.0  0.48499  0.13394  0.25709  1.0000
  C   C274      1.0  0.41196  0.18266  0.18151  1.0000
  Fe  Fe57      1.0  0.36382  0.06181  0.22005  1.0000
  Fe  Fe58      1.0  0.40765  0.21981  0.12392  1.0000
  S   S115      1.0  0.39114  0.09019  0.18713  1.0000
  H   H439      1.0  0.42179  0.19931  0.17369  1.0000
  C   C275      1.0  0.47655  0.12152  0.19195  1.0000
  S   S116      1.0  0.39895  0.02844  0.29298  1.0000
  C   C276      1.0  0.44415  0.15260  0.13404  1.0000
  C   C277      1.0  0.40493  0.18561  0.05573  1.0000
  S   S117      1.0  0.34341  0.02812  0.08600  1.0000
  H   H440      1.0  0.35820  0.99559  0.26629  1.0000
  Fe  Fe59      1.0  0.36521  0.05819  0.05119  1.0000
  H   H441      1.0  0.35902  0.12262  0.15135  1.0000
  H   H442      1.0  0.44217  0.17868  0.08454  1.0000
  H   H443      1.0  0.41548  0.05709  0.09333  1.0000
  H   H444      1.0  0.44106  0.16079  0.06120  1.0000
  H   H445      1.0  0.46594  0.16967  0.07560  1.0000
  H   H446      1.0  0.45818  0.12286  0.24764  1.0000
  C   C278      1.0  0.40807  0.14764  0.20830  1.0000
  H   H447      1.0  0.40875  0.14806  0.00459  1.0000
  C   C279      1.0  0.33255  0.04021  0.17922  1.0000
  H   H448      1.0  0.44250  0.01310  0.06174  1.0000
  C   C280      1.0  0.51082  0.21272  0.13577  1.0000
  C   C281      1.0  0.34477  0.09006  0.12687  1.0000
  H   H449      1.0  0.40396  0.19547  0.07081  1.0000
  H   H450      1.0  0.35407  0.09794  0.10288  1.0000
  H   H451      1.0  0.49097  0.22559  0.10976  1.0000
  H   H452      1.0  0.37105  0.16331  0.07828  1.0000
  H   H453      1.0  0.62794  0.22326  0.15943  1.0000
  H   H454      1.0  0.35796  0.08879  0.13939  1.0000
  H   H455      1.0  0.43702  0.01345  0.11584  1.0000
  C   C282      1.0  0.52148  0.21407  0.15956  1.0000
  H   H456      1.0  0.52729  0.22142  0.99853  1.0000
  S   S118      1.0  0.53755  0.19822  0.16781  1.0000
  H   H457      1.0  0.33947  0.00926  0.25594  1.0000
  H   H458      1.0  0.33372  0.07388  0.12756  1.0000
  S   S119      1.0  0.40488  0.23341  0.07781  1.0000
  H   H459      1.0  0.40711  0.01039  0.11877  1.0000
  C   C283      1.0  0.40266  0.00766  0.27881  1.0000
  C   C284      1.0  0.42498  0.02210  0.11263  1.0000
  Fe  Fe60      1.0  0.43952  0.23070  0.06240  1.0000
  C   C285      1.0  0.33924  0.03207  0.12221  1.0000
  C   C286      1.0  0.52049  0.22899  0.17572  1.0000
  C   C287      1.0  0.41188  0.99399  0.23575  1.0000
  H   H460      1.0  0.48170  0.22290  0.05982  1.0000
  H   H461      1.0  0.33141  0.08950  0.18531  1.0000
  C   C288      1.0  0.31884  0.09051  0.17153  1.0000
  S   S120      1.0  0.39964  0.10934  0.98781  1.0000
  N   N26       1.0  0.33082  0.10163  0.13967  1.0000
  H   H462      1.0  0.56456  0.23890  0.11564  1.0000
  H   H463      1.0  0.59313  0.23820  0.10484  1.0000
  C   C289      1.0  0.34029  0.99337  0.26409  1.0000
  H   H464      1.0  0.49731  0.23701  0.99130  1.0000
  N   N27       1.0  0.51440  0.23845  0.02728  1.0000
  H   H465      1.0  0.36859  0.99165  0.21506  1.0000
  C   C290      1.0  0.35056  0.98966  0.21348  1.0000
  H   H466      1.0  0.37241  0.11475  0.83568  1.0000
  C   C291      1.0  0.31916  0.04775  0.71976  1.0000
  C   C292      1.0  0.32017  0.05254  0.74746  1.0000
  H   H467      1.0  0.33463  0.06546  0.74877  1.0000
  N   N28       1.0  0.33742  0.09373  0.84401  1.0000
  H   H468      1.0  0.33044  0.06051  0.85182  1.0000
  C   C293      1.0  0.32345  0.04090  0.97487  1.0000
  H   H469      1.0  0.36019  0.07608  0.84732  1.0000
  H   H470      1.0  0.33283  0.05699  0.69974  1.0000
  H   H471      1.0  0.34435  0.05542  0.89893  1.0000
  H   H472      1.0  0.35188  0.12747  0.83028  1.0000
  H   H473      1.0  0.31750  0.07816  0.88966  1.0000
  C   C294      1.0  0.33245  0.04722  0.92064  1.0000
  S   S121      1.0  0.36340  0.07412  0.94240  1.0000
  C   C295      1.0  0.33821  0.05246  0.94654  1.0000
  H   H474      1.0  0.34814  0.07566  0.81518  1.0000
  C   C296      1.0  0.33201  0.09285  0.87653  1.0000
  C   C297      1.0  0.34441  0.07575  0.83942  1.0000
  H   H475      1.0  0.34717  0.09324  0.88606  1.0000
  C   C298      1.0  0.35657  0.11354  0.82746  1.0000
  H   H476      1.0  0.36117  0.11462  0.80287  1.0000
  H   H477      1.0  0.32696  0.10633  0.88083  1.0000
  H   H478      1.0  0.32010  0.09313  0.80817  1.0000
  C   C299      1.0  0.31672  0.09279  0.83259  1.0000
  S   S122      1.0  0.58135  0.40313  0.09642  1.0000
  Fe  Fe61      1.0  0.42512  0.26453  0.08389  1.0000
  S   S123      1.0  0.45974  0.26329  0.06391  1.0000
  S   S124      1.0  0.41643  0.29346  0.07139  1.0000
  H   H479      1.0  0.50931  0.25513  0.17934  1.0000
  C   C300      1.0  0.55807  0.43837  0.17418  1.0000
  H   H480      1.0  0.50897  0.25778  0.05707  1.0000
  C   C301      1.0  0.60354  0.47611  0.99882  1.0000
  Fe  Fe62      1.0  0.56057  0.36941  0.10177  1.0000
  S   S125      1.0  0.54183  0.37660  0.06672  1.0000
  S   S126      1.0  0.57628  0.34393  0.10398  1.0000
  H   H481      1.0  0.48988  0.25243  0.01545  1.0000
  H   H482      1.0  0.61468  0.47240  0.98186  1.0000
  Fe  Fe63      1.0  0.51591  0.37847  0.10519  1.0000
  S   S127      1.0  0.47726  0.36810  0.11386  1.0000
  S   S128      1.0  0.53272  0.36797  0.14060  1.0000
  H   H483      1.0  0.63158  0.41918  0.19777  1.0000
  H   H484      1.0  0.59776  0.36181  0.17672  1.0000
  H   H485      1.0  0.62670  0.26661  0.10953  1.0000
  C   C302      1.0  0.61861  0.33956  0.09150  1.0000
  C   C303      1.0  0.63225  0.40365  0.19524  1.0000
  C   C304      1.0  0.61834  0.37212  0.10305  1.0000
  H   H486      1.0  0.62869  0.37343  0.16574  1.0000
  C   C305      1.0  0.58476  0.46008  0.01979  1.0000
  C   C306      1.0  0.58827  0.25162  0.15516  1.0000
  C   C307      1.0  0.45900  0.28675  0.16937  1.0000
  H   H487      1.0  0.60948  0.32440  0.08842  1.0000
  C   C308      1.0  0.46238  0.34904  0.09741  1.0000
  C   C309      1.0  0.43947  0.34675  0.09735  1.0000
  C   C310      1.0  0.42595  0.33024  0.08779  1.0000
  C   C311      1.0  0.43498  0.31547  0.07915  1.0000
  C   C312      1.0  0.45808  0.31787  0.07867  1.0000
  C   C313      1.0  0.47194  0.33490  0.08732  1.0000
  H   H488      1.0  0.43204  0.35764  0.10510  1.0000
  H   H489      1.0  0.40816  0.32847  0.08814  1.0000
  H   H490      1.0  0.46519  0.30657  0.07181  1.0000
  H   H491      1.0  0.48966  0.33662  0.08728  1.0000
  H   H492      1.0  0.43680  0.30699  0.13927  1.0000
  H   H493      1.0  0.57669  0.44211  0.20851  1.0000
  C   C314      1.0  0.52313  0.25343  0.04495  1.0000
  H   H494      1.0  0.53920  0.47521  0.13912  1.0000
  H   H495      1.0  0.47386  0.28624  0.17895  1.0000
  C   C315      1.0  0.60640  0.35254  0.09912  1.0000
  S   S129      1.0  0.53337  0.41292  0.10036  1.0000
  H   H496      1.0  0.44596  0.27058  0.17635  1.0000
  H   H497      1.0  0.53904  0.43929  0.14024  1.0000
  H   H498      1.0  0.47620  0.32760  0.14580  1.0000
  H   H499      1.0  0.41604  0.28739  0.17057  1.0000
  H   H500      1.0  0.46548  0.29085  0.14434  1.0000
  H   H501      1.0  0.59395  0.39480  0.15219  1.0000
  H   H502      1.0  0.43226  0.30697  0.21986  1.0000
  C   C316      1.0  0.55844  0.47918  0.17277  1.0000
  S   S130      1.0  0.56055  0.41398  0.17288  1.0000
  Fe  Fe64      1.0  0.55220  0.40228  0.13285  1.0000
  H   H503      1.0  0.42307  0.31487  0.16967  1.0000
  C   C317      1.0  0.62487  0.48603  0.06812  1.0000
  C   C318      1.0  0.56841  0.44926  0.19346  1.0000
  H   H504      1.0  0.55839  0.26820  0.13538  1.0000
  H   H505      1.0  0.55510  0.45296  0.05668  1.0000
  H   H506      1.0  0.58265  0.28888  0.13872  1.0000
  C   C319      1.0  0.64044  0.46838  0.17241  1.0000
  H   H507      1.0  0.60363  0.47025  0.14377  1.0000
  N   N29       1.0  0.44911  0.30205  0.17898  1.0000
  H   H508      1.0  0.46048  0.33544  0.17463  1.0000
  H   H509      1.0  0.42559  0.27987  0.21927  1.0000
  C   C320      1.0  0.43038  0.30285  0.16414  1.0000
  H   H510      1.0  0.59411  0.26215  0.16972  1.0000
  H   H511      1.0  0.48119  0.32336  0.18247  1.0000
  S   S131      1.0  0.58149  0.43387  0.02052  1.0000
  C   C321      1.0  0.43963  0.29556  0.21202  1.0000
  H   H512      1.0  0.45323  0.29450  0.22392  1.0000
  C   C322      1.0  0.46748  0.32299  0.17025  1.0000
  H   H513      1.0  0.62896  0.45161  0.02197  1.0000
  H   H514      1.0  0.61851  0.28592  0.08727  1.0000
  C   C323      1.0  0.56995  0.46518  0.04091  1.0000
  N   N30       1.0  0.59106  0.26368  0.12421  1.0000
  C   C324      1.0  0.61303  0.37112  0.18354  1.0000
  Fe  Fe65      1.0  0.56066  0.41038  0.06450  1.0000
  C   C325      1.0  0.58309  0.24894  0.10591  1.0000
  C   C326      1.0  0.60977  0.40338  0.15849  1.0000
  Fe  Fe66      1.0  0.45754  0.24837  0.11165  1.0000
  C   C327      1.0  0.64272  0.34643  0.08704  1.0000
  C   C328      1.0  0.57711  0.27746  0.12519  1.0000
  N   N31       1.0  0.61143  0.39146  0.18715  1.0000
  C   C329      1.0  0.54740  0.46802  0.15428  1.0000
  C   C330      1.0  0.64757  0.45575  0.01085  1.0000
  H   H515      1.0  0.59108  0.37875  0.23318  1.0000
  C   C331      1.0  0.59060  0.38776  0.21112  1.0000
  C   C332      1.0  0.64233  0.48483  0.18643  1.0000
  C   C333      1.0  0.61573  0.27658  0.11064  1.0000
  C   C334      1.0  0.64240  0.37903  0.09863  1.0000
  H   H516      1.0  0.53666  0.26821  0.03021  1.0000
  C   C335      1.0  0.56887  0.46977  0.19246  1.0000
  H   H517      1.0  0.57728  0.47825  0.20692  1.0000
  H   H518      1.0  0.61393  0.36146  0.20486  1.0000
  C   C336      1.0  0.54734  0.44768  0.15484  1.0000
  H   H519      1.0  0.61923  0.45887  0.11984  1.0000
  H   H520      1.0  0.62695  0.48609  0.19956  1.0000
  H   H521      1.0  0.62360  0.45685  0.17510  1.0000
  S   S132      1.0  0.48665  0.26052  0.13246  1.0000
  H   H522      1.0  0.64252  0.40754  0.99967  1.0000
  H   H523      1.0  0.57453  0.37890  0.20543  1.0000
  H   H524      1.0  0.59157  0.45926  0.11592  1.0000
  C   C337      1.0  0.50963  0.24322  0.16731  1.0000
  H   H525      1.0  0.58882  0.40287  0.21408  1.0000
  H   H526      1.0  0.60900  0.38181  0.10985  1.0000
  H   H527      1.0  0.51757  0.26257  0.98854  1.0000
  H   H528      1.0  0.62237  0.28782  0.12398  1.0000
  C   C338      1.0  0.60796  0.46847  0.12053  1.0000
  S   S133      1.0  0.42394  0.25134  0.13201  1.0000
  H   H529      1.0  0.63414  0.39518  0.21678  1.0000
  H   H530      1.0  0.63831  0.47866  0.06568  1.0000
  H   H531      1.0  0.60943  0.47552  0.06316  1.0000
  H   H532      1.0  0.54755  0.24688  0.99609  1.0000
  C   C339      1.0  0.64032  0.41921  0.01237  1.0000
  C   C340      1.0  0.57438  0.48623  0.04161  1.0000
  C   C341      1.0  0.50447  0.24811  0.00461  1.0000
  C   C342      1.0  0.49904  0.24198  0.14350  1.0000
  H   H533      1.0  0.62500  0.40630  0.13970  1.0000
  H   H534      1.0  0.58499  0.25739  0.08235  1.0000
  H   H535      1.0  0.62135  0.41505  0.02170  1.0000
  H   H536      1.0  0.57866  0.28674  0.10222  1.0000
  H   H537      1.0  0.60880  0.41895  0.16016  1.0000
  H   H538      1.0  0.53068  0.24657  0.06228  1.0000
  N   N32       1.0  0.61915  0.48916  0.09862  1.0000
  H   H539      1.0  0.59841  0.24095  0.15521  1.0000
  H   H540      1.0  0.56990  0.24155  0.16601  1.0000
  H   H541      1.0  0.31724  0.47675  0.45085  1.0000
  H   H542      1.0  0.62087  0.43905  0.97597  1.0000
  H   H543      1.0  0.64707  0.45924  0.95282  1.0000
  C   C343      1.0  0.63984  0.44294  0.96766  1.0000
  H   H544      1.0  0.64223  0.43214  0.95342  1.0000
  S   S134      1.0  0.60032  0.51385  0.22857  1.0000
  S   S135      1.0  0.62370  0.53766  0.15671  1.0000
  C   C344      1.0  0.63504  0.52635  0.28636  1.0000
  H   H545      1.0  0.52306  0.59893  0.28677  1.0000
  H   H546      1.0  0.57266  0.58166  0.10271  1.0000
  C   C345      1.0  0.59028  0.58073  0.09899  1.0000
  C   C346      1.0  0.61212  0.59129  0.25890  1.0000
  H   H547      1.0  0.56959  0.57291  0.05422  1.0000
  C   C347      1.0  0.61633  0.61215  0.26036  1.0000
  C   C348      1.0  0.55017  0.61345  0.21205  1.0000
  H   H548      1.0  0.59941  0.58961  0.03856  1.0000
  H   H549      1.0  0.57794  0.53369  0.08133  1.0000
  C   C349      1.0  0.52460  0.60252  0.26203  1.0000
  S   S136      1.0  0.63918  0.56210  0.20776  1.0000
  H   H550      1.0  0.46811  0.71772  0.27531  1.0000
  H   H551      1.0  0.55870  0.54405  0.10129  1.0000
  C   C350      1.0  0.60310  0.50093  0.10021  1.0000
  H   H552      1.0  0.43557  0.68358  0.28748  1.0000
  N   N33       1.0  0.59298  0.56640  0.07985  1.0000
  C   C351      1.0  0.56370  0.62650  0.25239  1.0000
  C   C352      1.0  0.53949  0.73069  0.29343  1.0000
  H   H553      1.0  0.58109  0.53893  0.11691  1.0000
  H   H554      1.0  0.62214  0.56287  0.09546  1.0000
  H   H555      1.0  0.58213  0.63131  0.23977  1.0000
  H   H556      1.0  0.47545  0.68372  0.28116  1.0000
  H   H557      1.0  0.56296  0.49011  0.05807  1.0000
  Fe  Fe67      1.0  0.63598  0.53095  0.19836  1.0000
  C   C353      1.0  0.55657  0.59019  0.25226  1.0000
  N   N34       1.0  0.54875  0.60816  0.24468  1.0000
  C   C354      1.0  0.59409  0.50206  0.02190  1.0000
  S   S137      1.0  0.60219  0.52760  0.02676  1.0000
  C   C355      1.0  0.46632  0.71575  0.29994  1.0000
  H   H558      1.0  0.62996  0.53101  0.26530  1.0000
  H   H559      1.0  0.56825  0.61786  0.19839  1.0000
  Fe  Fe68      1.0  0.62362  0.56742  0.16901  1.0000
  H   H560      1.0  0.62359  0.50910  0.98481  1.0000
  H   H561      1.0  0.56323  0.62299  0.27678  1.0000
  H   H562      1.0  0.62664  0.62491  0.24076  1.0000
  S   S138      1.0  0.58706  0.55414  0.19704  1.0000
  Fe  Fe69      1.0  0.60256  0.54568  0.23505  1.0000
  S   S139      1.0  0.60941  0.64249  0.28686  1.0000
  H   H563      1.0  0.61959  0.55550  0.06091  1.0000
  C   C356      1.0  0.57699  0.54483  0.09551  1.0000
  H   H564      1.0  0.53914  0.59993  0.20542  1.0000
  H   H565      1.0  0.59001  0.56302  0.03567  1.0000
  H   H566      1.0  0.63120  0.50113  0.05057  1.0000
  C   C357      1.0  0.60849  0.49699  0.00028  1.0000
  C   C358      1.0  0.58773  0.57332  0.05085  1.0000
  H   H567      1.0  0.61084  0.51662  0.08391  1.0000
  H   H568      1.0  0.55648  0.58622  0.27654  1.0000
  H   H569      1.0  0.61911  0.58807  0.23815  1.0000
  C   C359      1.0  0.60648  0.61651  0.28670  1.0000
  S   S140      1.0  0.56016  0.50527  0.16960  1.0000
  H   H570      1.0  0.64589  0.56811  0.26674  1.0000
  C   C360      1.0  0.59831  0.57479  0.28396  1.0000
  H   H571      1.0  0.57449  0.59372  0.23890  1.0000
  Fe  Fe70      1.0  0.58818  0.52375  0.18777  1.0000
  S   S141      1.0  0.63701  0.59724  0.13256  1.0000
  H   H572      1.0  0.51279  0.58852  0.25728  1.0000
  C   C361      1.0  0.64056  0.50111  0.10575  1.0000
  H   H573      1.0  0.62938  0.58257  0.06086  1.0000
  H   H574      1.0  0.55817  0.64032  0.24742  1.0000
  S   S142      1.0  0.59151  0.54866  0.28196  1.0000
  H   H575      1.0  0.59313  0.57536  0.12153  1.0000
  H   H576      1.0  0.51804  0.61565  0.25657  1.0000
  H   H577      1.0  0.54439  0.62697  0.20559  1.0000
  C   C362      1.0  0.61705  0.56678  0.07409  1.0000
  H   H578      1.0  0.60309  0.59692  0.08870  1.0000
  H   H579      1.0  0.54533  0.57585  0.24759  1.0000
  H   H580      1.0  0.53507  0.72775  0.27290  1.0000
  Fe  Fe71      1.0  0.63860  0.54649  0.99970  1.0000
  H   H581      1.0  0.63826  0.51141  0.28628  1.0000
  H   H582      1.0  0.63685  0.50366  0.12873  1.0000
  H   H583      1.0  0.59848  0.50340  0.12308  1.0000
  H   H584      1.0  0.45780  0.62348  0.29190  1.0000
  H   H585      1.0  0.48372  0.72411  0.30278  1.0000
  H   H586      1.0  0.55201  0.70497  0.30154  1.0000
  H   H587      1.0  0.61980  0.52313  0.30538  1.0000
  S   S143      1.0  0.56175  0.66595  0.30326  1.0000
  H   H588      1.0  0.58665  0.49236  0.09519  1.0000
  H   H589      1.0  0.49144  0.69124  0.30801  1.0000
  H   H590      1.0  0.45461  0.72400  0.30793  1.0000
  C   C363      1.0  0.47381  0.68328  0.30545  1.0000
  H   H591      1.0  0.63549  0.56017  0.30680  1.0000
  C   C364      1.0  0.59327  0.60001  0.31201  1.0000
  C   C365      1.0  0.58928  0.57916  0.31070  1.0000
  S   S144      1.0  0.50023  0.62849  0.30857  1.0000
  C   C366      1.0  0.54900  0.71777  0.30968  1.0000
  C   C367      1.0  0.43454  0.68284  0.31173  1.0000
  H   H592      1.0  0.39536  0.72040  0.45766  1.0000
  H   H593      1.0  0.47907  0.55420  0.44665  1.0000
  S   S145      1.0  0.36635  0.62495  0.45423  1.0000
  H   H594      1.0  0.44761  0.58732  0.41479  1.0000
  S   S146      1.0  0.42240  0.64741  0.44566  1.0000
  H   H595      1.0  0.47139  0.61425  0.43521  1.0000
  H   H596      1.0  0.59276  0.71211  0.44768  1.0000
  Fe  Fe72      1.0  0.39918  0.62395  0.42747  1.0000
  S   S147      1.0  0.40405  0.62777  0.37781  1.0000
  H   H597      1.0  0.32199  0.69156  0.36192  1.0000
  N   N35       1.0  0.31812  0.63932  0.52578  1.0000
  H   H598      1.0  0.35232  0.63872  0.52342  1.0000
  S   S148      1.0  0.39884  0.59571  0.46035  1.0000
  C   C368      1.0  0.33060  0.56460  0.45814  1.0000
  Fe  Fe73      1.0  0.38953  0.64603  0.47551  1.0000
  H   H599      1.0  0.55674  0.59782  0.48174  1.0000
  H   H600      1.0  0.34900  0.57330  0.45055  1.0000
  C   C369      1.0  0.44006  0.71745  0.48772  1.0000
  S   S149      1.0  0.54750  0.61715  0.34305  1.0000
  N   N36       1.0  0.47101  0.58255  0.44149  1.0000
  C   C370      1.0  0.39134  0.69160  0.44436  1.0000
  C   C371      1.0  0.39629  0.71322  0.43900  1.0000
  H   H601      1.0  0.52303  0.66667  0.42771  1.0000
  C   C372      1.0  0.40465  0.71641  0.38512  1.0000
  C   C373      1.0  0.39826  0.69468  0.39057  1.0000
  C   C374      1.0  0.39208  0.68236  0.42012  1.0000
  H   H602      1.0  0.39902  0.68737  0.37199  1.0000
  H   H603      1.0  0.38837  0.66577  0.42384  1.0000
  C   C375      1.0  0.45278  0.57438  0.47012  1.0000
  Fe  Fe74      1.0  0.57730  0.68812  0.52178  1.0000
  C   C376      1.0  0.57072  0.62624  0.49531  1.0000
  H   H604      1.0  0.49760  0.61168  0.41613  1.0000
  C   C377      1.0  0.57466  0.64778  0.48976  1.0000
  C   C378      1.0  0.55983  0.61449  0.47722  1.0000
  Fe  Fe75      1.0  0.57742  0.73121  0.49479  1.0000
  C   C379      1.0  0.50983  0.66971  0.44375  1.0000
  H   H605      1.0  0.49639  0.57413  0.46119  1.0000
  C   C380      1.0  0.46950  0.62781  0.35932  1.0000
  C   C381      1.0  0.44802  0.62759  0.37478  1.0000
  C   C382      1.0  0.43026  0.62623  0.36009  1.0000
  C   C383      1.0  0.45219  0.65184  0.51847  1.0000
  H   H606      1.0  0.48315  0.62891  0.37062  1.0000
  H   H607      1.0  0.44528  0.62879  0.39785  1.0000
  H   H608      1.0  0.47193  0.67964  0.45743  1.0000
  H   H609      1.0  0.50159  0.57710  0.42140  1.0000
  C   C384      1.0  0.48766  0.57143  0.44274  1.0000
  Fe  Fe76      1.0  0.36772  0.59882  0.48896  1.0000
  S   S150      1.0  0.59684  0.73369  0.59415  1.0000
  S   S151      1.0  0.54138  0.60975  0.42920  1.0000
  C   C385      1.0  0.55794  0.64600  0.44683  1.0000
  H   H610      1.0  0.48481  0.67658  0.40470  1.0000
  H   H611      1.0  0.64720  0.53337  0.33675  1.0000
  H   H612      1.0  0.53345  0.70870  0.44836  1.0000
  H   H613      1.0  0.43972  0.58219  0.46977  1.0000
  H   H614      1.0  0.57602  0.61863  0.51374  1.0000
  H   H615      1.0  0.42713  0.66597  0.32437  1.0000
  S   S152      1.0  0.52798  0.65026  0.37221  1.0000
  H   H616      1.0  0.49312  0.69362  0.47456  1.0000
  C   C386      1.0  0.48327  0.60525  0.43698  1.0000
  C   C387      1.0  0.50113  0.68974  0.40212  1.0000
  S   S153      1.0  0.45195  0.61864  0.49370  1.0000
  N   N37       1.0  0.32538  0.70936  0.39520  1.0000
  Fe  Fe77      1.0  0.41926  0.61952  0.48136  1.0000
  H   H617      1.0  0.54382  0.70479  0.41241  1.0000
  C   C388      1.0  0.41347  0.73173  0.51238  1.0000
  S   S154      1.0  0.60306  0.72042  0.51446  1.0000
  S   S155      1.0  0.58337  0.65612  0.36145  1.0000
  H   H618      1.0  0.48595  0.70762  0.44364  1.0000
  H   H619      1.0  0.47372  0.58557  0.39413  1.0000
  H   H620      1.0  0.51509  0.68813  0.38527  1.0000
  N   N38       1.0  0.50717  0.68983  0.43129  1.0000
  S   S156      1.0  0.38815  0.62007  0.51315  1.0000
  H   H621      1.0  0.52832  0.72245  0.41532  1.0000
  H   H622      1.0  0.51551  0.66977  0.46501  1.0000
  H   H623      1.0  0.43548  0.64993  0.51393  1.0000
  H   H624      1.0  0.57881  0.56643  0.33023  1.0000
  H   H625      1.0  0.49106  0.60841  0.45607  1.0000
  C   C389      1.0  0.46042  0.57925  0.41613  1.0000
  C   C390      1.0  0.48869  0.69278  0.45266  1.0000
  C   C391      1.0  0.32557  0.73027  0.39837  1.0000
  C   C392      1.0  0.55376  0.62440  0.45271  1.0000
  H   H626      1.0  0.60956  0.68466  0.41094  1.0000
  H   H627      1.0  0.39956  0.71598  0.51975  1.0000
  H   H628      1.0  0.44349  0.55720  0.47473  1.0000
  S   S157      1.0  0.55735  0.68635  0.56795  1.0000
  H   H629      1.0  0.63522  0.72998  0.55262  1.0000
  H   H630      1.0  0.55357  0.65372  0.42763  1.0000
  C   C393      1.0  0.52916  0.70720  0.42664  1.0000
  Fe  Fe78      1.0  0.54915  0.63051  0.38310  1.0000
  H   H631      1.0  0.49885  0.70473  0.39241  1.0000
  H   H632      1.0  0.45121  0.56228  0.41858  1.0000
  C   C394      1.0  0.55543  0.72201  0.33568  1.0000
  N   N39       1.0  0.43669  0.73012  0.50923  1.0000
  H   H633      1.0  0.32257  0.61446  0.50632  1.0000
  C   C395      1.0  0.46372  0.63826  0.51141  1.0000
  H   H634      1.0  0.49330  0.65624  0.44890  1.0000
  S   S158      1.0  0.55818  0.73354  0.53858  1.0000
  H   H635      1.0  0.61637  0.70302  0.45030  1.0000
  C   C396      1.0  0.31855  0.56269  0.48746  1.0000
  H   H636      1.0  0.45331  0.67837  0.53704  1.0000
  Fe  Fe79      1.0  0.56203  0.67497  0.34692  1.0000
  S   S159      1.0  0.38552  0.67621  0.48100  1.0000
  H   H637      1.0  0.63568  0.72164  0.63566  1.0000
  C   C397      1.0  0.47313  0.62657  0.32931  1.0000
  H   H638      1.0  0.32942  0.73308  0.41984  1.0000
  H   H639      1.0  0.45744  0.71601  0.48474  1.0000
  C   C398      1.0  0.64171  0.72384  0.39294  1.0000
  H   H640      1.0  0.46015  0.57733  0.48959  1.0000
  H   H641      1.0  0.34819  0.69163  0.39617  1.0000
  C   C399      1.0  0.56788  0.65759  0.46580  1.0000
  C   C400      1.0  0.34757  0.70720  0.39842  1.0000
  S   S160      1.0  0.55371  0.69897  0.49786  1.0000
  S   S161      1.0  0.58950  0.66234  0.51168  1.0000
  S   S162      1.0  0.33307  0.57395  0.51258  1.0000
  H   H642      1.0  0.44365  0.69965  0.35798  1.0000
  H   H643      1.0  0.51242  0.65919  0.53434  1.0000
  C   C401      1.0  0.48416  0.67082  0.53695  1.0000
  C   C402      1.0  0.48535  0.64086  0.51742  1.0000
  H   H644      1.0  0.57095  0.67417  0.46143  1.0000
  H   H645      1.0  0.32845  0.55608  0.41628  1.0000
  H   H646      1.0  0.33250  0.67111  0.49822  1.0000
  C   C403      1.0  0.49567  0.65724  0.52987  1.0000
  H   H647      1.0  0.49433  0.63037  0.51212  1.0000
  S   S163      1.0  0.49721  0.69194  0.55139  1.0000
  Fe  Fe80      1.0  0.53585  0.70032  0.54299  1.0000
  C   C404      1.0  0.46229  0.66795  0.53151  1.0000
  Fe  Fe81      1.0  0.58164  0.71965  0.55905  1.0000
  C   C405      1.0  0.45511  0.62456  0.31504  1.0000
  C   C406      1.0  0.32234  0.70717  0.36513  1.0000
  C   C407      1.0  0.32487  0.65473  0.49623  1.0000
  C   C408      1.0  0.45516  0.69148  0.34912  1.0000
  C   C409      1.0  0.40336  0.72569  0.40934  1.0000
  N   N40       1.0  0.61653  0.71783  0.40527  1.0000
  H   H648      1.0  0.42690  0.70132  0.49548  1.0000
  H   H649      1.0  0.36235  0.71945  0.38083  1.0000
  H   H650      1.0  0.33817  0.65207  0.47971  1.0000
  H   H651      1.0  0.41997  0.62336  0.31903  1.0000
  S   S164      1.0  0.56821  0.70668  0.35576  1.0000
  C   C410      1.0  0.60444  0.69752  0.39951  1.0000
  C   C411      1.0  0.33848  0.64177  0.53837  1.0000
  H   H652      1.0  0.58951  0.73012  0.39949  1.0000
  H   H653      1.0  0.35056  0.70886  0.42082  1.0000
  H   H654      1.0  0.46806  0.66657  0.31813  1.0000
  S   S165      1.0  0.32101  0.70612  0.51697  1.0000
  H   H655      1.0  0.54024  0.73682  0.48983  1.0000
  C   C412      1.0  0.60846  0.73414  0.39058  1.0000
  H   H656      1.0  0.45615  0.71844  0.53714  1.0000
  C   C413      1.0  0.43376  0.62455  0.33033  1.0000
  Fe  Fe82      1.0  0.52942  0.63930  0.32991  1.0000
  H   H657      1.0  0.33403  0.63065  0.56089  1.0000
  H   H658      1.0  0.33653  0.71941  0.34675  1.0000
  H   H659      1.0  0.58625  0.60331  0.33271  1.0000
  H   H660      1.0  0.60820  0.69840  0.37495  1.0000
  H   H661      1.0  0.58536  0.69280  0.40774  1.0000
  H   H662      1.0  0.42197  0.69034  0.31959  1.0000
  H   H663      1.0  0.62079  0.73067  0.44332  1.0000
  H   H664      1.0  0.43649  0.72918  0.55557  1.0000
  H   H665      1.0  0.47223  0.69856  0.35371  1.0000
  Fe  Fe83      1.0  0.58004  0.64467  0.32001  1.0000
  C   C414      1.0  0.61148  0.71579  0.43808  1.0000
  H   H666      1.0  0.64607  0.72544  0.36819  1.0000
  H   H667      1.0  0.50237  0.73515  0.48224  1.0000
  S   S166      1.0  0.41557  0.73189  0.34808  1.0000
  H   H668      1.0  0.42558  0.70388  0.54808  1.0000
  N   N41       1.0  0.45746  0.69334  0.31654  1.0000
  H   H669      1.0  0.34603  0.65803  0.54076  1.0000
  H   H670      1.0  0.44755  0.67473  0.36239  1.0000
  C   C415      1.0  0.43880  0.71994  0.53884  1.0000
  C   C416      1.0  0.31894  0.55486  0.43873  1.0000
  C   C417      1.0  0.55167  0.73875  0.34595  1.0000
  H   H671      1.0  0.43870  0.72476  0.46507  1.0000
  H   H672      1.0  0.61169  0.73597  0.36578  1.0000
  H   H673      1.0  0.64482  0.72489  0.72352  1.0000
  H   H674      1.0  0.60640  0.70545  0.71724  1.0000
  C   C418      1.0  0.61530  0.70490  0.69463  1.0000
  C   C419      1.0  0.64756  0.72242  0.65082  1.0000
  H   H675      1.0  0.61929  0.69016  0.69753  1.0000
  N   N42       1.0  0.63650  0.72358  0.68096  1.0000
  H   H676      1.0  0.60278  0.70380  0.68030  1.0000
  H   H677      1.0  0.63079  0.73750  0.79960  1.0000
  S   S167      1.0  0.38199  0.89598  0.29211  1.0000
  H   H678      1.0  0.38763  0.95460  0.30005  1.0000
  S   S168      1.0  0.52314  0.76317  0.28413  1.0000
  H   H679      1.0  0.32217  0.95114  0.27820  1.0000
  H   H680      1.0  0.43543  0.89164  0.30738  1.0000
  Fe  Fe84      1.0  0.37269  0.92232  0.26866  1.0000
  C   C420      1.0  0.34562  0.78758  0.28416  1.0000
  H   H681      1.0  0.38689  0.78022  0.29631  1.0000
  H   H682      1.0  0.35085  0.77587  0.27535  1.0000
  S   S169      1.0  0.34661  0.92139  0.30915  1.0000
  H   H683      1.0  0.34655  0.97981  0.19747  1.0000
  S   S170      1.0  0.36020  0.84998  0.25690  1.0000
  S   S171      1.0  0.34676  0.90189  0.24967  1.0000
  H   H684      1.0  0.35211  0.95983  0.25796  1.0000
  C   C421      1.0  0.34808  0.82384  0.27861  1.0000
  C   C422      1.0  0.33201  0.81796  0.30655  1.0000
  C   C423      1.0  0.40217  0.97353  0.25433  1.0000
  N   N43       1.0  0.33393  0.98003  0.24341  1.0000
  H   H685      1.0  0.32975  0.94838  0.24066  1.0000
  H   H686      1.0  0.36715  0.81307  0.24581  1.0000
  S   S172      1.0  0.39882  0.95231  0.23800  1.0000
  C   C424      1.0  0.39417  0.98731  0.29769  1.0000
  C   C425      1.0  0.35481  0.80860  0.26747  1.0000
  Fe  Fe85      1.0  0.35343  0.87517  0.27716  1.0000
  C   C426      1.0  0.39403  0.97025  0.28544  1.0000
  Fe  Fe86      1.0  0.32139  0.89885  0.29207  1.0000
  C   C427      1.0  0.33452  0.95895  0.25561  1.0000
  H   H687      1.0  0.32848  0.98634  0.28711  1.0000
  S   S173      1.0  0.47111  0.78182  0.30916  1.0000
  C   C428      1.0  0.53573  0.74743  0.30375  1.0000
  H   H688      1.0  0.41816  0.81147  0.29868  1.0000
  C   C429      1.0  0.32926  0.78164  0.31179  1.0000
  H   H689      1.0  0.40005  0.78696  0.38134  1.0000
  C   C430      1.0  0.62783  0.81514  0.51388  1.0000
  H   H690      1.0  0.45835  0.90279  0.32416  1.0000
  C   C431      1.0  0.64203  0.74182  0.56403  1.0000
  Fe  Fe87      1.0  0.34092  0.74062  0.50837  1.0000
  C   C432      1.0  0.60805  0.77806  0.53638  1.0000
  S   S174      1.0  0.46872  0.82777  0.34932  1.0000
  Fe  Fe88      1.0  0.47763  0.79931  0.34463  1.0000
  H   H691      1.0  0.41011  0.74083  0.52895  1.0000
  H   H692      1.0  0.32846  0.94044  0.44625  1.0000
  S   S175      1.0  0.42504  0.78590  0.48745  1.0000
  S   S176      1.0  0.50962  0.79225  0.35018  1.0000
  C   C433      1.0  0.45801  0.82121  0.38857  1.0000
  C   C434      1.0  0.47163  0.81590  0.40715  1.0000
  C   C435      1.0  0.46168  0.80591  0.43788  1.0000
  H   H693      1.0  0.35396  0.82456  0.44930  1.0000
  C   C436      1.0  0.42452  0.80661  0.43148  1.0000
  C   C437      1.0  0.43456  0.81702  0.40094  1.0000
  H   H694      1.0  0.48963  0.81856  0.39754  1.0000
  H   H695      1.0  0.47223  0.75094  0.49557  1.0000
  H   H696      1.0  0.40619  0.80245  0.44036  1.0000
  H   H697      1.0  0.42380  0.82053  0.38667  1.0000
  H   H698      1.0  0.62452  0.76553  0.61668  1.0000
  H   H699      1.0  0.61016  0.77979  0.55907  1.0000
  S   S177      1.0  0.36921  0.75780  0.46636  1.0000
  H   H700      1.0  0.40099  0.84783  0.37504  1.0000
  N   N44       1.0  0.42985  0.87653  0.35413  1.0000
  H   H701      1.0  0.43244  0.86246  0.39797  1.0000
  C   C438      1.0  0.55934  0.75580  0.44513  1.0000
  H   H702      1.0  0.34649  0.86024  0.48892  1.0000
  C   C439      1.0  0.39484  0.77604  0.36705  1.0000
  N   N45       1.0  0.32086  0.92006  0.41689  1.0000
  H   H703      1.0  0.41180  0.74014  0.49060  1.0000
  C   C440      1.0  0.32227  0.79678  0.32293  1.0000
  H   H704      1.0  0.53858  0.76412  0.33833  1.0000
  H   H705      1.0  0.40195  0.85998  0.33709  1.0000
  H   H706      1.0  0.32578  0.89035  0.42708  1.0000
  C   C441      1.0  0.35606  0.86144  0.38866  1.0000
  C   C442      1.0  0.53932  0.74495  0.46841  1.0000
  C   C443      1.0  0.62354  0.79071  0.48254  1.0000
  H   H707      1.0  0.35435  0.85597  0.34507  1.0000
  C   C444      1.0  0.33283  0.84808  0.50659  1.0000
  C   C445      1.0  0.35347  0.84912  0.36809  1.0000
  N   N46       1.0  0.39442  0.78730  0.33711  1.0000
  C   C446      1.0  0.41286  0.85682  0.35246  1.0000
  H   H708      1.0  0.45627  0.88610  0.37754  1.0000
  C   C447      1.0  0.45446  0.75140  0.49791  1.0000
  C   C448      1.0  0.53569  0.76496  0.41272  1.0000
  S   S178      1.0  0.34685  0.79216  0.41610  1.0000
  C   C449      1.0  0.35382  0.83130  0.42663  1.0000
  H   H709      1.0  0.47216  0.80132  0.45192  1.0000
  H   H710      1.0  0.62306  0.77481  0.48043  1.0000
  C   C450      1.0  0.35000  0.82779  0.37707  1.0000
  N   N47       1.0  0.62722  0.79389  0.51199  1.0000
  C   C451      1.0  0.41786  0.80233  0.32114  1.0000
  H   H711      1.0  0.40695  0.89390  0.34979  1.0000
  H   H712      1.0  0.33891  0.74306  0.37991  1.0000
  H   H713      1.0  0.35848  0.86209  0.43394  1.0000
  H   H714      1.0  0.34970  0.94816  0.39254  1.0000
  H   H715      1.0  0.55680  0.74224  0.36586  1.0000
  H   H716      1.0  0.60718  0.76187  0.53563  1.0000
  H   H717      1.0  0.45374  0.86206  0.36692  1.0000
  Fe  Fe89      1.0  0.35354  0.89313  0.33097  1.0000
  H   H718      1.0  0.45500  0.87815  0.31488  1.0000
  H   H719      1.0  0.38326  0.81007  0.35477  1.0000
  H   H720      1.0  0.64211  0.82752  0.49579  1.0000
  H   H721      1.0  0.40548  0.88180  0.38788  1.0000
  H   H722      1.0  0.33539  0.91695  0.45507  1.0000
  Fe  Fe90      1.0  0.48487  0.76393  0.38576  1.0000
  S   S179      1.0  0.31878  0.75544  0.33287  1.0000
  C   C452      1.0  0.43798  0.80078  0.44995  1.0000
  H   H723      1.0  0.61711  0.74968  0.39456  1.0000
  H   H724      1.0  0.42972  0.90490  0.36677  1.0000
  C   C453      1.0  0.41751  0.88987  0.36513  1.0000
  H   H725      1.0  0.57297  0.77435  0.39899  1.0000
  C   C454      1.0  0.55758  0.76600  0.41723  1.0000
  H   H726      1.0  0.40736  0.76767  0.36491  1.0000
  H   H727      1.0  0.59100  0.77920  0.53467  1.0000
  C   C455      1.0  0.35039  0.81883  0.40622  1.0000
  S   S180      1.0  0.45364  0.77231  0.38287  1.0000
  H   H728      1.0  0.43042  0.79412  0.31748  1.0000
  H   H729      1.0  0.53427  0.77248  0.39105  1.0000
  H   H730      1.0  0.61133  0.81737  0.51159  1.0000
  Fe  Fe91      1.0  0.34297  0.78036  0.52833  1.0000
  H   H731      1.0  0.63055  0.81794  0.53593  1.0000
  H   H732      1.0  0.45208  0.76162  0.51313  1.0000
  S   S181      1.0  0.35914  0.88789  0.37732  1.0000
  Fe  Fe92      1.0  0.44968  0.75452  0.34803  1.0000
  H   H733      1.0  0.34708  0.81826  0.36130  1.0000
  C   C456      1.0  0.35637  0.85258  0.41795  1.0000
  H   H734      1.0  0.39831  0.76275  0.31666  1.0000
  Fe  Fe93      1.0  0.35151  0.78129  0.46196  1.0000
  H   H735      1.0  0.42445  0.81365  0.33431  1.0000
  C   C457      1.0  0.37822  0.79878  0.34095  1.0000
  S   S182      1.0  0.36005  0.75660  0.53873  1.0000
  C   C458      1.0  0.63608  0.76153  0.60056  1.0000
  H   H736      1.0  0.35695  0.92489  0.40165  1.0000
  C   C459      1.0  0.31955  0.81492  0.54458  1.0000
  S   S183      1.0  0.48792  0.75019  0.43139  1.0000
  C   C460      1.0  0.44366  0.87159  0.37507  1.0000
  C   C461      1.0  0.33708  0.83064  0.52155  1.0000
  C   C462      1.0  0.51574  0.75382  0.43621  1.0000
  C   C463      1.0  0.44534  0.88778  0.32379  1.0000
  H   H737      1.0  0.37756  0.76436  0.37966  1.0000
  C   C464      1.0  0.34359  0.93093  0.39486  1.0000
  H   H738      1.0  0.60676  0.79196  0.47948  1.0000
  H   H739      1.0  0.35403  0.82953  0.51559  1.0000
  H   H740      1.0  0.45368  0.75937  0.47526  1.0000
  Fe  Fe94      1.0  0.38661  0.77621  0.49561  1.0000
  S   S184      1.0  0.37116  0.80124  0.48784  1.0000
  C   C465      1.0  0.54142  0.75119  0.33032  1.0000
  H   H741      1.0  0.34280  0.92838  0.37216  1.0000
  C   C466      1.0  0.62699  0.74650  0.58541  1.0000
  S   S185      1.0  0.32166  0.76279  0.50165  1.0000
  Fe  Fe95      1.0  0.50058  0.77186  0.31847  1.0000
  H   H742      1.0  0.36027  0.78786  0.35269  1.0000
  S   S186      1.0  0.58608  0.75527  0.45097  1.0000
  S   S187      1.0  0.32414  0.79247  0.56228  1.0000
  C   C467      1.0  0.32279  0.92346  0.44681  1.0000
  H   H743      1.0  0.63753  0.80245  0.46345  1.0000
  H   H744      1.0  0.37756  0.80772  0.31890  1.0000
  H   H745      1.0  0.38712  0.98472  0.32159  1.0000
  H   H746      1.0  0.42167  0.84654  0.34392  1.0000
  H   H747      1.0  0.36887  0.76095  0.33013  1.0000
  C   C468      1.0  0.38680  0.77211  0.31930  1.0000
  S   S188      1.0  0.32537  0.87019  0.31799  1.0000
  C   C469      1.0  0.51767  0.74399  0.46405  1.0000
  H   H748      1.0  0.40782  0.74245  0.40545  1.0000
  H   H749      1.0  0.32713  0.82966  0.31563  1.0000
  S   S189      1.0  0.47837  0.74310  0.35490  1.0000
  H   H750      1.0  0.62912  0.76276  0.75536  1.0000
  C   C470      1.0  0.64468  0.75909  0.75541  1.0000
  H   H751      1.0  0.64570  0.75704  0.66576  1.0000
  C   C471      1.0  0.64561  0.74481  0.78030  1.0000
  C   C472      1.0  0.63038  0.74272  0.67792  1.0000
  H   H752      1.0  0.62362  0.74505  0.70032  1.0000
  H   H753      1.0  0.61693  0.74204  0.66516  1.0000
  C   C473      1.0  0.68300  0.17761  0.09543  1.0000
  H   H754      1.0  0.72764  0.19277  0.09765  1.0000
  H   H755      1.0  0.66782  0.17871  0.08686  1.0000
  C   C474      1.0  0.89465  0.23089  0.03710  1.0000
  H   H756      1.0  0.71080  0.23003  0.08328  1.0000
  C   C475      1.0  0.71460  0.19488  0.11527  1.0000
  H   H757      1.0  0.69494  0.17473  0.07733  1.0000
  H   H758      1.0  0.67654  0.16358  0.11501  1.0000
  H   H759      1.0  0.89941  0.20341  0.08182  1.0000
  H   H760      1.0  0.68606  0.21494  0.13440  1.0000
  H   H761      1.0  0.68838  0.21654  0.06743  1.0000
  H   H762      1.0  0.66262  0.20129  0.12030  1.0000
  C   C476      1.0  0.70282  0.21507  0.07735  1.0000
  C   C477      1.0  0.65708  0.23718  0.07406  1.0000
  N   N48       1.0  0.69464  0.19692  0.10400  1.0000
  H   H763      1.0  0.67192  0.18702  0.14863  1.0000
  H   H764      1.0  0.72371  0.20922  0.12192  1.0000
  H   H765      1.0  0.93052  0.21225  0.07097  1.0000
  H   H766      1.0  0.71619  0.21366  0.05941  1.0000
  H   H767      1.0  0.91414  0.20144  0.04626  1.0000
  C   C478      1.0  0.67812  0.20017  0.12789  1.0000
  H   H768      1.0  0.87882  0.22466  0.05617  1.0000
  H   H769      1.0  0.70917  0.18130  0.13531  1.0000
  C   C479      1.0  0.91492  0.21152  0.06244  1.0000
  H   H770      1.0  0.89233  0.22013  0.02204  1.0000
  N   N49       1.0  0.91574  0.23270  0.04789  1.0000
  H   H771      1.0  0.93643  0.23310  0.00545  1.0000
  H   H772      1.0  0.90142  0.23862  0.08951  1.0000
  S   S190      1.0  0.76373  0.23909  0.07017  1.0000
  H   H773      1.0  0.94206  0.20055  0.62310  1.0000
  Fe  Fe96      1.0  0.94550  0.23819  0.64050  1.0000
  H   H774      1.0  0.94284  0.16478  0.62460  1.0000
  H   H775      1.0  0.95695  0.13650  0.61651  1.0000
  C   C480      1.0  0.92738  0.18697  0.63643  1.0000
  C   C481      1.0  0.96159  0.12213  0.61757  1.0000
  H   H776      1.0  0.97165  0.12343  0.59463  1.0000
  H   H777      1.0  0.97390  0.19790  0.63840  1.0000
  C   C482      1.0  0.92770  0.16668  0.63715  1.0000
  H   H778      1.0  0.94501  0.10864  0.62304  1.0000
  N   N50       1.0  0.97478  0.11967  0.64037  1.0000
  C   C483      1.0  0.98064  0.10050  0.64103  1.0000
  C   C484      1.0  0.95804  0.06582  0.83756  1.0000
  C   C485      1.0  0.88913  0.15181  0.67020  1.0000
  C   C486      1.0  0.96059  0.11786  0.67038  1.0000
  C   C487      1.0  0.95218  0.03236  0.77861  1.0000
  Fe  Fe97      1.0  0.88454  0.09881  0.69727  1.0000
  S   S191      1.0  0.89218  0.09607  0.74274  1.0000
  C   C488      1.0  0.97780  0.17524  0.67338  1.0000
  Fe  Fe98      1.0  0.83883  0.06213  0.72080  1.0000
  S   S192      1.0  0.84249  0.05666  0.76806  1.0000
  Fe  Fe99      1.0  0.85469  0.09159  0.75897  1.0000
  S   S193      1.0  0.84220  0.10861  0.79072  1.0000
  Fe  Fe100     1.0  0.87926  0.06134  0.74698  1.0000
  S   S194      1.0  0.89129  0.03589  0.76727  1.0000
  S   S195      1.0  0.84795  0.09685  0.71330  1.0000
  S   S196      1.0  0.87487  0.06433  0.69999  1.0000
  N   N51       1.0  0.94709  0.08080  0.84587  1.0000
  Fe  Fe101     1.0  0.92569  0.19738  0.84699  1.0000
  C   C489      1.0  0.93006  0.23734  0.75636  1.0000
  H   H779      1.0  0.96260  0.22564  0.92754  1.0000
  Fe  Fe102     1.0  0.92698  0.15457  0.87278  1.0000
  S   S197      1.0  0.95246  0.16670  0.89924  1.0000
  S   S198      1.0  0.91438  0.12110  0.86961  1.0000
  Fe  Fe103     1.0  0.93070  0.18610  0.91046  1.0000
  C   C490      1.0  0.91107  0.22840  0.96065  1.0000
  H   H780      1.0  0.77667  0.00326  0.70573  1.0000
  S   S199      1.0  0.90362  0.17167  0.88772  1.0000
  S   S200      1.0  0.94678  0.17920  0.82979  1.0000
  H   H781      1.0  0.94619  0.19220  0.71933  1.0000
  H   H782      1.0  0.88991  0.14932  0.72860  1.0000
  H   H783      1.0  0.79638  0.03431  0.77338  1.0000
  H   H784      1.0  0.95845  0.02013  0.78735  1.0000
  H   H785      1.0  0.91722  0.01117  0.78680  1.0000
  H   H786      1.0  0.90306  0.16962  0.79384  1.0000
  H   H787      1.0  0.86642  0.99298  0.70147  1.0000
  C   C491      1.0  0.89009  0.15955  0.74438  1.0000
  C   C492      1.0  0.91268  0.18067  0.77142  1.0000
  C   C493      1.0  0.78688  0.02057  0.76726  1.0000
  C   C494      1.0  0.86012  0.11099  0.81549  1.0000
  C   C495      1.0  0.87027  0.09589  0.82209  1.0000
  C   C496      1.0  0.88604  0.09856  0.84002  1.0000
  C   C497      1.0  0.89260  0.11681  0.85015  1.0000
  C   C498      1.0  0.88229  0.13183  0.84363  1.0000
  C   C499      1.0  0.86565  0.12869  0.82692  1.0000
  H   H788      1.0  0.86585  0.08206  0.81356  1.0000
  H   H789      1.0  0.89331  0.08655  0.84559  1.0000
  H   H790      1.0  0.88708  0.14588  0.85142  1.0000
  H   H791      1.0  0.85772  0.14036  0.82199  1.0000
  C   C500      1.0  0.92062  0.04300  0.76705  1.0000
  C   C501      1.0  0.93572  0.06388  0.75618  1.0000
  C   C502      1.0  0.95908  0.06897  0.75668  1.0000
  C   C503      1.0  0.92795  0.18490  0.71854  1.0000
  S   S201      1.0  0.91120  0.21467  0.81495  1.0000
  H   H792      1.0  0.92939  0.07606  0.74751  1.0000
  C   C504      1.0  0.77568  0.00307  0.72919  1.0000
  C   C505      1.0  0.78875  0.02075  0.73686  1.0000
  H   H793      1.0  0.91295  0.05747  0.86348  1.0000
  H   H794      1.0  0.97063  0.08511  0.74854  1.0000
  H   H795      1.0  0.87828  0.14947  0.76632  1.0000
  H   H796      1.0  0.87374  0.17417  0.68196  1.0000
  H   H797      1.0  0.92114  0.19785  0.71280  1.0000
  C   C506      1.0  0.90876  0.14904  0.65462  1.0000
  H   H798      1.0  0.85818  0.01550  0.70336  1.0000
  H   H799      1.0  0.95948  0.16794  0.68374  1.0000
  H   H800      1.0  0.82941  0.01441  0.74719  1.0000
  S   S202      1.0  0.91868  0.19236  0.95498  1.0000
  H   H801      1.0  0.90372  0.19214  0.76720  1.0000
  H   H802      1.0  0.95625  0.09862  0.79966  1.0000
  H   H803      1.0  0.94396  0.10436  0.67674  1.0000
  C   C507      1.0  0.83153  0.00021  0.76008  1.0000
  H   H804      1.0  0.94172  0.16034  0.75798  1.0000
  S   S203      1.0  0.80812  0.04242  0.70810  1.0000
  H   H805      1.0  0.88256  0.17143  0.73592  1.0000
  C   C508      1.0  0.77285  0.00238  0.78988  1.0000
  N   N52       1.0  0.91373  0.16961  0.74731  1.0000
  H   H806      1.0  0.96276  0.05767  0.85697  1.0000
  N   N53       1.0  0.77849  0.08304  0.76809  1.0000
  C   C509      1.0  0.77921  0.07359  0.74213  1.0000
  C   C510      1.0  0.79295  0.10559  0.75783  1.0000
  C   C511      1.0  0.78746  0.07226  0.79088  1.0000
  C   C512      1.0  0.75436  0.08070  0.78159  1.0000
  H   H807      1.0  0.76885  0.05648  0.74903  1.0000
  H   H808      1.0  0.79717  0.07523  0.73123  1.0000
  H   H809      1.0  0.77245  0.08119  0.72448  1.0000
  H   H810      1.0  0.79304  0.11316  0.77693  1.0000
  H   H811      1.0  0.81130  0.10790  0.74769  1.0000
  H   H812      1.0  0.78680  0.11430  0.74054  1.0000
  H   H813      1.0  0.78789  0.07940  0.81041  1.0000
  H   H814      1.0  0.80549  0.07348  0.78123  1.0000
  H   H815      1.0  0.77678  0.05528  0.79961  1.0000
  H   H816      1.0  0.75319  0.08756  0.80136  1.0000
  H   H817      1.0  0.74299  0.06385  0.78943  1.0000
  H   H818      1.0  0.74708  0.08874  0.76502  1.0000
  C   C513      1.0  0.92723  0.21953  0.95019  1.0000
  H   H819      1.0  0.96980  0.11564  0.68828  1.0000
  C   C514      1.0  0.92888  0.02731  0.77832  1.0000
  H   H820      1.0  0.91758  0.08029  0.87807  1.0000
  H   H821      1.0  0.96814  0.08982  0.87618  1.0000
  H   H822      1.0  0.92981  0.06109  0.89069  1.0000
  C   C515      1.0  0.92407  0.15339  0.75487  1.0000
  H   H823      1.0  0.95981  0.23445  0.81008  1.0000
  C   C516      1.0  0.96732  0.05315  0.76778  1.0000
  H   H824      1.0  0.92569  0.14515  0.73665  1.0000
  H   H825      1.0  0.91332  0.14130  0.77609  1.0000
  H   H826      1.0  0.92803  0.17731  0.69955  1.0000
  H   H827      1.0  0.89327  0.21841  0.97114  1.0000
  C   C517      1.0  0.88879  0.17210  0.66938  1.0000
  H   H828      1.0  0.93025  0.18954  0.77314  1.0000
  H   H829      1.0  0.77190  0.00208  0.81335  1.0000
  H   H830      1.0  0.87452  0.00775  0.72821  1.0000
  H   H831      1.0  0.92765  0.07948  0.81222  1.0000
  C   C518      1.0  0.92592  0.06937  0.87058  1.0000
  C   C519      1.0  0.94101  0.09101  0.81936  1.0000
  H   H832      1.0  0.87423  0.13840  0.68309  1.0000
  S   S204      1.0  0.95081  0.21347  0.87080  1.0000
  H   H833      1.0  0.93425  0.10349  0.82413  1.0000
  H   H834      1.0  0.97418  0.07388  0.81912  1.0000
  H   H835      1.0  0.94629  0.05358  0.82945  1.0000
  H   H836      1.0  0.95557  0.10856  0.86237  1.0000
  H   H837      1.0  0.84466  0.00570  0.77275  1.0000
  C   C520      1.0  0.86044  0.00165  0.71717  1.0000
  H   H838      1.0  0.95613  0.13220  0.67087  1.0000
  S   S205      1.0  0.97169  0.23155  0.66357  1.0000
  C   C521      1.0  0.96331  0.09694  0.85608  1.0000
  C   C522      1.0  0.93410  0.23150  0.78460  1.0000
  H   H839      1.0  0.97954  0.10585  0.83816  1.0000
  Fe  Fe104     1.0  0.97025  0.19298  0.85721  1.0000
  S   S206      1.0  0.91034  0.12379  0.65758  1.0000
  S   S207      1.0  0.90914  0.21480  0.65638  1.0000
  H   H840      1.0  0.81740  0.99393  0.71026  1.0000
  C   C523      1.0  0.95003  0.23247  0.93555  1.0000
  C   C524      1.0  0.90818  0.18970  0.65315  1.0000
  H   H841      1.0  0.91273  0.23176  0.75332  1.0000
  H   H842      1.0  0.81477  0.99068  0.77682  1.0000
  H   H843      1.0  0.91526  0.23336  0.86367  1.0000
  C   C525      1.0  0.95651  0.23891  0.78841  1.0000
  H   H844      1.0  0.96475  0.08625  0.64707  1.0000
  Fe  Fe105     1.0  0.92626  0.39852  0.17617  1.0000
  S   S208      1.0  0.90000  0.39276  0.21914  1.0000
  S   S209      1.0  0.95018  0.43157  0.15341  1.0000
  Fe  Fe106     1.0  0.91754  0.35209  0.18362  1.0000
  S   S210      1.0  0.89082  0.34243  0.22760  1.0000
  S   S211      1.0  0.92684  0.32764  0.16409  1.0000
  Fe  Fe107     1.0  0.87783  0.36617  0.20419  1.0000
  S   S212      1.0  0.84077  0.36228  0.20417  1.0000
  Fe  Fe108     1.0  0.91564  0.36978  0.23814  1.0000
  C   C526      1.0  0.95486  0.38131  0.27955  1.0000
  S   S213      1.0  0.90292  0.37394  0.15928  1.0000
  S   S214      1.0  0.94333  0.37732  0.19599  1.0000
  H   H845      1.0  0.94203  0.28767  0.28402  1.0000
  S   S215      1.0  0.88615  0.32077  0.01849  1.0000
  S   S216      1.0  0.94387  0.35796  0.02300  1.0000
  H   H846      1.0  0.93153  0.39680  0.01112  1.0000
  H   H847      1.0  0.82475  0.29788  0.13950  1.0000
  H   H848      1.0  0.91433  0.30961  0.22875  1.0000
  H   H849      1.0  0.88971  0.34533  0.09036  1.0000
  H   H850      1.0  0.91744  0.26163  0.05965  1.0000
  H   H851      1.0  0.85802  0.30271  0.08304  1.0000
  C   C527      1.0  0.85975  0.42195  0.19493  1.0000
  C   C528      1.0  0.74288  0.34994  0.13605  1.0000
  H   H852      1.0  0.87464  0.40131  0.15614  1.0000
  H   H853      1.0  0.74956  0.36337  0.07560  1.0000
  S   S217      1.0  0.76979  0.33323  0.06270  1.0000
  S   S218      1.0  0.73045  0.27554  0.08538  1.0000
  Fe  Fe109     1.0  0.91349  0.45300  0.01968  1.0000
  S   S219      1.0  0.92729  0.30007  0.01306  1.0000
  H   H854      1.0  0.92680  0.33475  0.25883  1.0000
  Fe  Fe110     1.0  0.86932  0.41993  0.05881  1.0000
  S   S220      1.0  0.84754  0.43086  0.03130  1.0000
  S   S221      1.0  0.85397  0.39148  0.09750  1.0000
  N   N54       1.0  0.80231  0.30679  0.00070  1.0000
  C   C529      1.0  0.83390  0.31423  0.12513  1.0000
  Fe  Fe111     1.0  0.86998  0.46304  0.03044  1.0000
  Fe  Fe112     1.0  0.75266  0.25797  0.09999  1.0000
  S   S222      1.0  0.89530  0.41981  0.01958  1.0000
  S   S223      1.0  0.88917  0.45195  0.06197  1.0000
  C   C530      1.0  0.79437  0.34807  0.07174  1.0000
  C   C531      1.0  0.79695  0.34344  0.10113  1.0000
  C   C532      1.0  0.81549  0.35677  0.10894  1.0000
  C   C533      1.0  0.83211  0.37385  0.08709  1.0000
  C   C534      1.0  0.83054  0.37735  0.05720  1.0000
  C   C535      1.0  0.81128  0.36492  0.04970  1.0000
  H   H855      1.0  0.78425  0.33012  0.11818  1.0000
  H   H856      1.0  0.81683  0.35416  0.13193  1.0000
  H   H857      1.0  0.84407  0.38969  0.03979  1.0000
  H   H858      1.0  0.80963  0.36838  0.02680  1.0000
  C   C536      1.0  0.82735  0.47225  0.06829  1.0000
  H   H859      1.0  0.68502  0.44461  0.99898  1.0000
  C   C537      1.0  0.78767  0.46693  0.09230  1.0000
  H   H860      1.0  0.73741  0.38357  0.07728  1.0000
  H   H861      1.0  0.71038  0.36815  0.14167  1.0000
  C   C538      1.0  0.82584  0.45391  0.08852  1.0000
  H   H862      1.0  0.92919  0.29192  0.22238  1.0000
  C   C539      1.0  0.81611  0.29307  0.00471  1.0000
  H   H863      1.0  0.68533  0.25964  0.08357  1.0000
  C   C540      1.0  0.96893  0.45823  0.09701  1.0000
  H   H864      1.0  0.65380  0.47211  0.99641  1.0000
  H   H865      1.0  0.77296  0.47197  0.09359  1.0000
  H   H866      1.0  0.84449  0.25232  0.02212  1.0000
  S   S224      1.0  0.74660  0.47378  0.00852  1.0000
  H   H867      1.0  0.75320  0.34291  0.12223  1.0000
  H   H868      1.0  0.87638  0.42983  0.20013  1.0000
  H   H869      1.0  0.81307  0.32299  0.03365  1.0000
  H   H870      1.0  0.91051  0.28768  0.25896  1.0000
  C   C541      1.0  0.93358  0.33620  0.12466  1.0000
  C   C542      1.0  0.94092  0.35761  0.11042  1.0000
  C   C543      1.0  0.94452  0.36427  0.07910  1.0000
  C   C544      1.0  0.94042  0.34951  0.06199  1.0000
  C   C545      1.0  0.93314  0.32811  0.07629  1.0000
  C   C546      1.0  0.92999  0.32147  0.10753  1.0000
  H   H871      1.0  0.94401  0.36911  0.12347  1.0000
  H   H872      1.0  0.95017  0.38085  0.06832  1.0000
  H   H873      1.0  0.92998  0.31663  0.06335  1.0000
  H   H874      1.0  0.92419  0.30489  0.11849  1.0000
  C   C547      1.0  0.95169  0.43954  0.11497  1.0000
  C   C548      1.0  0.93528  0.42780  0.10240  1.0000
  C   C549      1.0  0.93544  0.43518  0.07233  1.0000
  C   C550      1.0  0.95245  0.45401  0.05441  1.0000
  S   S225      1.0  0.85182  0.48549  0.03808  1.0000
  S   S226      1.0  0.68798  0.43462  0.06629  1.0000
  H   H875      1.0  0.92210  0.41330  0.11594  1.0000
  H   H876      1.0  0.92224  0.42626  0.06318  1.0000
  C   C551      1.0  0.83978  0.25465  0.06811  1.0000
  C   C552      1.0  0.95434  0.29942  0.26343  1.0000
  C   C553      1.0  0.82277  0.33791  0.20129  1.0000
  C   C554      1.0  0.80268  0.33671  0.19144  1.0000
  C   C555      1.0  0.78870  0.31771  0.18740  1.0000
  C   C556      1.0  0.79422  0.29959  0.19450  1.0000
  C   C557      1.0  0.94861  0.40957  0.00618  1.0000
  C   C558      1.0  0.82825  0.31978  0.20844  1.0000
  H   H877      1.0  0.79820  0.35063  0.18627  1.0000
  H   H878      1.0  0.77349  0.31700  0.17924  1.0000
  H   H879      1.0  0.76989  0.28092  0.01403  1.0000
  H   H880      1.0  0.71987  0.35669  0.09499  1.0000
  H   H881      1.0  0.81692  0.28879  0.02860  1.0000
  H   H882      1.0  0.79614  0.43287  0.01102  1.0000
  H   H883      1.0  0.82953  0.25483  0.11468  1.0000
  C   C559      1.0  0.76848  0.38558  0.11138  1.0000
  H   H884      1.0  0.78082  0.38008  0.09778  1.0000
  H   H885      1.0  0.77421  0.38769  0.13218  1.0000
  H   H886      1.0  0.77017  0.40140  0.09829  1.0000
  C   C560      1.0  0.86899  0.44912  0.14916  1.0000
  C   C561      1.0  0.83974  0.41527  0.15621  1.0000
  H   H887      1.0  0.85605  0.45543  0.15955  1.0000
  H   H888      1.0  0.88606  0.45783  0.15258  1.0000
  H   H889      1.0  0.85451  0.40483  0.20532  1.0000
  H   H890      1.0  0.84085  0.41851  0.13161  1.0000
  H   H891      1.0  0.83442  0.39791  0.16480  1.0000
  H   H892      1.0  0.82725  0.31562  0.10461  1.0000
  S   S227      1.0  0.73269  0.24631  0.14835  1.0000
  H   H893      1.0  0.78242  0.45106  0.02051  1.0000
  H   H894      1.0  0.80250  0.24110  0.02441  1.0000
  C   C562      1.0  0.81383  0.30062  0.20544  1.0000
  H   H895      1.0  0.93257  0.24734  0.07867  1.0000
  C   C563      1.0  0.96024  0.32841  0.22149  1.0000
  H   H896      1.0  0.89686  0.42594  0.15287  1.0000
  H   H897      1.0  0.87055  0.45286  0.12446  1.0000
  N   N55       1.0  0.86209  0.42627  0.16206  1.0000
  H   H898      1.0  0.77863  0.29130  0.04405  1.0000
  H   H899      1.0  0.82569  0.42016  0.16715  1.0000
  H   H900      1.0  0.88414  0.30797  0.09549  1.0000
  C   C564      1.0  0.72878  0.37857  0.13679  1.0000
  S   S228      1.0  0.89595  0.46687  0.98794  1.0000
  C   C565      1.0  0.80843  0.24417  0.04404  1.0000
  C   C566      1.0  0.96950  0.46533  0.06658  1.0000
  H   H901      1.0  0.84640  0.42741  0.20641  1.0000
  H   H902      1.0  0.96586  0.37098  0.24056  1.0000
  C   C567      1.0  0.81375  0.48563  0.98169  1.0000
  N   N56       1.0  0.74445  0.37067  0.11865  1.0000
  H   H903      1.0  0.73318  0.37997  0.15857  1.0000
  H   H904      1.0  0.72474  0.33867  0.14326  1.0000
  C   C568      1.0  0.73755  0.36850  0.09041  1.0000
  H   H905      1.0  0.84041  0.44862  0.08675  1.0000
  C   C569      1.0  0.80529  0.44219  0.11082  1.0000
  C   C570      1.0  0.92346  0.29990  0.23933  1.0000
  H   H906      1.0  0.73008  0.39443  0.12473  1.0000
  C   C571      1.0  0.87992  0.41867  0.14795  1.0000
  C   C572      1.0  0.68198  0.48148  0.15215  1.0000
  S   S229      1.0  0.69500  0.41491  0.13274  1.0000
  H   H907      1.0  0.85856  0.30404  0.16218  1.0000
  H   H908      1.0  0.88625  0.32263  0.14045  1.0000
  Fe  Fe113     1.0  0.75460  0.30236  0.09667  1.0000
  H   H909      1.0  0.83119  0.33468  0.99603  1.0000
  H   H910      1.0  0.81802  0.28659  0.21130  1.0000
  H   H911      1.0  0.74935  0.35105  0.15660  1.0000
  H   H912      1.0  0.88277  0.42229  0.12302  1.0000
  Fe  Fe114     1.0  0.69824  0.40822  0.08748  1.0000
  H   H913      1.0  0.70496  0.48249  0.02919  1.0000
  Fe  Fe115     1.0  0.88870  0.28883  0.02355  1.0000
  C   C573      1.0  0.80019  0.24649  0.09578  1.0000
  C   C574      1.0  0.86737  0.31946  0.14522  1.0000
  H   H914      1.0  0.86408  0.33176  0.15587  1.0000
  H   H915      1.0  0.80399  0.42784  0.12609  1.0000
  C   C575      1.0  0.78609  0.44854  0.11240  1.0000
  H   H916      1.0  0.89527  0.24643  0.02439  1.0000
  S   S230      1.0  0.68480  0.37513  0.08392  1.0000
  C   C576      1.0  0.87052  0.34075  0.09644  1.0000
  S   S231      1.0  0.77729  0.27552  0.18954  1.0000
  C   C577      1.0  0.77855  0.29571  0.01998  1.0000
  C   C578      1.0  0.86511  0.30392  0.10308  1.0000
  S   S232      1.0  0.92507  0.36968  0.28259  1.0000
  H   H917      1.0  0.84343  0.32045  0.21662  1.0000
  H   H918      1.0  0.78793  0.24510  0.11629  1.0000
  H   H919      1.0  0.69727  0.48046  0.13859  1.0000
  N   N57       1.0  0.85924  0.31959  0.11742  1.0000
  Fe  Fe116     1.0  0.92481  0.33209  0.00449  1.0000
  H   H920      1.0  0.82879  0.32481  0.13796  1.0000
  H   H921      1.0  0.86634  0.35291  0.10665  1.0000
  S   S233      1.0  0.73468  0.29503  0.14473  1.0000
  Fe  Fe117     1.0  0.87521  0.43324  0.99178  1.0000
  Fe  Fe118     1.0  0.72575  0.45373  0.05429  1.0000
  H   H922      1.0  0.80343  0.33730  0.00574  1.0000
  C   C579      1.0  0.80837  0.47894  0.07053  1.0000
  H   H923      1.0  0.85796  0.28799  0.11890  1.0000
  Fe  Fe119     1.0  0.68794  0.44308  0.11052  1.0000
  H   H924      1.0  0.76771  0.30574  0.01816  1.0000
  C   C580      1.0  0.66015  0.46708  0.15449  1.0000
  C   C581      1.0  0.81298  0.32628  0.00942  1.0000
  C   C582      1.0  0.79931  0.44958  0.01111  1.0000
  S   S234      1.0  0.75961  0.43262  0.13777  1.0000
  S   S235      1.0  0.86933  0.26387  0.06634  1.0000
  S   S236      1.0  0.72498  0.46477  0.09656  1.0000
  S   S237      1.0  0.95119  0.46393  0.01760  1.0000
  H   H925      1.0  0.66528  0.24111  0.05021  1.0000
  S   S238      1.0  0.73605  0.42651  0.07106  1.0000
  H   H926      1.0  0.81026  0.45328  0.02698  1.0000
  Fe  Fe120     1.0  0.73217  0.43562  0.11463  1.0000
  Fe  Fe121     1.0  0.75717  0.27603  0.15414  1.0000
  S   S239      1.0  0.77881  0.28584  0.10669  1.0000
  H   H927      1.0  0.86484  0.34156  0.07514  1.0000
  S   S240      1.0  0.65654  0.44856  0.13308  1.0000
  H   H928      1.0  0.96074  0.29070  0.24813  1.0000
  C   C583      1.0  0.79257  0.24286  0.07025  1.0000
  H   H929      1.0  0.92162  0.31304  0.28999  1.0000
  C   C584      1.0  0.83215  0.25059  0.04272  1.0000
  H   H930      1.0  0.97279  0.42341  0.24311  1.0000
  C   C585      1.0  0.82374  0.25202  0.09487  1.0000
  Fe  Fe122     1.0  0.71212  0.26625  0.13427  1.0000
  C   C586      1.0  0.73150  0.48700  0.98957  1.0000
  H   H931      1.0  0.94601  0.42183  0.01728  1.0000
  H   H932      1.0  0.95231  0.33863  0.20942  1.0000
  H   H933      1.0  0.95996  0.40287  0.01724  1.0000
  H   H934      1.0  0.96940  0.30887  0.27045  1.0000
  N   N58       1.0  0.94323  0.31295  0.24847  1.0000
  C   C587      1.0  0.93488  0.32411  0.26961  1.0000
  S   S241      1.0  0.67307  0.25380  0.14878  1.0000
  H   H935      1.0  0.95268  0.24490  0.02950  1.0000
  H   H936      1.0  0.97526  0.33881  0.22749  1.0000
  H   H937      1.0  0.83420  0.30088  0.99067  1.0000
  H   H938      1.0  0.96693  0.32058  0.20498  1.0000
  C   C588      1.0  0.96232  0.39231  0.30042  1.0000
  H   H939      1.0  0.94919  0.33397  0.27739  1.0000
  C   C589      1.0  0.93642  0.24274  0.02211  1.0000
  H   H940      1.0  0.96054  0.43070  0.21285  1.0000
  C   C590      1.0  0.65835  0.24234  0.12396  1.0000
  C   C591      1.0  0.91692  0.24560  0.06993  1.0000
  H   H941      1.0  0.80862  0.27827  0.99820  1.0000
  H   H942      1.0  0.79687  0.48748  0.98989  1.0000
  C   C592      1.0  0.97203  0.43706  0.22708  1.0000
  H   H943      1.0  0.93727  0.25851  0.00989  1.0000
  H   H944      1.0  0.65218  0.33653  0.08066  1.0000
  C   C593      1.0  0.65464  0.36628  0.09033  1.0000
  H   H945      1.0  0.96354  0.44557  0.24061  1.0000
  C   C594      1.0  0.97129  0.37992  0.25617  1.0000
  H   H946      1.0  0.65696  0.45560  0.02890  1.0000
  C   C595      1.0  0.67597  0.44586  0.98067  1.0000
  C   C596      1.0  0.66862  0.24754  0.09304  1.0000
  H   H947      1.0  0.65145  0.39420  0.10172  1.0000
  N   N59       1.0  0.81063  0.46374  0.98059  1.0000
  H   H948      1.0  0.88348  0.39383  0.98457  1.0000
  H   H949      1.0  0.84515  0.46710  0.98430  1.0000
  N   N60       1.0  0.65094  0.44092  0.99290  1.0000
  H   H950      1.0  0.64809  0.41711  0.03185  1.0000
  H   H951      1.0  0.64823  0.40694  0.17739  1.0000
  C   C597      1.0  0.71153  0.48932  0.00515  1.0000
  S   S242      1.0  0.96833  0.24680  0.59365  1.0000
  S   S243      1.0  0.95463  0.27125  0.64528  1.0000
  H   H952      1.0  0.96460  0.31395  0.62004  1.0000
  H   H953      1.0  0.97178  0.34465  0.64189  1.0000
  H   H954      1.0  0.95643  0.33988  0.49310  1.0000
  H   H955      1.0  0.94971  0.39328  0.31875  1.0000
  H   H956      1.0  0.96782  0.34220  0.45389  1.0000
  H   H957      1.0  0.96056  0.36334  0.46518  1.0000
  C   C598      1.0  0.97747  0.32881  0.60706  1.0000
  C   C599      1.0  0.96810  0.35104  0.47157  1.0000
  H   H958      1.0  0.98005  0.36150  0.52046  1.0000
  Fe  Fe123     1.0  0.97979  0.27949  0.60019  1.0000
  C   C600      1.0  0.98131  0.34627  0.61927  1.0000
  C   C601      1.0  0.95671  0.25425  0.93161  1.0000
  C   C602      1.0  0.85578  0.36780  0.92744  1.0000
  C   C603      1.0  0.94360  0.42751  0.95969  1.0000
  S   S244      1.0  0.94914  0.29050  0.93584  1.0000
  C   C604      1.0  0.86696  0.35776  0.94519  1.0000
  C   C605      1.0  0.97483  0.25237  0.76409  1.0000
  H   H959      1.0  0.84652  0.39527  0.91591  1.0000
  C   C606      1.0  0.83346  0.46205  0.96965  1.0000
  H   H960      1.0  0.84792  0.36047  0.91153  1.0000
  C   C607      1.0  0.79594  0.45770  0.95997  1.0000
  C   C608      1.0  0.87708  0.36732  0.96569  1.0000
  C   C609      1.0  0.91776  0.25019  0.95673  1.0000
  H   H961      1.0  0.97297  0.39388  0.96970  1.0000
  H   H962      1.0  0.94117  0.44038  0.96965  1.0000
  C   C610      1.0  0.85494  0.38747  0.92996  1.0000
  C   C611      1.0  0.91641  0.26920  0.82886  1.0000
  S   S245      1.0  0.86698  0.33276  0.94268  1.0000
  H   H963      1.0  0.95375  0.26099  0.84074  1.0000
  C   C612      1.0  0.97091  0.25761  0.73561  1.0000
  C   C613      1.0  0.94061  0.26315  0.94220  1.0000
  H   H964      1.0  0.81911  0.32064  0.95364  1.0000
  C   C614      1.0  0.86494  0.39704  0.95059  1.0000
  H   H965      1.0  0.95747  0.28805  0.83892  1.0000
  H   H966      1.0  0.94540  0.25407  0.70980  1.0000
  H   H967      1.0  0.89646  0.27733  0.87879  1.0000
  H   H968      1.0  0.95313  0.27017  0.87431  1.0000
  S   S246      1.0  0.86367  0.42178  0.95318  1.0000
  S   S247      1.0  0.92716  0.33515  0.95522  1.0000
  C   C615      1.0  0.94855  0.25001  0.73173  1.0000
  C   C616      1.0  0.91536  0.28051  0.87489  1.0000
  C   C617      1.0  0.94784  0.27165  0.85274  1.0000
  H   H969      1.0  0.97441  0.26420  0.92033  1.0000
  N   N61       1.0  0.92255  0.26645  0.85810  1.0000
  H   H970      1.0  0.80385  0.46817  0.93677  1.0000
  H   H971      1.0  0.90514  0.25692  0.96445  1.0000
  H   H972      1.0  0.67919  0.43498  0.96699  1.0000
  C   C618      1.0  0.80150  0.31204  0.96883  1.0000
  C   C619      1.0  0.91060  0.24441  0.87590  1.0000
  H   H973      1.0  0.92202  0.25912  0.81540  1.0000
  H   H974      1.0  0.92480  0.28573  0.81501  1.0000
  Fe  Fe124     1.0  0.88853  0.32104  0.96994  1.0000
  Fe  Fe125     1.0  0.92548  0.30163  0.96531  1.0000
  C   C620      1.0  0.87586  0.38680  0.96856  1.0000
  H   H975      1.0  0.89738  0.26481  0.83201  1.0000
  H   H976      1.0  0.92619  0.41553  0.96320  1.0000
  H   H977      1.0  0.84232  0.47210  0.94638  1.0000
  H   H978      1.0  0.68438  0.46216  0.96588  1.0000
  H   H979      1.0  0.94468  0.38849  0.96358  1.0000
  H   H980      1.0  0.92459  0.29733  0.86261  1.0000
  H   H981      1.0  0.91536  0.24162  0.89772  1.0000
  H   H982      1.0  0.83192  0.44561  0.96934  1.0000
  H   H983      1.0  0.88572  0.35966  0.97951  1.0000
  S   S248      1.0  0.88680  0.28759  0.97641  1.0000
  H   H984      1.0  0.96931  0.40715  0.93493  1.0000
  C   C621      1.0  0.96164  0.40127  0.95968  1.0000
  N   N62       1.0  0.95889  0.41827  0.97341  1.0000
  H   H985      1.0  0.95087  0.43427  0.93497  1.0000
  H   H986      1.0  0.79383  0.29767  0.96137  1.0000
  H   H987      1.0  0.77853  0.45870  0.96782  1.0000
  H   H988      1.0  0.91924  0.27846  0.89735  1.0000
  H   H989      1.0  0.98016  0.44769  0.97859  1.0000
  H   H990      1.0  0.79109  0.32229  0.96520  1.0000
  H   H991      1.0  0.89148  0.23994  0.88088  1.0000
  H   H992      1.0  0.79338  0.44131  0.95845  1.0000
  C   C622      1.0  0.68651  0.57710  0.09540  1.0000
  C   C623      1.0  0.69089  0.58653  0.06472  1.0000
  H   H993      1.0  0.74493  0.50812  0.03857  1.0000
  Fe  Fe126     1.0  0.68652  0.57050  0.00452  1.0000
  C   C624      1.0  0.66408  0.49952  0.18361  1.0000
  H   H994      1.0  0.71286  0.51852  0.08581  1.0000
  N   N63       1.0  0.74007  0.53647  0.04578  1.0000
  C   C625      1.0  0.71530  0.52565  0.06147  1.0000
  S   S249      1.0  0.70689  0.57813  0.03816  1.0000
  H   H995      1.0  0.68461  0.60892  0.03166  1.0000
  H   H996      1.0  0.70694  0.51297  0.05129  1.0000
  H   H997      1.0  0.73531  0.53306  0.00216  1.0000
  H   H998      1.0  0.68502  0.50280  0.00148  1.0000
  S   S250      1.0  0.66639  0.52066  0.19995  1.0000
  C   C626      1.0  0.70031  0.50083  0.98954  1.0000
  H   H999      1.0  0.75104  0.51434  0.07258  1.0000
  H   H1000     1.0  0.69115  0.55921  0.26326  1.0000
  H   H1001     1.0  0.69431  0.56576  0.10274  1.0000
  C   C627      1.0  0.66585  0.60614  0.07668  1.0000
  H   H1002     1.0  0.76897  0.56201  0.04847  1.0000
  H   H1003     1.0  0.66555  0.57552  0.28958  1.0000
  H   H1004     1.0  0.70080  0.50891  0.16502  1.0000
  H   H1005     1.0  0.70566  0.53676  0.06015  1.0000
  H   H1006     1.0  0.74852  0.54739  0.08405  1.0000
  C   C628      1.0  0.68092  0.60133  0.05537  1.0000
  C   C629      1.0  0.75027  0.55352  0.05962  1.0000
  C   C630      1.0  0.74246  0.54545  0.01352  1.0000
  S   S251      1.0  0.66765  0.53641  0.00988  1.0000
  S   S252      1.0  0.65606  0.58002  0.99948  1.0000
  C   C631      1.0  0.75228  0.52129  0.04856  1.0000
  H   H1007     1.0  0.66712  0.57369  0.14018  1.0000
  H   H1008     1.0  0.76089  0.55408  0.00112  1.0000
  H   H1009     1.0  0.74159  0.56537  0.05770  1.0000
  C   C632      1.0  0.67099  0.58149  0.11657  1.0000
  H   H1010     1.0  0.77097  0.52886  0.03670  1.0000
  H   H1011     1.0  0.73313  0.55671  0.01053  1.0000
  C   C633      1.0  0.66014  0.59553  0.10713  1.0000
  H   H1012     1.0  0.65769  0.61719  0.06935  1.0000
  H   H1013     1.0  0.80945  0.49304  0.05485  1.0000
  C   C634      1.0  0.68395  0.49759  0.16703  1.0000
  C   C635      1.0  0.67523  0.54679  0.26250  1.0000
  H   H1014     1.0  0.67929  0.53227  0.26183  1.0000
  H   H1015     1.0  0.67128  0.55189  0.24064  1.0000
  H   H1016     1.0  0.65303  0.49264  0.10507  1.0000
  N   N64       1.0  0.65563  0.54303  0.28838  1.0000
  H   H1017     1.0  0.64931  0.51686  0.08951  1.0000
  H   H1018     1.0  0.82461  0.49065  0.99722  1.0000
  C   C636      1.0  0.65050  0.56257  0.28789  1.0000
  H   H1019     1.0  0.65138  0.73913  0.39684  1.0000
  H   H1020     1.0  0.67716  0.54856  0.31912  1.0000
  C   C637      1.0  0.66168  0.53634  0.31683  1.0000
  H   H1021     1.0  0.66556  0.52159  0.31798  1.0000
  H   H1022     1.0  0.66346  0.73646  0.63962  1.0000
  H   H1023     1.0  0.64828  0.71184  0.40368  1.0000
  Fe  Fe127     1.0  0.72718  0.72141  0.86661  1.0000
  H   H1024     1.0  0.73566  0.67254  0.87619  1.0000
  H   H1025     1.0  0.68440  0.68618  0.89132  1.0000
  C   C638      1.0  0.82509  0.72605  0.66672  1.0000
  H   H1026     1.0  0.72081  0.63343  0.89032  1.0000
  Fe  Fe128     1.0  0.68088  0.54411  0.95990  1.0000
  H   H1027     1.0  0.69945  0.62758  0.95287  1.0000
  C   C639      1.0  0.83859  0.73424  0.78338  1.0000
  S   S253      1.0  0.77291  0.71040  0.77708  1.0000
  H   H1028     1.0  0.79140  0.72432  0.71256  1.0000
  H   H1029     1.0  0.72830  0.61945  0.86399  1.0000
  N   N65       1.0  0.74154  0.65311  0.84685  1.0000
  H   H1030     1.0  0.70695  0.65355  0.85259  1.0000
  H   H1031     1.0  0.81388  0.70347  0.78852  1.0000
  S   S254      1.0  0.70256  0.57760  0.95508  1.0000
  C   C640      1.0  0.76035  0.65328  0.82252  1.0000
  H   H1032     1.0  0.77600  0.65347  0.83065  1.0000
  H   H1033     1.0  0.76560  0.66744  0.80336  1.0000
  S   S255      1.0  0.72381  0.70377  0.91381  1.0000
  H   H1034     1.0  0.74966  0.63324  0.88126  1.0000
  S   S256      1.0  0.71512  0.70349  0.83372  1.0000
  C   C641      1.0  0.72132  0.65328  0.83491  1.0000
  C   C642      1.0  0.74960  0.67191  0.85831  1.0000
  C   C643      1.0  0.79527  0.73689  0.69167  1.0000
  H   H1035     1.0  0.72585  0.66735  0.81580  1.0000
  H   H1036     1.0  0.75511  0.68664  0.84011  1.0000
  H   H1037     1.0  0.75490  0.63926  0.81346  1.0000
  H   H1038     1.0  0.72109  0.66455  0.95187  1.0000
  H   H1039     1.0  0.65269  0.70831  0.65218  1.0000
  H   H1040     1.0  0.71437  0.63909  0.82673  1.0000
  C   C644      1.0  0.73489  0.63397  0.87162  1.0000
  H   H1041     1.0  0.76451  0.67216  0.86814  1.0000
  C   C645      1.0  0.68062  0.63620  0.92137  1.0000
  C   C646      1.0  0.69600  0.64034  0.93968  1.0000
  C   C647      1.0  0.70819  0.66124  0.93915  1.0000
  C   C648      1.0  0.70476  0.67785  0.92063  1.0000
  C   C649      1.0  0.68795  0.67349  0.90448  1.0000
  C   C650      1.0  0.67611  0.65275  0.90456  1.0000
  C   C651      1.0  0.81744  0.72020  0.78217  1.0000
  S   S257      1.0  0.66944  0.61110  0.91558  1.0000
  H   H1042     1.0  0.85135  0.72830  0.79057  1.0000
  H   H1043     1.0  0.78333  0.73072  0.67789  1.0000
  H   H1044     1.0  0.81408  0.71914  0.65236  1.0000
  S   S258      1.0  0.69439  0.52261  0.93770  1.0000
  Fe  Fe129     1.0  0.74921  0.72360  0.80209  1.0000
  H   H1045     1.0  0.82199  0.71340  0.68726  1.0000
  C   C652      1.0  0.70862  0.50928  0.95828  1.0000
  Fe  Fe130     1.0  0.70337  0.73008  0.81773  1.0000
  Fe  Fe131     1.0  0.67051  0.58450  0.95017  1.0000
  S   S259      1.0  0.66727  0.72334  0.81222  1.0000
  C   C653      1.0  0.80048  0.72782  0.77450  1.0000
  H   H1046     1.0  0.66395  0.64959  0.89078  1.0000
  C   C654      1.0  0.72816  0.50635  0.94279  1.0000
  H   H1047     1.0  0.73449  0.51274  0.91860  1.0000
  H   H1048     1.0  0.75518  0.49372  0.94637  1.0000
  H   H1049     1.0  0.65813  0.71034  0.70283  1.0000
  H   H1050     1.0  0.84350  0.73084  0.65410  1.0000
  H   H1051     1.0  0.66862  0.73849  0.69112  1.0000
  S   S260      1.0  0.65034  0.55165  0.94984  1.0000
  C   C655      1.0  0.73982  0.49557  0.95847  1.0000
  H   H1052     1.0  0.82237  0.49677  0.95910  1.0000
  C   C656      1.0  0.65271  0.72430  0.70044  1.0000
  H   H1053     1.0  0.83536  0.83907  0.62170  1.0000
  H   H1054     1.0  0.65246  0.79338  0.53757  1.0000
  Fe  Fe132     1.0  0.73790  0.83216  0.62490  1.0000
  Fe  Fe133     1.0  0.71666  0.79419  0.60225  1.0000
  S   S261      1.0  0.75597  0.86640  0.62011  1.0000
  S   S262      1.0  0.70525  0.77983  0.56543  1.0000
  H   H1055     1.0  0.66688  0.78307  0.60677  1.0000
  S   S263      1.0  0.75334  0.81141  0.60327  1.0000
  C   C657      1.0  0.66008  0.77157  0.59484  1.0000
  S   S264      1.0  0.70231  0.81712  0.61925  1.0000
  C   C658      1.0  0.67515  0.76698  0.57340  1.0000
  H   H1056     1.0  0.79575  0.81462  0.62687  1.0000
  H   H1057     1.0  0.67767  0.74847  0.54140  1.0000
  C   C659      1.0  0.66606  0.75217  0.55788  1.0000
  H   H1058     1.0  0.84217  0.76585  0.63319  1.0000
  H   H1059     1.0  0.66434  0.80346  0.49757  1.0000
  H   H1060     1.0  0.81231  0.75466  0.63257  1.0000
  C   C660      1.0  0.82676  0.82625  0.64176  1.0000
  H   H1061     1.0  0.64959  0.77579  0.51359  1.0000
  C   C661      1.0  0.64937  0.79157  0.51527  1.0000
  C   C662      1.0  0.80424  0.81256  0.64481  1.0000
  Fe  Fe134     1.0  0.87971  0.83806  0.70218  1.0000
  S   S265      1.0  0.85525  0.82366  0.74788  1.0000
  S   S266      1.0  0.76586  0.77741  0.67365  1.0000
  Fe  Fe135     1.0  0.92236  0.84640  0.72771  1.0000
  S   S267      1.0  0.90101  0.83176  0.77538  1.0000
  Fe  Fe136     1.0  0.87993  0.80709  0.75648  1.0000
  S   S268      1.0  0.86881  0.77291  0.78040  1.0000
  Fe  Fe137     1.0  0.87850  0.84958  0.76202  1.0000
  S   S269      1.0  0.86333  0.86522  0.79403  1.0000
  S   S270      1.0  0.90329  0.82000  0.70966  1.0000
  S   S271      1.0  0.90098  0.86586  0.71547  1.0000
  Fe  Fe138     1.0  0.73108  0.90014  0.75939  1.0000
  S   S272      1.0  0.71924  0.90253  0.80631  1.0000
  S   S273      1.0  0.70518  0.88367  0.73685  1.0000
  Fe  Fe139     1.0  0.78160  0.91683  0.75860  1.0000
  S   S274      1.0  0.77450  0.92051  0.80565  1.0000
  S   S275      1.0  0.81744  0.92457  0.73035  1.0000
  Fe  Fe140     1.0  0.74615  0.88929  0.81628  1.0000
  S   S276      1.0  0.73639  0.86309  0.85790  1.0000
  Fe  Fe141     1.0  0.74830  0.93355  0.79179  1.0000
  S   S277      1.0  0.74578  0.96079  0.81009  1.0000
  S   S278      1.0  0.75569  0.88428  0.77040  1.0000
  S   S279      1.0  0.75783  0.93259  0.74334  1.0000
  N   N66       1.0  0.93875  0.90685  0.76941  1.0000
  H   H1062     1.0  0.83568  0.80419  0.70769  1.0000
  H   H1063     1.0  0.79561  0.78079  0.71392  1.0000
  N   N67       1.0  0.80123  0.86256  0.69383  1.0000
  Fe  Fe142     1.0  0.74330  0.79110  0.65045  1.0000
  C   C663      1.0  0.80434  0.79329  0.69357  1.0000
  S   S280      1.0  0.76932  0.79739  0.80346  1.0000
  C   C664      1.0  0.82695  0.80678  0.69030  1.0000
  H   H1064     1.0  0.70713  0.92133  0.85488  1.0000
  H   H1065     1.0  0.83459  0.87333  0.70312  1.0000
  H   H1066     1.0  0.67214  0.80209  0.76386  1.0000
  C   C665      1.0  0.72789  0.83424  0.75109  1.0000
  C   C666      1.0  0.70691  0.86483  0.69055  1.0000
  C   C667      1.0  0.82042  0.98058  0.72416  1.0000
  C   C668      1.0  0.84236  0.96987  0.75746  1.0000
  H   H1067     1.0  0.77254  0.85260  0.67416  1.0000
  C   C669      1.0  0.74674  0.84424  0.84627  1.0000
  C   C670      1.0  0.76682  0.85088  0.82296  1.0000
  C   C671      1.0  0.77386  0.83626  0.81056  1.0000
  C   C672      1.0  0.76076  0.81486  0.82137  1.0000
  C   C673      1.0  0.74111  0.80800  0.84554  1.0000
  C   C674      1.0  0.73415  0.82274  0.85816  1.0000
  H   H1068     1.0  0.77693  0.86739  0.81438  1.0000
  H   H1069     1.0  0.78936  0.84161  0.79231  1.0000
  H   H1070     1.0  0.73108  0.79145  0.85420  1.0000
  H   H1071     1.0  0.71860  0.81753  0.87627  1.0000
  H   H1072     1.0  0.74174  0.89657  0.89561  1.0000
  H   H1073     1.0  0.69427  0.81281  0.72916  1.0000
  H   H1074     1.0  0.73412  0.83184  0.72858  1.0000
  H   H1075     1.0  0.72505  0.84952  0.74711  1.0000
  C   C675      1.0  0.82660  0.76352  0.76650  1.0000
  H   H1076     1.0  0.84842  0.96069  0.74264  1.0000
  H   H1077     1.0  0.70883  0.84857  0.65564  1.0000
  H   H1078     1.0  0.82999  0.78016  0.76014  1.0000
  C   C676      1.0  0.85105  0.88211  0.77622  1.0000
  C   C677      1.0  0.85992  0.89238  0.74552  1.0000
  C   C678      1.0  0.85004  0.90598  0.73164  1.0000
  C   C679      1.0  0.83086  0.90885  0.74825  1.0000
  C   C680      1.0  0.82202  0.89861  0.77889  1.0000
  C   C681      1.0  0.83226  0.88545  0.79296  1.0000
  H   H1079     1.0  0.87452  0.89006  0.73247  1.0000
  H   H1080     1.0  0.85693  0.91389  0.70790  1.0000
  H   H1081     1.0  0.80732  0.90082  0.79187  1.0000
  H   H1082     1.0  0.82530  0.87752  0.81669  1.0000
  C   C682      1.0  0.84313  0.75592  0.77584  1.0000
  H   H1083     1.0  0.79695  0.89221  0.69420  1.0000
  H   H1084     1.0  0.79620  0.87534  0.65090  1.0000
  C   C683      1.0  0.97671  0.86930  0.74102  1.0000
  H   H1085     1.0  0.71596  0.93778  0.87892  1.0000
  H   H1086     1.0  0.95063  0.84674  0.77908  1.0000
  C   C684      1.0  0.68402  0.76390  0.73077  1.0000
  H   H1087     1.0  0.72424  0.79751  0.78716  1.0000
  H   H1088     1.0  0.69894  0.77113  0.71173  1.0000
  S   S281      1.0  0.76250  0.73953  0.83610  1.0000
  C   C685      1.0  0.74236  0.89210  0.68927  1.0000
  C   C686      1.0  0.71902  0.88027  0.70303  1.0000
  C   C687      1.0  0.79486  0.84178  0.71503  1.0000
  H   H1089     1.0  0.69883  0.88290  0.87147  1.0000
  H   H1090     1.0  0.69459  0.83609  0.79445  1.0000
  H   H1091     1.0  0.75175  0.90415  0.69876  1.0000
  S   S282      1.0  0.70812  0.77189  0.64754  1.0000
  C   C688      1.0  0.71094  0.79697  0.77413  1.0000
  C   C689      1.0  0.69690  0.88436  0.89508  1.0000
  H   H1092     1.0  0.68658  0.91978  0.88814  1.0000
  H   H1093     1.0  0.82504  0.97099  0.70900  1.0000
  H   H1094     1.0  0.83687  0.82421  0.84185  1.0000
  C   C690      1.0  0.83814  0.82345  0.66456  1.0000
  H   H1095     1.0  0.71734  0.79340  0.75257  1.0000
  H   H1096     1.0  0.90611  0.90722  0.76165  1.0000
  H   H1097     1.0  0.69011  0.90402  0.93865  1.0000
  H   H1098     1.0  0.79187  0.75539  0.76089  1.0000
  C   C691      1.0  0.70495  0.92173  0.87894  1.0000
  H   H1099     1.0  0.69501  0.78346  0.78714  1.0000
  S   S283      1.0  0.96098  0.86383  0.71395  1.0000
  C   C692      1.0  0.82670  0.87237  0.68370  1.0000
  C   C693      1.0  0.92977  0.88383  0.78162  1.0000
  C   C694      1.0  0.75347  0.88857  0.66284  1.0000
  C   C695      1.0  0.66395  0.76867  0.73072  1.0000
  N   N68       1.0  0.71156  0.90532  0.89632  1.0000
  H   H1100     1.0  0.68880  0.85581  0.70090  1.0000
  H   H1101     1.0  0.74774  0.92447  0.88320  1.0000
  H   H1102     1.0  0.97197  0.85782  0.81668  1.0000
  H   H1103     1.0  0.93072  0.93002  0.74012  1.0000
  C   C696      1.0  0.68848  0.81538  0.75170  1.0000
  C   C697      1.0  0.93731  0.91697  0.79459  1.0000
  H   H1104     1.0  0.82606  0.95889  0.77395  1.0000
  S   S284      1.0  0.73657  0.74863  0.78238  1.0000
  H   H1105     1.0  0.70026  0.74567  0.75517  1.0000
  H   H1106     1.0  0.97408  0.90910  0.76638  1.0000
  C   C698      1.0  0.83487  0.75280  0.69362  1.0000
  H   H1107     1.0  0.75190  0.97120  0.74563  1.0000
  N   N69       1.0  0.70639  0.81690  0.76870  1.0000
  H   H1108     1.0  0.71150  0.82272  0.81104  1.0000
  H   H1109     1.0  0.97068  0.93102  0.74273  1.0000
  Fe  Fe143     1.0  0.74717  0.76321  0.81895  1.0000
  H   H1110     1.0  0.94780  0.91280  0.80999  1.0000
  H   H1111     1.0  0.68215  0.80829  0.81186  1.0000
  H   H1112     1.0  0.77247  0.86968  0.71579  1.0000
  C   C699      1.0  0.69827  0.82117  0.79783  1.0000
  H   H1113     1.0  0.83436  0.86318  0.67056  1.0000
  N   N70       1.0  0.81979  0.74406  0.67473  1.0000
  H   H1114     1.0  0.70180  0.87164  0.90743  1.0000
  C   C700      1.0  0.73607  0.90869  0.88323  1.0000
  H   H1115     1.0  0.79063  0.74987  0.69870  1.0000
  C   C701      1.0  0.68492  0.74964  0.75558  1.0000
  C   C702      1.0  0.70843  0.90649  0.92804  1.0000
  H   H1116     1.0  0.73883  0.90759  0.85952  1.0000
  H   H1117     1.0  0.71329  0.89430  0.94171  1.0000
  H   H1118     1.0  0.67826  0.88110  0.90494  1.0000
  H   H1119     1.0  0.68427  0.83001  0.74784  1.0000
  C   C703      1.0  0.92474  0.91272  0.74942  1.0000
  H   H1120     1.0  0.74186  0.83565  0.76313  1.0000
  H   H1121     1.0  0.71934  0.92209  0.92976  1.0000
  C   C704      1.0  0.71823  0.86076  0.66486  1.0000
  H   H1122     1.0  0.93949  0.87883  0.79747  1.0000
  N   N71       1.0  0.81879  0.79116  0.84888  1.0000
  C   C705      1.0  0.82106  0.77096  0.86201  1.0000
  C   C706      1.0  0.79644  0.79186  0.86450  1.0000
  C   C707      1.0  0.81976  0.79312  0.81664  1.0000
  C   C708      1.0  0.83800  0.80874  0.85195  1.0000
  H   H1123     1.0  0.82067  0.76891  0.88632  1.0000
  H   H1124     1.0  0.83759  0.76985  0.85014  1.0000
  H   H1125     1.0  0.80676  0.75743  0.85997  1.0000
  H   H1126     1.0  0.79431  0.80695  0.85498  1.0000
  H   H1127     1.0  0.78158  0.77907  0.86194  1.0000
  H   H1128     1.0  0.79490  0.79016  0.88903  1.0000
  H   H1129     1.0  0.83636  0.79252  0.80440  1.0000
  H   H1130     1.0  0.81812  0.80818  0.80581  1.0000
  H   H1131     1.0  0.80556  0.78019  0.81321  1.0000
  H   H1132     1.0  0.85509  0.80873  0.84011  1.0000
  H   H1133     1.0  0.83792  0.80789  0.87600  1.0000
  H   H1134     1.0  0.77581  0.83372  0.72292  1.0000
  C   C709      1.0  0.97943  0.86548  0.79294  1.0000
  H   H1135     1.0  0.79785  0.87773  0.72976  1.0000
  H   H1136     1.0  0.82082  0.77447  0.65211  1.0000
  H   H1137     1.0  0.80189  0.83130  0.70414  1.0000
  H   H1138     1.0  0.91124  0.87792  0.79415  1.0000
  C   C710      1.0  0.79169  0.87610  0.70912  1.0000
  S   S285      1.0  0.66295  0.78642  0.69964  1.0000
  H   H1139     1.0  0.92583  0.90554  0.72997  1.0000
  S   S286      1.0  0.73036  0.81295  0.67209  1.0000
  C   C711      1.0  0.96731  0.85923  0.77169  1.0000
  S   S287      1.0  0.86580  0.84150  0.66099  1.0000
  C   C712      1.0  0.96312  0.91370  0.75207  1.0000
  C   C713      1.0  0.79172  0.86000  0.66747  1.0000
  C   C714      1.0  0.79303  0.79597  0.67068  1.0000
  S   S288      1.0  0.71294  0.74679  0.85300  1.0000
  Fe  Fe144     1.0  0.69624  0.79595  0.66460  1.0000
  H   H1140     1.0  0.83093  0.76606  0.70078  1.0000
  H   H1141     1.0  0.79849  0.84989  0.65528  1.0000
  H   H1142     1.0  0.80365  0.97052  0.74054  1.0000
  H   H1143     1.0  0.80178  0.84303  0.73523  1.0000
  H   H1144     1.0  0.93129  0.87577  0.76320  1.0000
  C   C715      1.0  0.66585  0.74031  0.78052  1.0000
  H   H1145     1.0  0.96475  0.90640  0.73276  1.0000
  H   H1146     1.0  0.91913  0.91191  0.80825  1.0000
  C   C716      1.0  0.80505  0.74947  0.76665  1.0000
  C   C717      1.0  0.82398  0.76041  0.64690  1.0000
  H   H1147     1.0  0.83219  0.88853  0.66894  1.0000
  H   H1148     1.0  0.94390  0.93438  0.78625  1.0000
  C   C718      1.0  0.74149  0.87265  0.65091  1.0000
  H   H1149     1.0  0.85348  0.75889  0.68135  1.0000
  H   H1150     1.0  0.85557  0.97493  0.77017  1.0000
  H   H1151     1.0  0.77139  0.89792  0.65195  1.0000
  C   C719      1.0  0.76085  0.98428  0.78207  1.0000
  C   C720      1.0  0.76189  0.98481  0.75175  1.0000
  N   N72       1.0  0.83868  0.98806  0.73972  1.0000
  H   H1152     1.0  0.83257  0.74078  0.71451  1.0000
