data_image0
_chemical_formula_structural       FeS2FeS2FeSFeS3FeS2FeS2FeSFeS3FeS2FeS2FeSFeS3FeS2FeS2FeSFeS3FeS2FeS2FeSFeS3FeS2FeS2FeSFeS3FeS2FeS2FeSFeS3FeS2FeS2FeSFeS3FeS2FeS2FeSFeS3FeS2FeS2FeSFeS3FeS2FeS2FeSFeS3FeS2FeS2FeSFeS3FeS2FeS2FeSFeS3FeS2FeS2FeSFeS3FeS2FeS2FeSFeS3FeS2FeS2FeSFeS3C6H4C6H4C6H4C6H4C6H4C6H4C6H4C6H4C6H4C6H4C6H4C6H4C6H4C6H4C6H4C6H4C6H4C6H4C6H4C6H4C6H4C6H4C6H4C6H4C6H4C6H4C6H4C6H4C6H4C6H4C6H4C6H4NC4H12NC4H12NC4H12NC4H12NC4H12NC4H12NC4H12NC4H12NC4H12NC4H12NC4H12NC4H12NC4H12NC4H12NC4H12NC4H12NC4H12NC4H12NC4H12NC4H12NC4H12NC4H12NC4H12NC4H12NC4H12NC4H12NC4H12NC4H12NC4H12NC4H12NC4H12NC4H12
_chemical_formula_sum              "Fe64 S128 C320 H512 N32"
_cell_length_a       49.25471338207001
_cell_length_b       49.4109116832944
_cell_length_c       34.855043780085786
_cell_angle_alpha    87.90281364661129
_cell_angle_beta     87.78914914386145
_cell_angle_gamma    118.9642355501397

_space_group_name_H-M_alt    "P 1"
_space_group_IT_number       1

loop_
  _space_group_symop_operation_xyz
  'x, y, z'

loop_
  _atom_site_type_symbol
  _atom_site_label
  _atom_site_symmetry_multiplicity
  _atom_site_fract_x
  _atom_site_fract_y
  _atom_site_fract_z
  _atom_site_occupancy
  Fe  Fe1       1.0  0.5514193324482868  0.15653182982360594  0.42621546049289355  1.0000
  S   S1        1.0  0.5906057609790907  0.17082448589869914  0.38115377236152936  1.0000
  S   S2        1.0  0.5063753193324115  0.11198946236249603  0.4394251886691586  1.0000
  Fe  Fe2       1.0  0.5854371398659736  0.21620789427879233  0.46836689780805985  1.0000
  S   S3        1.0  0.627758832670193  0.2360007554363036  0.42726342525833605  1.0000
  S   S4        1.0  0.5801012439551325  0.23471280546940776  0.5249636412394599  1.0000
  Fe  Fe3       1.0  0.5934871329022221  0.21768325436614516  0.38134012673047857  1.0000
  S   S5        1.0  0.5986535202701774  0.2486884170003542  0.329426628499001  1.0000
  Fe  Fe4       1.0  0.6218953441823563  0.18800793861478834  0.43019529257422867  1.0000
  S   S6        1.0  0.6618237907689241  0.1784821861653014  0.43741824565329207  1.0000
  S   S7        1.0  0.5515569698965775  0.20209219421404348  0.42234763400715464  1.0000
  S   S8        1.0  0.5824241458262166  0.16957387830688994  0.4749389802747934  1.0000
  Fe  Fe5       1.0  0.5562832977974635  0.36612032302898806  0.5906390954057206  1.0000
  S   S9        1.0  0.6004731640606512  0.38005629777118227  0.6196072767701821  1.0000
  S   S10       1.0  0.5537937754203751  0.3480464872227454  0.5318202290452696  1.0000
  Fe  Fe6       1.0  0.5291488790983364  0.38924660737288486  0.6534823732934621  1.0000
  S   S11       1.0  0.571682328801396  0.40544559146893655  0.6869276790467542  1.0000
  S   S12       1.0  0.49446196764583633  0.39842421953137747  0.6865173860760717  1.0000
  Fe  Fe7       1.0  0.598173463533648  0.4233655517103968  0.6303139453058054  1.0000
  S   S13       1.0  0.637584548459979  0.47173102222358854  0.6222515023874304  1.0000
  Fe  Fe8       1.0  0.5696124467136072  0.3606828627137871  0.6736170249244755  1.0000
  S   S14       1.0  0.575393213062669  0.33203215593710117  0.7207548928138152  1.0000
  S   S15       1.0  0.5561453661398569  0.41121879668080863  0.5973410171432774  1.0000
  S   S16       1.0  0.524983747502539  0.3425505715786053  0.6439579782874691  1.0000
  Fe  Fe9       1.0  0.6749167866002272  0.10744698517277389  0.6186039861248724  1.0000
  S   S17       1.0  0.6952258253331256  0.07778588316165774  0.6006272325350457  1.0000
  S   S18       1.0  0.6305830418432461  0.09972923454835765  0.5947681775648729  1.0000
  Fe  Fe10      1.0  0.7245906393778788  0.14267513551617736  0.6732172255946243  1.0000
  S   S19       1.0  0.7490902332909379  0.11539657678001053  0.6609045196541308  1.0000
  S   S20       1.0  0.7442216623940268  0.17797057244809397  0.717676357866217  1.0000
  Fe  Fe11      1.0  0.7407302707264447  0.1219905166899385  0.5994222941599197  1.0000
  S   S21       1.0  0.7774818924574063  0.1340411222038672  0.55182894627798  1.0000
  Fe  Fe12      1.0  0.7014537241116755  0.07377912535051638  0.6634123476836111  1.0000
  S   S22       1.0  0.6881299624580091  0.028672408603786823  0.6967307877327333  1.0000
  S   S23       1.0  0.719670016913518  0.152411409096216  0.6111915989203147  1.0000
  S   S24       1.0  0.6776634197082648  0.10045993898091168  0.681755600923972  1.0000
  Fe  Fe13      1.0  0.9383672534525078  0.3290132082606066  0.417924676524894  1.0000
  S   S25       1.0  0.9141667702272845  0.34987762831694835  0.38450673777392214  1.0000
  S   S26       1.0  0.9853454341971399  0.3385221499312374  0.39237779971241266  1.0000
  Fe  Fe14      1.0  0.8874741055077149  0.3021167609060863  0.4822009834316473  1.0000
  S   S27       1.0  0.8595017853921516  0.3211090621934043  0.4544787476975351  1.0000
  S   S28       1.0  0.8687679781085978  0.27863710807843917  0.5412206381979  1.0000
  Fe  Fe15      1.0  0.8705943809370241  0.30501134912298805  0.3998944226749824  1.0000
  S   S29       1.0  0.8290703950998058  0.2817062027564556  0.3639887574923969  1.0000
  Fe  Fe16      1.0  0.9047697153584232  0.36417505965246466  0.4412582138146143  1.0000
  S   S30       1.0  0.9082770803647643  0.411137275562289  0.44358479614379415  1.0000
  S   S31       1.0  0.8952263915212252  0.28224560782579033  0.4285309998022984  1.0000
  S   S32       1.0  0.9324292473194283  0.34705465627143645  0.47386930246021347  1.0000
  Fe  Fe17      1.0  0.7253929290128458  0.37089975481787957  0.8028313434578138  1.0000
  S   S33       1.0  0.7476684535544716  0.36216301334630197  0.751011717217264  1.0000
  S   S34       1.0  0.7035545439150378  0.401640674168459  0.7985791853403766  1.0000
  Fe  Fe18      1.0  0.7381766725134203  0.32985268486712493  0.8569416144347788  1.0000
  S   S35       1.0  0.76148958318046  0.3169965802217348  0.8097088933999307  1.0000
  S   S36       1.0  0.7260859575780445  0.3077076941478604  0.9178087396016295  1.0000
  Fe  Fe19      1.0  0.7847966212586258  0.36745229566209114  0.789912585147847  1.0000
  S   S37       1.0  0.8342163942656929  0.38775768149657325  0.7651301445904772  1.0000
  Fe  Fe20      1.0  0.7229114366598206  0.3125484397163543  0.773798877224195  1.0000
  S   S38       1.0  0.6995598855429395  0.27780396610427727  0.7292207898491284  1.0000
  S   S39       1.0  0.7649679832683463  0.3809326629504655  0.8403318340133179  1.0000
  S   S40       1.0  0.6972439249757555  0.3208018898509189  0.8224110470037712  1.0000
  Fe  Fe21      1.0  0.7254892112497491  0.31158490311549175  0.18279600261638276  1.0000
  S   S41       1.0  0.7135199988541422  0.34647447055553604  0.1571007111946923  1.0000
  S   S42       1.0  0.6927775868445312  0.26059164039696486  0.19325215602746876  1.0000
  Fe  Fe22      1.0  0.7912111179500352  0.359077193120019  0.19708798860717547  1.0000
  S   S43       1.0  0.7854683771056405  0.39852258683449515  0.17256227706109278  1.0000
  S   S44       1.0  0.8363944158722953  0.36719973626344315  0.2203371093166218  1.0000
  Fe  Fe23      1.0  0.7391484504156041  0.3750265036531917  0.2057169517316518  1.0000
  S   S45       1.0  0.7199848126464907  0.39853538548663764  0.24378110679289747  1.0000
  Fe  Fe24      1.0  0.7607266310972329  0.36691260553014243  0.12572934770166228  1.0000
  S   S46       1.0  0.7726125559652431  0.3874010283689086  0.06397914121277767  1.0000
  S   S47       1.0  0.7468605584252602  0.33819407390319306  0.2339946148184031  1.0000
  S   S48       1.0  0.7706782611164893  0.3294862501576663  0.14765247418510044  1.0000
  Fe  Fe25      1.0  0.9797655025858674  0.5116684092938418  0.604496937160807  1.0000
  S   S49       1.0  0.018931754267715428  0.5582387026983351  0.5838450336174527  1.0000
  S   S50       1.0  0.9772958949813642  0.4666559069655602  0.5918692945111489  1.0000
  Fe  Fe26      1.0  0.9463469915870935  0.537533918779806  0.6526428152424043  1.0000
  S   S51       1.0  0.9824933662437418  0.5868385590974616  0.6361560372996545  1.0000
  S   S52       1.0  0.9049765670189895  0.5262509212476417  0.6935326527496379  1.0000
  Fe  Fe27      1.0  0.9804943068700821  0.5700732644077126  0.5766902073448396  1.0000
  S   S53       1.0  0.9825751157691532  0.5991461223809705  0.5243689059954678  1.0000
  Fe  Fe28      1.0  0.01760460154721022  0.570834999111063  0.6447973654414528  1.0000
  S   S54       1.0  0.05766593199906267  0.5916066841089547  0.6836027847827958  1.0000
  S   S55       1.0  0.9413674957606639  0.5221803335750954  0.5923983054229487  1.0000
  S   S56       1.0  0.9814212128698165  0.5228332285851985  0.6659956831593548  1.0000
  Fe  Fe29      1.0  0.7697224058875914  0.4906316041144299  0.5022445122484419  1.0000
  S   S57       1.0  0.7739604152193149  0.5376341511222247  0.49174101656804786  1.0000
  S   S58       1.0  0.7545439951860584  0.46379336635161705  0.5596682758469878  1.0000
  Fe  Fe30      1.0  0.789276310318686  0.4880978749215647  0.41886934507528245  1.0000
  S   S59       1.0  0.793642669071936  0.534245632457727  0.4017599443862679  1.0000
  S   S60       1.0  0.806854208877435  0.46536695977462456  0.37730501585456516  1.0000
  Fe  Fe31      1.0  0.817575731388955  0.5485158556612157  0.45690556598408266  1.0000
  S   S61       1.0  0.862493264391641  0.5931833837860689  0.45629948711414337  1.0000
  Fe  Fe32      1.0  0.7493958983354915  0.5182156413053526  0.43841788757900474  1.0000
  S   S62       1.0  0.7053359874175972  0.5186499110465067  0.4237659840017016  1.0000
  S   S63       1.0  0.8155498647300526  0.5032468970036694  0.4720386970204817  1.0000
  S   S64       1.0  0.7428305196904722  0.47028570317266566  0.45075149129160147  1.0000
  Fe  Fe33      1.0  0.2045526439999338  0.48029996596487584  0.3973518609385987  1.0000
  S   S65       1.0  0.18014111641258784  0.43517456101456137  0.4332481426795727  1.0000
  S   S66       1.0  0.2263978580709895  0.48831277149117935  0.3374307364043059  1.0000
  Fe  Fe34      1.0  0.20657067764849477  0.5189233913457961  0.4626234925255003  1.0000
  S   S67       1.0  0.18221660692117633  0.47804324962439093  0.5047990798452856  1.0000
  S   S68       1.0  0.22774134607531654  0.5692601549783385  0.47419910638987917  1.0000
  Fe  Fe35      1.0  0.2127592855068003  0.46130857261180697  0.4781110819334005  1.0000
  S   S69       1.0  0.23367520991690077  0.43991367992867764  0.5166211061148077  1.0000
  Fe  Fe36      1.0  0.15064242076592185  0.45442271200769513  0.4578446917332062  1.0000
  S   S70       1.0  0.10174170532051008  0.42472940960619443  0.4842911631206299  1.0000
  S   S71       1.0  0.24004143330038866  0.5042075506587991  0.4399084833328501  1.0000
  S   S72       1.0  0.17208795266566485  0.4975105546762592  0.4178034430604189  1.0000
  Fe  Fe37      1.0  0.410991855088047  0.4925789823044176  0.6415526722625582  1.0000
  S   S73       1.0  0.43339037123580015  0.5160903920300945  0.6944703292580854  1.0000
  S   S74       1.0  0.4240032945289377  0.462088733083796  0.6070193620261445  1.0000
  Fe  Fe38      1.0  0.37743405973060246  0.5305906543781865  0.6313998915880216  1.0000
  S   S75       1.0  0.398165651218129  0.5583425800727976  0.6824018523559843  1.0000
  S   S76       1.0  0.34925222630660946  0.5445673373090124  0.594302040842236  1.0000
  Fe  Fe39      1.0  0.4423285631764754  0.559630251189187  0.6614666452926944  1.0000
  S   S77       1.0  0.48989720402964043  0.6009576726712611  0.6542682838898904  1.0000
  Fe  Fe40      1.0  0.38723708367715454  0.5125471998689162  0.711040641404364  1.0000
  S   S78       1.0  0.36691023869095596  0.5003321846212327  0.7721082226379997  1.0000
  S   S79       1.0  0.42277429429100605  0.5366788455810382  0.6075621003306663  1.0000
  S   S80       1.0  0.36320317124651946  0.4842631368952242  0.6613277018920495  1.0000
  Fe  Fe41      1.0  0.6029521263436984  0.8584408945316708  0.6409578566009796  1.0000
  S   S81       1.0  0.5755277322897  0.8501138082778696  0.6974406977617955  1.0000
  S   S82       1.0  0.6449343710621713  0.9025250266221369  0.617017557937878  1.0000
  Fe  Fe42      1.0  0.557563709193619  0.795478482382006  0.6123329662495315  1.0000
  S   S83       1.0  0.5256518915476218  0.7824907803052236  0.6652899947718713  1.0000
  S   S84       1.0  0.5414021937007292  0.7611963086200947  0.5661600265543194  1.0000
  Fe  Fe43      1.0  0.5344732518788508  0.8312463344520119  0.6611916716170714  1.0000
  S   S85       1.0  0.49563666335482  0.8423319616862066  0.6686723267015448  1.0000
  Fe  Fe44      1.0  0.5691832151789603  0.8018104694302636  0.6968342159925113  1.0000
  S   S86       1.0  0.5661551243015363  0.7688454386608521  0.7449124518060848  1.0000
  S   S87       1.0  0.5619583727741917  0.8424878715585512  0.6046209622952211  1.0000
  S   S88       1.0  0.6010033027663152  0.8119504315516958  0.6440770771223999  1.0000
  Fe  Fe45      1.0  0.6451427554711017  0.6348359239969772  0.44545376249972296  1.0000
  S   S89       1.0  0.5985058757202201  0.5980172314498687  0.4287986680204415  1.0000
  S   S90       1.0  0.6933156270898396  0.640430033702118  0.4359260201416987  1.0000
  Fe  Fe46      1.0  0.617716833392498  0.6699826831926378  0.4877424246490037  1.0000
  S   S91       1.0  0.5686337042744548  0.6361098298401427  0.4759572494341405  1.0000
  S   S92       1.0  0.635706357031811  0.7131094802146427  0.5206336801731206  1.0000
  Fe  Fe47      1.0  0.5827289676147319  0.6000357264503974  0.4893444452287272  1.0000
  S   S93       1.0  0.5531404260913646  0.558142165321222  0.5284692018079955  1.0000
  Fe  Fe48      1.0  0.5882222351947909  0.6371854680012159  0.4164517753217727  1.0000
  S   S94       1.0  0.5670093189779906  0.6431545907033556  0.3626907262660244  1.0000
  S   S95       1.0  0.629738199583301  0.633577722897466  0.5070371420268445  1.0000
  S   S96       1.0  0.6365472564738701  0.6739537475880074  0.4271426267437768  1.0000
  Fe  Fe49      1.0  0.4153756938346678  0.6292886804457668  0.9035256295789476  1.0000
  S   S97       1.0  0.41113723166513566  0.6547988755102706  0.8516491897805406  1.0000
  S   S98       1.0  0.431357039018783  0.5938704991870563  0.9000620042020818  1.0000
  Fe  Fe50      1.0  0.3889194148090535  0.6573623469672427  0.9600014392468192  1.0000
  S   S99       1.0  0.3809581722886059  0.6839104187849536  0.9121689687039457  1.0000
  S   S100      1.0  0.376498532058253  0.6678102245885389  0.01890161436317972  1.0000
  Fe  Fe51      1.0  0.36420949432498556  0.6413217614331866  0.8792698364361635  1.0000
  S   S101      1.0  0.32427138771593744  0.6217413711129104  0.8405764088103437  1.0000
  Fe  Fe52      1.0  0.42841176462324515  0.6952285948279697  0.8887919088085956  1.0000
  S   S102      1.0  0.4586756763983651  0.7452692392099649  0.8688579475302802  1.0000
  S   S103      1.0  0.3671198055156049  0.6131147604813202  0.9293473336491244  1.0000
  S   S104      1.0  0.4376742970416334  0.6712806460178532  0.9384168582789515  1.0000
  Fe  Fe53      1.0  0.36427326784833447  0.6523702197413034  0.29024513479400166  1.0000
  S   S105      1.0  0.3863747359775512  0.6228006458696572  0.28001454809467613  1.0000
  S   S106      1.0  0.31293337911959135  0.6328670024279904  0.3038334347014428  1.0000
  Fe  Fe54      1.0  0.4261928408323237  0.712425206556266  0.2829858654107024  1.0000
  S   S107      1.0  0.4532036714922629  0.6873259537342343  0.2716288155512515  1.0000
  S   S108      1.0  0.45207350440096583  0.7647871284786577  0.2820667749860054  1.0000
  Fe  Fe55      1.0  0.4151614856906101  0.6592039305220232  0.23291734193609712  1.0000
  S   S109      1.0  0.4244159447151464  0.6433372656109277  0.1760228186022681  1.0000
  Fe  Fe56      1.0  0.42187030739975157  0.6535922726124256  0.3194592278724727  1.0000
  S   S110      1.0  0.434727759648627  0.6356201148719509  0.37228550932833837  1.0000
  S   S111      1.0  0.39044824342214973  0.6868477312226551  0.2405476791326882  1.0000
  S   S112      1.0  0.39749855550591523  0.6806649216230765  0.33333618374403845  1.0000
  Fe  Fe57      1.0  0.23283097023892937  0.6957232850553057  0.64000208342652  1.0000
  S   S113      1.0  0.23555186011824392  0.6670717312641326  0.6898188551163574  1.0000
  S   S114      1.0  0.1908980702937892  0.6973927277328908  0.6183914293758247  1.0000
  Fe  Fe58      1.0  0.2993577335171776  0.716407704563419  0.6085905681312722  1.0000
  S   S115      1.0  0.3074446023822773  0.6890580921615186  0.6548914064009889  1.0000
  S   S116      1.0  0.3355407394974447  0.739629493797121  0.5594287880752229  1.0000
  Fe  Fe59      1.0  0.2592840260608914  0.6516897785982941  0.6466656481028161  1.0000
  S   S117      1.0  0.24779869615812183  0.6018818123441545  0.6464749503469474  1.0000
  Fe  Fe60      1.0  0.2837236734976465  0.7071014780869783  0.6940947776903982  1.0000
  S   S118      1.0  0.3077590551784487  0.724856830279145  0.7482568366347828  1.0000
  S   S119      1.0  0.2529571164820937  0.6771637243301989  0.5964050804481689  1.0000
  S   S120      1.0  0.2790833918012999  0.7376282895173015  0.6482814571792984  1.0000
  Fe  Fe61      1.0  0.48232820833269907  0.947526541075211  0.42638283342104094  1.0000
  S   S121      1.0  0.5165767139691969  0.9311578177804416  0.43996240557260535  1.0000
  S   S122      1.0  0.5003145662480271  0.9885346785215866  0.38308217351095386  1.0000
  Fe  Fe62      1.0  0.43410224086530796  0.9031868735210679  0.4867524162888838  1.0000
  S   S123      1.0  0.46488852591021024  0.8845971946847497  0.505579486999829  1.0000
  S   S124      1.0  0.3884233868939605  0.8829419676875525  0.5213634869824407  1.0000
  Fe  Fe63      1.0  0.5027412925031989  0.933715263785863  0.5009783486328006  1.0000
  S   S125      1.0  0.5378713611055631  0.9536827744455348  0.5454301895704357  1.0000
  Fe  Fe64      1.0  0.4753205240069511  0.883159390959142  0.44272594984014163  1.0000
  S   S126      1.0  0.47446284772377206  0.8374661838226117  0.4337664251734659  1.0000
  S   S127      1.0  0.47125751353756096  0.9529181561839235  0.48766940674711157  1.0000
  S   S128      1.0  0.44182261393626143  0.8989987062324051  0.4237694418727673  1.0000
  C   C1        1.0  0.35222144677929657  0.780000560011481  0.5513644399304959  1.0000
  C   C2        1.0  0.345478623833448  0.7976740589981218  0.5765588098111267  1.0000
  C   C3        1.0  0.35668702503797917  0.8293728026472891  0.5673544092273212  1.0000
  C   C4        1.0  0.3754727312362385  0.8436501882857873  0.5335773330853503  1.0000
  C   C5        1.0  0.38319821687044564  0.8262101126291452  0.5091788092360521  1.0000
  C   C6        1.0  0.37133392270738147  0.7943940707968631  0.5178751576670919  1.0000
  H   H1        1.0  0.33133013427766955  0.7869531716860423  0.6028610537959574  1.0000
  H   H2        1.0  0.35098416267010496  0.8429140449177519  0.5864844164907248  1.0000
  H   H3        1.0  0.3975859267051097  0.8370750130113483  0.48294569860176767  1.0000
  H   H4        1.0  0.3765814812609447  0.7808616288707301  0.4981961260806357  1.0000
  C   C7        1.0  0.454465254167796  0.7845178754747507  0.3241451048303113  1.0000
  C   C8        1.0  0.4444835550538935  0.7686455357371322  0.36035565665130403  1.0000
  C   C9        1.0  0.4500846814530475  0.7852318291299889  0.3936969026749719  1.0000
  C   C10       1.0  0.4645521612826996  0.8177327515305425  0.391068879273648  1.0000
  C   C11       1.0  0.4733697843561042  0.8335981548202871  0.3548453280983305  1.0000
  C   C12       1.0  0.4686707568171973  0.8170148130518683  0.321506274732417  1.0000
  H   H5        1.0  0.4328909539556404  0.7436557405888221  0.3628005166111127  1.0000
  H   H6        1.0  0.44311354970893824  0.7728395514948472  0.4216596726984225  1.0000
  H   H7        1.0  0.484825077336303  0.8586666950107769  0.35257218717634664  1.0000
  H   H8        1.0  0.4764305397607351  0.8294677148348126  0.2935893629195562  1.0000
  C   C13       1.0  0.3202238363998421  0.650578490900118  0.8144987723617633  1.0000
  C   C14       1.0  0.3002027626557328  0.6424441546465347  0.7843848667131582  1.0000
  C   C15       1.0  0.29660340734411406  0.6652466745991318  0.7635451141404356  1.0000
  C   C16       1.0  0.3123992800515453  0.6961065218309045  0.773471134850718  1.0000
  C   C17       1.0  0.33234925738119336  0.704189772438788  0.8035925768357224  1.0000
  C   C18       1.0  0.3366180783169842  0.6815593222539352  0.8236479614045321  1.0000
  H   H9        1.0  0.2872361654926392  0.6184963595982552  0.7774006863522938  1.0000
  H   H10       1.0  0.28103292738809943  0.6588170332234059  0.7404426769970083  1.0000
  H   H11       1.0  0.3442973320332486  0.7279128618081232  0.8116823507166695  1.0000
  H   H12       1.0  0.35202404806330034  0.6880619124049987  0.8467641993237974  1.0000
  C   C19       1.0  0.3914899204799029  0.6620099853321475  0.06169730605793555  1.0000
  C   C20       1.0  0.4072959593379787  0.6449629042132133  0.0631731307752923  1.0000
  C   C21       1.0  0.4179916122401131  0.6400868446811099  0.09826445905383147  1.0000
  C   C22       1.0  0.41334741683584303  0.6525495677515821  0.13190461294844708  1.0000
  C   C23       1.0  0.39846485396767883  0.6704900094760121  0.13002611657524205  1.0000
  C   C24       1.0  0.38726185035442695  0.6748651946881087  0.09516413057898676  1.0000
  H   H13       1.0  0.41075184419447  0.635022678863169  0.03751269487811193  1.0000
  H   H14       1.0  0.4295651922503829  0.6262436458724222  0.09946468945387145  1.0000
  H   H15       1.0  0.3952276720185711  0.6807033700333154  0.15548450326884308  1.0000
  H   H16       1.0  0.3752740460748147  0.6883155704182277  0.09412535377023712  1.0000
  C   C25       1.0  0.5305236164072981  0.6416976541945749  0.36616307221537125  1.0000
  C   C26       1.0  0.5186760138813663  0.647633605037289  0.3328525694959115  1.0000
  C   C27       1.0  0.48936690534729327  0.6459886316650226  0.3344847984412989  1.0000
  C   C28       1.0  0.4716856156959554  0.6382580475498287  0.36947701023643487  1.0000
  C   C29       1.0  0.483609517738962  0.6326543825381775  0.4028937463718216  1.0000
  C   C30       1.0  0.5129831312429093  0.634433330122315  0.4012583478219851  1.0000
  H   H17       1.0  0.5320497821813166  0.6530678301461533  0.3055721312454665  1.0000
  H   H18       1.0  0.4802082426213883  0.6499758443535396  0.3084816869695555  1.0000
  H   H19       1.0  0.47010966670998416  0.6269305801990854  0.4300839073560541  1.0000
  H   H20       1.0  0.5218661562999438  0.6298735175799958  0.42702690969706664  1.0000
  C   C31       1.0  0.507274188842902  0.8757545335090319  0.6385396723288872  1.0000
  C   C32       1.0  0.4851791234555772  0.882233657642402  0.622845396258379  1.0000
  C   C33       1.0  0.49462854971926784  0.9067648246766387  0.5948176345163532  1.0000
  C   C34       1.0  0.5261068348971752  0.9247190594997184  0.5825707586620423  1.0000
  C   C35       1.0  0.5481947585179416  0.9188335836314879  0.5992248138762195  1.0000
  C   C36       1.0  0.5388159580527915  0.8946174920404152  0.6274804613181912  1.0000
  H   H21       1.0  0.46073851721798725  0.8677495191266449  0.6313042769879673  1.0000
  H   H22       1.0  0.477474847923383  0.9115225286136592  0.5823341055055695  1.0000
  H   H23       1.0  0.5724992811851441  0.9323305460707995  0.589532872608218  1.0000
  H   H24       1.0  0.5561067975233469  0.8903023100923043  0.6402835863503791  1.0000
  C   C37       1.0  0.536283044863147  0.7621877733720015  0.779404198014418  1.0000
  C   C38       1.0  0.5274598710253032  0.7848463120769185  0.7847062677807486  1.0000
  C   C39       1.0  0.5040638782447515  0.7796973721023458  0.8128762106788442  1.0000
  C   C40       1.0  0.4885786441928859  0.7514347814884285  0.8347646929994267  1.0000
  C   C41       1.0  0.4968959978107704  0.7284738935004428  0.8289672222953915  1.0000
  C   C42       1.0  0.5210837522253012  0.7340518116744149  0.8016925212508444  1.0000
  H   H25       1.0  0.5392998259625708  0.806699671021186  0.7678420288907798  1.0000
  H   H26       1.0  0.4979724364603884  0.7976410299522383  0.8177132686238698  1.0000
  H   H27       1.0  0.4850848268935618  0.7066261197732909  0.8459056061998931  1.0000
  H   H28       1.0  0.5278751456458636  0.7164878271329383  0.7977394165147192  1.0000
  C   C43       1.0  0.5681135525187868  0.7489438854299997  0.5514649689660708  1.0000
  C   C44       1.0  0.5988829546606317  0.7645646135686737  0.5618251410425096  1.0000
  C   C45       1.0  0.6194197539802283  0.753426530784917  0.5520632994532761  1.0000
  C   C46       1.0  0.6094269852131803  0.7267543673274788  0.5315078119836711  1.0000
  C   C47       1.0  0.5788226045278286  0.7114705627023882  0.5203145781642173  1.0000
  C   C48       1.0  0.5582204074160709  0.7225892082721694  0.530215280844592  1.0000
  H   H29       1.0  0.6070562788179825  0.7854347844505702  0.5770373526172785  1.0000
  H   H30       1.0  0.6431538021096154  0.7655957569744094  0.5604090158238013  1.0000
  H   H31       1.0  0.5709633420893698  0.6910794584227681  0.5041456654708438  1.0000
  H   H32       1.0  0.5344836174449074  0.7104721702448569  0.5218956495931164  1.0000
  C   C49       1.0  0.5106647996433697  0.589409292005368  0.6232208593556438  1.0000
  C   C50       1.0  0.5368195971077031  0.61141219263879  0.6008452585084215  1.0000
  C   C51       1.0  0.5507471190045559  0.6017874072935772  0.5725738431262104  1.0000
  C   C52       1.0  0.5383781943357426  0.5702310975337822  0.566552847344413  1.0000
  C   C53       1.0  0.5131908459869036  0.5482438607775398  0.5901126258623021  1.0000
  C   C54       1.0  0.4995302183795524  0.5578435798392314  0.6185049122951874  1.0000
  H   H33       1.0  0.5456928687910626  0.6358332800012582  0.604325733825703  1.0000
  H   H34       1.0  0.5707727226121697  0.6189000225107495  0.5551585400942235  1.0000
  H   H35       1.0  0.5032122941133247  0.5238373260946229  0.5854639501965881  1.0000
  H   H36       1.0  0.47974887661289983  0.540616475483166  0.6359368429019014  1.0000
  C   C55       1.0  0.3899346695291393  0.5276672892850253  0.8042644591609555  1.0000
  C   C56       1.0  0.3953557551035843  0.5172792351354628  0.8395221726844749  1.0000
  C   C57       1.0  0.40950957125763127  0.5381314012059528  0.868022418911552  1.0000
  C   C58       1.0  0.4173368750529  0.5692865723507659  0.8619496134557185  1.0000
  C   C59       1.0  0.41273949594666043  0.5799294894941495  0.8262746908352291  1.0000
  C   C60       1.0  0.399667700846402  0.5592463733749505  0.7971286728197372  1.0000
  H   H37       1.0  0.3880159718496283  0.4929432994514859  0.845122297524177  1.0000
  H   H38       1.0  0.41328560403206926  0.5298601130120907  0.8954027525994607  1.0000
  H   H39       1.0  0.41941403326236837  0.6041008138803212  0.8210861256601695  1.0000
  H   H40       1.0  0.3957068680504797  0.5674612070321267  0.76987104538952  1.0000
  C   C61       1.0  0.24672307695744203  0.5920283179630892  0.5986653243785558  1.0000
  C   C62       1.0  0.22953128618860988  0.5610899199578924  0.5897847233061987  1.0000
  C   C63       1.0  0.224738056050844  0.5537149146305343  0.5513223534582183  1.0000
  C   C64       1.0  0.23713496108892465  0.5772431757419749  0.5218493546580083  1.0000
  C   C65       1.0  0.25604302866172896  0.6079427347988452  0.5307241706426419  1.0000
  C   C66       1.0  0.26122501430580586  0.6152404648699378  0.569106275805747  1.0000
  H   H41       1.0  0.21885866653717423  0.5429398235787329  0.612586980083698  1.0000
  H   H42       1.0  0.2104408575163281  0.5299976518635839  0.5447781863300607  1.0000
  H   H43       1.0  0.2662219896659291  0.6261828136040907  0.5079728426478929  1.0000
  H   H44       1.0  0.2762746637471683  0.6389055114676604  0.5757398791187013  1.0000
  C   C67       1.0  0.2504776670493771  0.5283651116589642  0.32756833183219225  1.0000
  C   C68       1.0  0.24121296750094268  0.5492452219064748  0.3406733831078589  1.0000
  C   C69       1.0  0.26036952728334023  0.5812121707094917  0.3326730110481563  1.0000
  C   C70       1.0  0.2894127419079814  0.592578983908473  0.3128011779512461  1.0000
  C   C71       1.0  0.2990785567835621  0.5717520758088392  0.30057669643012197  1.0000
  C   C72       1.0  0.27940310889688696  0.5396618601214138  0.3073042611536014  1.0000
  H   H45       1.0  0.2189311509278794  0.5407338104273046  0.35630179582188265  1.0000
  H   H46       1.0  0.25273053700052994  0.5971673049881774  0.342273247078867  1.0000
  H   H47       1.0  0.32159674323113785  0.5802704408895988  0.28594064084135057  1.0000
  H   H48       1.0  0.2868251827739517  0.5235667247463393  0.2976545536424002  1.0000
  C   C73       1.0  0.2655385038026808  0.46878635935625534  0.5388570892707625  1.0000
  C   C74       1.0  0.2718195513721345  0.49963873019337446  0.5358374029619449  1.0000
  C   C75       1.0  0.2975493334115774  0.5226507064034224  0.5529909953037311  1.0000
  C   C76       1.0  0.31708606902495556  0.5149658625472224  0.5734449045197557  1.0000
  C   C77       1.0  0.310688053420467  0.4841008081529516  0.5768327627415302  1.0000
  C   C78       1.0  0.28491697536719124  0.4610406399331727  0.5595839784889293  1.0000
  H   H49       1.0  0.2567220009478707  0.5057801940880361  0.5205391190646514  1.0000
  H   H50       1.0  0.30221841016447454  0.5464195484635654  0.5504564456130299  1.0000
  H   H51       1.0  0.32569482175706677  0.4779772993682074  0.5924057166865865  1.0000
  H   H52       1.0  0.28018470399832557  0.43723690772130896  0.5620032876446114  1.0000
  C   C79       1.0  0.7024024963872642  0.5526003748607545  0.42854682004446487  1.0000
  C   C80       1.0  0.7284175925250319  0.5810486725797099  0.4344073832345034  1.0000
  C   C81       1.0  0.7253876304157756  0.6078626143324911  0.43673433652505317  1.0000
  C   C82       1.0  0.6962736238751485  0.6062630116903083  0.4339892822649564  1.0000
  C   C83       1.0  0.6701708351493464  0.5776644553732283  0.42899563120184836  1.0000
  C   C84       1.0  0.6733006655167197  0.5510009051741738  0.4258955084597651  1.0000
  H   H53       1.0  0.7509521799465045  0.5825186339140193  0.4363810391544261  1.0000
  H   H54       1.0  0.7456840642942963  0.6299056502417341  0.44053072543206084  1.0000
  H   H55       1.0  0.6477009777249104  0.5762191125072668  0.4265627886726068  1.0000
  H   H56       1.0  0.6531365078403704  0.529147921146898  0.4209966081540137  1.0000
  C   C85       1.0  0.09425725149220532  0.6216401006057958  0.6652718663016615  1.0000
  C   C86       1.0  0.12014846736895013  0.6299736668552408  0.6871897504202434  1.0000
  C   C87       1.0  0.1498068648584611  0.653309678669341  0.6731574559276622  1.0000
  C   C88       1.0  0.15373222737162776  0.6687213960591173  0.6372355505780121  1.0000
  C   C89       1.0  0.12778006499290145  0.6606538896740196  0.6154655398202633  1.0000
  C   C90       1.0  0.09813334027983678  0.6369725669819528  0.6292735034221769  1.0000
  H   H57       1.0  0.11728535338793011  0.6182974526390485  0.7151322238623361  1.0000
  H   H58       1.0  0.16957329461070453  0.659618896038818  0.6903627257462834  1.0000
  H   H59       1.0  0.130621866100384  0.672584479029053  0.5877132554075124  1.0000
  H   H60       1.0  0.07827459193483799  0.6307882579753845  0.6122300788098283  1.0000
  C   C91       1.0  0.9481746593960494  0.5963094766977165  0.5072560229386354  1.0000
  C   C92       1.0  0.9506221498578529  0.620454793692606  0.48258228319009466  1.0000
  C   C93       1.0  0.9240669877288255  0.6192560476354536  0.4678229821637583  1.0000
  C   C94       1.0  0.8947733002932404  0.5936170713332273  0.47694571350050713  1.0000
  C   C95       1.0  0.8921163284132543  0.5690872556199889  0.5013156490229709  1.0000
  C   C96       1.0  0.9188440125232955  0.5705253667150847  0.5166820542989278  1.0000
  H   H61       1.0  0.9731953549361613  0.6403980793067505  0.47518784006548354  1.0000
  H   H62       1.0  0.9263124473822243  0.6383212412953978  0.4491690863541509  1.0000
  H   H63       1.0  0.8696076458799313  0.549213265991467  0.5084754497596946  1.0000
  H   H64       1.0  0.9169468255645434  0.5515851000978362  0.5351453022639234  1.0000
  C   C97       1.0  0.7452376225449988  0.41991147431331793  0.2787175707158348  1.0000
  C   C98       1.0  0.7750876272217007  0.42326751899771325  0.27907814223564886  1.0000
  C   C99       1.0  0.7942672754039313  0.4385237518361748  0.308654305482836  1.0000
  C   C100      1.0  0.7834357770023794  0.44964042128607423  0.33857725324046395  1.0000
  C   C101      1.0  0.7538369463035812  0.4468901277178447  0.33792851272495306  1.0000
  C   C102      1.0  0.7348288770357583  0.4322092951499411  0.30782852980613334  1.0000
  H   H65       1.0  0.7834034750904852  0.41413378737807544  0.2565132726452593  1.0000
  H   H66       1.0  0.8175850717941069  0.44183217864378316  0.30829323638616724  1.0000
  H   H67       1.0  0.7454404583258435  0.4557623857795087  0.36073198617910096  1.0000
  H   H68       1.0  0.7118021442663399  0.4298135577646876  0.30749990144709227  1.0000
  C   C103      1.0  0.8526754745016557  0.42593531531641954  0.7442654171038823  1.0000
  C   C104      1.0  0.8407747495838415  0.4460799603726752  0.7508629390814017  1.0000
  C   C105      1.0  0.856894285622616  0.47686833236091375  0.7351170157697108  1.0000
  C   C106      1.0  0.8845865489747463  0.4873932477839383  0.7121454376720445  1.0000
  C   C107      1.0  0.8959712910888835  0.46698502391943714  0.7047756575090189  1.0000
  C   C108      1.0  0.880252387016963  0.4364730549013248  0.7211465691647663  1.0000
  H   H69       1.0  0.8195244652988948  0.4381045202871478  0.768734615249724  1.0000
  H   H70       1.0  0.8479616788663287  0.49253568592734287  0.7410192031593588  1.0000
  H   H71       1.0  0.9170354567346873  0.4746598014223669  0.6867231539308805  1.0000
  H   H72       1.0  0.8895318102646106  0.4209882118609887  0.7158354504241294  1.0000
  C   C109      1.0  0.7396382022292278  0.3300697341307798  0.958161902547803  1.0000
  C   C110      1.0  0.72506929929655  0.31710523074495206  0.9947125142973533  1.0000
  C   C111      1.0  0.7351976745741838  0.33432810360330045  0.02748714227335203  1.0000
  C   C112      1.0  0.7599525547493056  0.3646462733493058  0.023860356403504035  1.0000
  C   C113      1.0  0.7743476909775353  0.37769586277945905  0.9872512795511886  1.0000
  C   C114      1.0  0.7643228723803075  0.3604425059274303  0.9545050688274568  1.0000
  H   H73       1.0  0.7057021857813739  0.2937497212174306  0.9975480166524038  1.0000
  H   H74       1.0  0.7236094093276563  0.32451826157709274  0.05547695831221319  1.0000
  H   H75       1.0  0.7935688315330359  0.4011558999424211  0.9843284648008167  1.0000
  H   H76       1.0  0.775997437514931  0.3704767874494789  0.9265818323107265  1.0000
  C   C115      1.0  0.9222792882085552  0.4260122310714556  0.4877221461163685  1.0000
  C   C116      1.0  0.9358630283117555  0.4579147613364219  0.492028430793407  1.0000
  C   C117      1.0  0.9515836963646792  0.47042788166448996  0.5250858170692221  1.0000
  C   C118      1.0  0.9540113870850907  0.4510157161690845  0.553406323860156  1.0000
  C   C119      1.0  0.9391109890124999  0.41901358364217256  0.5499001626052495  1.0000
  C   C120      1.0  0.9227521141324928  0.40646932805335817  0.5173673381189191  1.0000
  H   H77       1.0  0.9353118556546025  0.4730708658847816  0.46924180021979384  1.0000
  H   H78       1.0  0.9630914165099456  0.49521835182854684  0.5277770977681424  1.0000
  H   H79       1.0  0.9405552254853435  0.40394302846466157  0.572106486882559  1.0000
  H   H80       1.0  0.9111742318853764  0.38171450888634306  0.5148987622901582  1.0000
  C   C121      1.0  0.018274829360283462  0.36053406706617624  0.41826395946503253  1.0000
  C   C122      1.0  0.0475529160096797  0.37815673324628135  0.3985392585984524  1.0000
  C   C123      1.0  0.07376013429530512  0.39740622205179654  0.4184866593891046  1.0000
  C   C124      1.0  0.07070310259805142  0.3988017431513837  0.45829514456724135  1.0000
  C   C125      1.0  0.04175651594421991  0.38020523031453624  0.4781542646387377  1.0000
  C   C126      1.0  0.01562254836714394  0.36113488498335883  0.45823258435911857  1.0000
  H   H81       1.0  0.049779625230313984  0.3774501430172525  0.367622788261281  1.0000
  H   H82       1.0  0.09605583074106246  0.41158929953787626  0.40295106797175484  1.0000
  H   H83       1.0  0.03933734631357111  0.38094929126187693  0.5090352152734935  1.0000
  H   H84       1.0  0.9933462855101055  0.3470117069650634  0.4737794409803443  1.0000
  C   C127      1.0  0.8314630718415615  0.3030701396737313  0.32122536056775075  1.0000
  C   C128      1.0  0.8042513894091886  0.2971108545896431  0.30336677045078725  1.0000
  C   C129      1.0  0.8056023374258069  0.31569321607030304  0.27102358718216524  1.0000
  C   C130      1.0  0.834199742146553  0.34031866046850157  0.25650861270444814  1.0000
  C   C131      1.0  0.8614792856760795  0.3453296104870656  0.2733585948686521  1.0000
  C   C132      1.0  0.8601004632633873  0.3268360941412338  0.30567296815408196  1.0000
  H   H85       1.0  0.7820483984331852  0.27843543182962405  0.31489720796734016  1.0000
  H   H86       1.0  0.7845060405202148  0.3112232487390522  0.2577527615898772  1.0000
  H   H87       1.0  0.883708439262963  0.3640250146612796  0.2618894782875902  1.0000
  H   H88       1.0  0.8812849768498077  0.33081840033355714  0.3182143153943575  1.0000
  C   C133      1.0  0.6537639115939237  0.9370459322644148  0.6390010633530716  1.0000
  C   C134      1.0  0.6676534152286945  0.965123036648864  0.6165168188297276  1.0000
  C   C135      1.0  0.6770262838731752  0.9933075809818893  0.6336843738373469  1.0000
  C   C136      1.0  0.6735392597737726  0.9936394050988586  0.6736468874963094  1.0000
  C   C137      1.0  0.6594504563284878  0.9655462204060308  0.6961015515169265  1.0000
  C   C138      1.0  0.6491062580860559  0.9372528515522563  0.6787768396947769  1.0000
  H   H89       1.0  0.6712138324000478  0.9649793828211877  0.585700582496099  1.0000
  H   H90       1.0  0.6874457410146784  0.014649146974911483  0.6159325659178054  1.0000
  H   H91       1.0  0.656798437849681  0.9656303107972013  0.7270649419546344  1.0000
  H   H92       1.0  0.6387307837939572  0.915701678680518  0.6963409475484715  1.0000
  C   C139      1.0  0.7292007041190155  0.203576226302415  0.7217797249396775  1.0000
  C   C140      1.0  0.712191901624875  0.20747110671988148  0.6929191457218784  1.0000
  C   C141      1.0  0.7024638163119883  0.2298317411468242  0.6957830617800689  1.0000
  C   C142      1.0  0.7095466549927283  0.24814133390095647  0.7275890389248099  1.0000
  C   C143      1.0  0.7257785519444645  0.24357750992127586  0.7568550870697219  1.0000
  C   C144      1.0  0.735790714852303  0.2215339592723185  0.7538143038726702  1.0000
  H   H93       1.0  0.707006773605524  0.19364396185252192  0.6681309059910615  1.0000
  H   H94       1.0  0.6897975490421924  0.2331607372093066  0.6730907007395495  1.0000
  H   H95       1.0  0.7305022957588636  0.25686271420973006  0.7819904183462569  1.0000
  H   H96       1.0  0.7486337581283045  0.21830888578479163  0.7763884797246745  1.0000
  C   C145      1.0  0.8044953182034561  0.17381871838244992  0.5498328522839744  1.0000
  C   C146      1.0  0.8249927649018861  0.1879109528970525  0.5172708438431819  1.0000
  C   C147      1.0  0.8450268042989892  0.22011832151277572  0.5143725168418821  1.0000
  C   C148      1.0  0.8448687387630295  0.23819270662328335  0.5442789781158689  1.0000
  C   C149      1.0  0.8248895595210202  0.22393978530348746  0.5771688019263949  1.0000
  C   C150      1.0  0.8046212574392928  0.19187187999028954  0.5798622178971873  1.0000
  H   H97       1.0  0.8250659897293846  0.17400729941212945  0.4940355191223351  1.0000
  H   H98       1.0  0.8607053050418152  0.2309069734974033  0.48915900692736036  1.0000
  H   H99       1.0  0.824847084428001  0.23778353069416  0.6004882362883683  1.0000
  H   H100      1.0  0.789175279151407  0.1811716301320201  0.6053016950023828  1.0000
  C   C151      1.0  0.6723983240390325  0.4714568580502983  0.6110947646742448  1.0000
  C   C152      1.0  0.6754892031374639  0.4453740541170402  0.6207481299995058  1.0000
  C   C153      1.0  0.7014568026385024  0.44350293231252425  0.6062177090470369  1.0000
  C   C154      1.0  0.7243285955076385  0.46779856955773896  0.5821662732052413  1.0000
  C   C155      1.0  0.722202131356078  0.49469729065320533  0.5749947199830472  1.0000
  C   C156      1.0  0.6963140706719698  0.49657164735823933  0.5894117250593309  1.0000
  H   H101      1.0  0.6578932234657734  0.4266386882591331  0.6392933560238462  1.0000
  H   H102      1.0  0.7033443948430984  0.4229196563619471  0.612681141677958  1.0000
  H   H103      1.0  0.7404516780977209  0.5141962221310445  0.5584437688435882  1.0000
  H   H104      1.0  0.6943862143246999  0.5171035108803236  0.5825953645093485  1.0000
  C   C157      1.0  0.47574944622108084  0.4166628022446679  0.6635729471414125  1.0000
  C   C158      1.0  0.4638767308478708  0.4321295811181607  0.6858083909741196  1.0000
  C   C159      1.0  0.44835508164545435  0.44649319310878544  0.6686596372713902  1.0000
  C   C160      1.0  0.44410980288632873  0.44500639681176646  0.6292189991907912  1.0000
  C   C161      1.0  0.4559936337957557  0.42950843081844636  0.6069382786495657  1.0000
  C   C162      1.0  0.47201575090719955  0.41557600693339597  0.623997679090252  1.0000
  H   H105      1.0  0.4664896260623481  0.4328947018458222  0.7164865035432256  1.0000
  H   H106      1.0  0.43905886407213407  0.4581171707492316  0.6861253339298857  1.0000
  H   H107      1.0  0.452607504023683  0.4281231267780341  0.5764350985433111  1.0000
  H   H108      1.0  0.4807580108782602  0.40337781878411677  0.6066974012890297  1.0000
  C   C163      1.0  0.6101171951989288  0.3524778995888135  0.7438832873853288  1.0000
  C   C164      1.0  0.6164540173308708  0.3377318083561193  0.774580376634634  1.0000
  C   C165      1.0  0.6451454273428772  0.3527522858996168  0.7913725857041789  1.0000
  C   C166      1.0  0.6672938744319324  0.3829143533559836  0.7782282335058845  1.0000
  C   C167      1.0  0.6604444601188475  0.3981237595727775  0.7485411017144643  1.0000
  C   C168      1.0  0.6320307074859915  0.3828096424945548  0.7310740292122356  1.0000
  H   H109      1.0  0.599527945187618  0.31431534210828543  0.7847011123526587  1.0000
  H   H110      1.0  0.6500187172892181  0.34101710719770656  0.814646894252831  1.0000
  H   H111      1.0  0.6774581978625543  0.4215097048548087  0.7383721685787361  1.0000
  H   H112      1.0  0.6273441930049397  0.39441370866015485  0.7074283759824979  1.0000
  C   C169      1.0  0.6558288299068562  0.15845348631256018  0.48215473377506013  1.0000
  C   C170      1.0  0.6651496122631247  0.13596505364087733  0.4868666161713309  1.0000
  C   C171      1.0  0.658225955255287  0.11844523805157159  0.5220083858579817  1.0000
  C   C172      1.0  0.6411348357619155  0.12281341862432235  0.5518395570400189  1.0000
  C   C173      1.0  0.6326426872133355  0.14584552016248892  0.547448206874345  1.0000
  C   C174      1.0  0.640764804077885  0.1641988532159944  0.5129930383146735  1.0000
  H   H113      1.0  0.6771267676417206  0.13168010562261176  0.463179095688691  1.0000
  H   H114      1.0  0.665378129720936  0.10102391980497032  0.5256976081856269  1.0000
  H   H115      1.0  0.6203123803031239  0.14992311885512669  0.5709317915877619  1.0000
  H   H116      1.0  0.6356128441075422  0.18304973687431889  0.5104814246578782  1.0000
  C   C175      1.0  0.5047216378226596  0.07784647819764265  0.42321566014418643  1.0000
  C   C176      1.0  0.5259110862210907  0.07906161077164586  0.39439514918728785  1.0000
  C   C177      1.0  0.5239676949023684  0.051495832155666665  0.3817958672222592  1.0000
  C   C178      1.0  0.5012609073396166  0.02259563488109939  0.3984481320017829  1.0000
  C   C179      1.0  0.4801261131893136  0.021397439574734056  0.42734524484794545  1.0000
  C   C180      1.0  0.48171332990069243  0.04894220953629644  0.43946631230526906  1.0000
  H   H117      1.0  0.5434872665031522  0.10119295591497982  0.3813360147651868  1.0000
  H   H118      1.0  0.5402098334703916  0.05256250802528406  0.3591862445205295  1.0000
  H   H119      1.0  0.4621636903567391  0.9992220606535464  0.4398202490704706  1.0000
  H   H120      1.0  0.4650491934665581  0.04780060183461322  0.4614981753984425  1.0000
  C   C181      1.0  0.6213487021618055  0.24846360325093228  0.2892994811118139  1.0000
  C   C182      1.0  0.629337277121675  0.27086559441842656  0.25891406318460874  1.0000
  C   C183      1.0  0.6512930897908272  0.27460610559710374  0.22946603531993873  1.0000
  C   C184      1.0  0.664248400162111  0.254936308883548  0.22923125929101618  1.0000
  C   C185      1.0  0.6551839254487699  0.23150132753420094  0.2585765473052579  1.0000
  C   C186      1.0  0.6341004783200057  0.2285624530313512  0.2889358646484717  1.0000
  H   H121      1.0  0.6192347078871404  0.28603622614552177  0.2587121579247292  1.0000
  H   H122      1.0  0.6580016100079257  0.29259300641725333  0.20675221030683646  1.0000
  H   H123      1.0  0.6652236495511151  0.21627699593082747  0.25853363091013126  1.0000
  H   H124      1.0  0.6281583524559782  0.21126374064187542  0.31228589560836095  1.0000
  C   C187      1.0  0.5735689879160749  0.2667120609010932  0.5258522418643534  1.0000
  C   C188      1.0  0.5693411968741067  0.28014563253285063  0.4921964478880037  1.0000
  C   C189      1.0  0.5632515514136577  0.3051194789133227  0.49421364457832057  1.0000
  C   C190      1.0  0.5615232260773267  0.3168091558671958  0.5297972322973233  1.0000
  C   C191      1.0  0.5658969505566361  0.30341268729857934  0.5633973340625166  1.0000
  C   C192      1.0  0.5717923775657973  0.27837238122830876  0.5614110402206823  1.0000
  H   H125      1.0  0.5706020709093379  0.2712289683769353  0.46467331353103203  1.0000
  H   H126      1.0  0.559817448063003  0.31536752701209775  0.46815645093881564  1.0000
  H   H127      1.0  0.5643250970598657  0.312088642263573  0.5909586462319637  1.0000
  H   H128      1.0  0.5747813968396807  0.2678604460316506  0.5875292559922932  1.0000
  N   N1        1.0  0.3213653234120678  0.5880154174837945  0.1804606414861918  1.0000
  C   C193      1.0  0.287680521771405  0.5695802549945502  0.19122617952791687  1.0000
  C   C194      1.0  0.3340936932048266  0.6181505165746658  0.19814664038216634  1.0000
  C   C195      1.0  0.32641365814287615  0.5932731894033055  0.138126918977155  1.0000
  C   C196      1.0  0.3374048989489261  0.5711644888756175  0.19432542483885684  1.0000
  H   H129      1.0  0.27722623419017933  0.5465758965043152  0.1785931420580451  1.0000
  H   H130      1.0  0.27500867340663837  0.5817856802650729  0.181262867791397  1.0000
  H   H131      1.0  0.2830466682206938  0.5652994490813688  0.22301861051608496  1.0000
  H   H132      1.0  0.32383782765790997  0.6323583336312467  0.18696632097856214  1.0000
  H   H133      1.0  0.3293852315029981  0.6151388027409128  0.22990642557504049  1.0000
  H   H134      1.0  0.3597044313237223  0.6318678123402002  0.19241074351590393  1.0000
  H   H135      1.0  0.3516306371992627  0.6062027564922027  0.1290530566824415  1.0000
  H   H136      1.0  0.3158252485553452  0.6070873236871657  0.12660713472479257  1.0000
  H   H137      1.0  0.3163427407484322  0.5710378911710572  0.12371170494705552  1.0000
  H   H138      1.0  0.36297645713192106  0.5847218533987092  0.18698070711716896  1.0000
  H   H139      1.0  0.3286363828251871  0.5484116482738629  0.18134169196920302  1.0000
  H   H140      1.0  0.33409846908724317  0.5666857762127935  0.22610667102303883  1.0000
  N   N2        1.0  0.4605762099410563  0.5426730846403874  0.4908711427740166  1.0000
  C   C197      1.0  0.4561593297857947  0.5531217125775681  0.4524625322102365  1.0000
  C   C198      1.0  0.481975463426877  0.5297599209470165  0.48684519316420466  1.0000
  C   C199      1.0  0.43031689062341977  0.5184744273063289  0.5087992163092782  1.0000
  C   C200      1.0  0.4739699515694028  0.5693287377421857  0.5154173903357818  1.0000
  H   H141      1.0  0.4459871843478912  0.5336247141712702  0.4331373492507841  1.0000
  H   H142      1.0  0.4786794083028162  0.5711607000128622  0.4381164736924193  1.0000
  H   H143      1.0  0.44034263501980914  0.5632764436316178  0.4543601450897013  1.0000
  H   H144      1.0  0.505206193811787  0.5474104145751204  0.4737496573215489  1.0000
  H   H145      1.0  0.48580125303958077  0.5216261723861542  0.5153272704278082  1.0000
  H   H146      1.0  0.4727140930678831  0.5096490874162714  0.468445211567214  1.0000
  H   H147      1.0  0.4331304808054838  0.5091907581038299  0.5371618244181383  1.0000
  H   H148      1.0  0.4190448496414859  0.49840419894356075  0.49051491106115636  1.0000
  H   H149      1.0  0.41387798027435047  0.5276225580979705  0.5138834706280122  1.0000
  H   H150      1.0  0.4765382127047276  0.5620585821181154  0.5449805372594964  1.0000
  H   H151      1.0  0.4589321418345953  0.5802912925329037  0.5181964621059543  1.0000
  H   H152      1.0  0.49747554020754764  0.5874456435382053  0.5037233283576495  1.0000
  N   N3        1.0  0.3221669747228682  0.5874281623066314  0.673029994962856  1.0000
  C   C201      1.0  0.30418190756825203  0.5804635399486878  0.6383370071480969  1.0000
  C   C202      1.0  0.3554599000237329  0.6081857333158349  0.661862477070784  1.0000
  C   C203      1.0  0.31810801553720625  0.5582496250156235  0.691763775557521  1.0000
  C   C204      1.0  0.3108678987779711  0.6027970691636264  0.6999698990081713  1.0000
  H   H153      1.0  0.2789895502045354  0.5645494597458747  0.6455812608381413  1.0000
  H   H154      1.0  0.3120434190911966  0.5690917734239449  0.6171489364358721  1.0000
  H   H155      1.0  0.30654425745441  0.6019128568179253  0.6235497940918509  1.0000
  H   H156      1.0  0.36459471391890186  0.5972317623321165  0.6414048352295629  1.0000
  H   H157      1.0  0.35932377016619615  0.6303577039762148  0.6474651152386754  1.0000
  H   H158      1.0  0.3697990867546062  0.6138126918009622  0.6873084388126615  1.0000
  H   H159      1.0  0.2932547647563191  0.5420507145263919  0.7005882131857911  1.0000
  H   H160      1.0  0.3317415631899455  0.5625976113462874  0.7177472569817457  1.0000
  H   H161      1.0  0.3260779007121438  0.5459633192591378  0.6718848324335888  1.0000
  H   H162      1.0  0.32382050297031906  0.60848367666006  0.7266213322786478  1.0000
  H   H163      1.0  0.28568295579273445  0.5878864488124925  0.7085566956031756  1.0000
  H   H164      1.0  0.313387289250328  0.6247886596052322  0.6865507476809448  1.0000
  N   N4        1.0  0.4635249250882034  0.7527388603273866  0.9961067401753776  1.0000
  C   C205      1.0  0.4605160595813708  0.728109120365988  0.02419101307785554  1.0000
  C   C206      1.0  0.487064171992534  0.7578938190966383  0.9649013968558893  1.0000
  C   C207      1.0  0.4731705966118642  0.7817372176157732  0.015721251489664745  1.0000
  C   C208      1.0  0.43323524378599315  0.7432164227768885  0.9796236036351751  1.0000
  H   H165      1.0  0.44314606930177725  0.7239098836405977  0.04829043249218601  1.0000
  H   H166      1.0  0.48298833776362976  0.7341150655297057  0.03686248997696162  1.0000
  H   H167      1.0  0.45248189269245187  0.7056357345947707  0.010646059968481225  1.0000
  H   H168      1.0  0.5102881593130304  0.765166954243324  0.976117599386848  1.0000
  H   H169      1.0  0.4804891017936102  0.7365129861195491  0.9493731731023121  1.0000
  H   H170      1.0  0.48958452785701506  0.7760306763746707  0.9428857126390894  1.0000
  H   H171      1.0  0.47562405992835705  0.8007904428643302  0.9953352116453248  1.0000
  H   H172      1.0  0.49590938458616296  0.7895423475982023  0.02865297720978699  1.0000
  H   H173      1.0  0.4558013842435422  0.7786085588344887  0.03934043690758027  1.0000
  H   H174      1.0  0.43459098490278497  0.7608840832091124  0.957733080855147  1.0000
  H   H175      1.0  0.4147710632529551  0.7389883323773091  0.0022504793154798364  1.0000
  H   H176      1.0  0.4252132504591001  0.7212592264019725  0.9650895754207093  1.0000
  N   N5        1.0  0.42522400586496645  0.7709024525193201  0.7488679622453602  1.0000
  C   C209      1.0  0.42170886124714424  0.7459143281328877  0.7767283352883783  1.0000
  C   C210      1.0  0.4324761749641153  0.7645051568486455  0.7097985709679383  1.0000
  C   C211      1.0  0.45083309018885986  0.8008873940557918  0.7593879999922842  1.0000
  C   C212      1.0  0.3959289185162235  0.772370196352508  0.7494114826403644  1.0000
  H   H177      1.0  0.4168621936977629  0.7503173308141518  0.8066819425983468  1.0000
  H   H178      1.0  0.4432371982230951  0.7438318775954983  0.776724108564882  1.0000
  H   H179      1.0  0.4021499671252966  0.7230196658319191  0.7701873587642207  1.0000
  H   H180      1.0  0.4353659248681265  0.7830673799817641  0.6882074494842821  1.0000
  H   H181      1.0  0.45461762395161254  0.7635205342203275  0.7082767563154108  1.0000
  H   H182      1.0  0.4136525361520538  0.7420794720810494  0.7008116362127176  1.0000
  H   H183      1.0  0.4534319555110698  0.8203991892016838  0.7397028287795963  1.0000
  H   H184      1.0  0.47354118674377604  0.8010608724771069  0.7573948205757238  1.0000
  H   H185      1.0  0.44688969975467513  0.8059798159713216  0.7892938352572094  1.0000
  H   H186      1.0  0.38952407498516306  0.7769312505567503  0.7784942797874825  1.0000
  H   H187      1.0  0.37613313179859237  0.7501999561401307  0.7412449143594076  1.0000
  H   H188      1.0  0.3976959168131395  0.7910233054033706  0.7288481191712713  1.0000
  N   N6        1.0  0.47409672049277995  0.8067793542580319  0.5432919380059192  1.0000
  C   C213      1.0  0.47907827907886297  0.7868591699221916  0.5164910462832846  1.0000
  C   C214      1.0  0.4441956534789441  0.8059043212719055  0.536706158590643  1.0000
  C   C215      1.0  0.4998315313913739  0.8389788518260515  0.5368765870366959  1.0000
  C   C216      1.0  0.4733231953611211  0.7953524164919611  0.5832779879973594  1.0000
  H   H189      1.0  0.5012337975649848  0.7866486347601931  0.5213084094698174  1.0000
  H   H190      1.0  0.48036090340616716  0.7952134805559146  0.4860276834374901  1.0000
  H   H191      1.0  0.45984117991463286  0.7625147225631892  0.5200126928775524  1.0000
  H   H192      1.0  0.4400793486055189  0.8212760732980028  0.5559025265461239  1.0000
  H   H193      1.0  0.4436183429403768  0.8138609168950292  0.5066313134609847  1.0000
  H   H194      1.0  0.424140517912347  0.7820827096209292  0.5419036730322584  1.0000
  H   H195      1.0  0.49713975290319873  0.8546581188703816  0.5568971611981236  1.0000
  H   H196      1.0  0.5008861015494512  0.8484892023079144  0.5070858263567165  1.0000
  H   H197      1.0  0.5227607909528414  0.8404688358466366  0.5410889274508807  1.0000
  H   H198      1.0  0.4692279657328634  0.8097148569255759  0.6040940796197118  1.0000
  H   H199      1.0  0.4956606548751617  0.7960925863675927  0.5895165898163182  1.0000
  H   H200      1.0  0.4544445368851811  0.7710069764206906  0.5889806015913648  1.0000
  N   N7        1.0  0.5166701332756253  0.7445511138320129  0.3519202424153921  1.0000
  C   C217      1.0  0.5266087174197116  0.7411843658120303  0.31263080298997425  1.0000
  C   C218      1.0  0.5238899567970682  0.7770356564223412  0.3558472937177145  1.0000
  C   C219      1.0  0.5330875582626469  0.7358516650399505  0.3803492126757957  1.0000
  C   C220      1.0  0.48283523029714454  0.7239543688842461  0.3586769817211794  1.0000
  H   H201      1.0  0.5212577153912948  0.7168501217916844  0.30859610596737475  1.0000
  H   H202      1.0  0.5520609132718254  0.756367683448587  0.30641325936753105  1.0000
  H   H203      1.0  0.5145016824212427  0.7474825833028858  0.29049834069949887  1.0000
  H   H204      1.0  0.5158326784858066  0.7802898373575864  0.3847470501682927  1.0000
  H   H205      1.0  0.5492954619196593  0.7933285573244712  0.35157857468112785  1.0000
  H   H206      1.0  0.512160354280384  0.7842959308244106  0.3342260811315191  1.0000
  H   H207      1.0  0.5260727521528128  0.7380567463798842  0.4103255973150455  1.0000
  H   H208      1.0  0.5587520232246878  0.7507813564874033  0.3760334725990619  1.0000
  H   H209      1.0  0.5278815274274881  0.7113419704619177  0.37807576802167386  1.0000
  H   H210      1.0  0.47422633522464974  0.7260366621500843  0.38780199354721795  1.0000
  H   H211      1.0  0.47656526132965077  0.6992939993630068  0.35618350512507724  1.0000
  H   H212      1.0  0.46985299479098946  0.7295440563166915  0.33725184267122793  1.0000
  N   N8        1.0  0.2652259128618264  0.7625654436870692  0.5126036314499602  1.0000
  C   C221      1.0  0.2351197953518085  0.7586439507698005  0.5006779004205915  1.0000
  C   C222      1.0  0.27286381244922664  0.7409686735779177  0.49263741220342494  1.0000
  C   C223      1.0  0.2629540977442044  0.7557391568808915  0.5545840098457586  1.0000
  C   C224      1.0  0.2899362597730142  0.7948033506968499  0.502663936176033  1.0000
  H   H213      1.0  0.22879822674298156  0.774656856507236  0.515365814204108  1.0000
  H   H214      1.0  0.21594488339505524  0.7346058763208075  0.5081455676760892  1.0000
  H   H215      1.0  0.23580381329039657  0.7634098057426895  0.4690945874302792  1.0000
  H   H216      1.0  0.295620160941799  0.7435801674030665  0.5009420529348112  1.0000
  H   H217      1.0  0.25501864716984923  0.716386818734387  0.5000093670421714  1.0000
  H   H218      1.0  0.27460572006397  0.745233939233251  0.4608400381014621  1.0000
  H   H219      1.0  0.25831834421589184  0.7721701294611676  0.5709322401556788  1.0000
  H   H220      1.0  0.28476854319075295  0.7571874826629633  0.5643437225407618  1.0000
  H   H221      1.0  0.24386177875959247  0.7319445340992748  0.5631943618949494  1.0000
  H   H222      1.0  0.3130889395349765  0.7982295824702923  0.510078485643763  1.0000
  H   H223      1.0  0.2857968448448105  0.8117996524162814  0.5184287512644465  1.0000
  H   H224      1.0  0.2917643918435835  0.80107431347127  0.4713199161367226  1.0000
  N   N9        1.0  0.1366469909833542  0.3641812804612025  0.5202452192742382  1.0000
  C   C225      1.0  0.11478921755577878  0.3586803309927975  0.48973634695363993  1.0000
  C   C226      1.0  0.1450159883621451  0.39421583136387706  0.5365269048273922  1.0000
  C   C227      1.0  0.16512553776939137  0.36481925585270714  0.5038601362280056  1.0000
  C   C228      1.0  0.12169107346390619  0.3391219692206146  0.5509932606324978  1.0000
  H   H225      1.0  0.10797078003831856  0.3362940179222278  0.47654448155927737  1.0000
  H   H226      1.0  0.12515534982146223  0.3773543179724394  0.46623108384196854  1.0000
  H   H227      1.0  0.09315037512295381  0.35831981044116645  0.5011246612011335  1.0000
  H   H228      1.0  0.12417524430739774  0.3948977556087608  0.5488754232634423  1.0000
  H   H229      1.0  0.16186959360508357  0.3995311175427371  0.5592619408709805  1.0000
  H   H230      1.0  0.15622488207302357  0.4134074368082986  0.5139667813845585  1.0000
  H   H231      1.0  0.18235468736936591  0.3695194515726529  0.5260100111372903  1.0000
  H   H232      1.0  0.17710496522952404  0.383565888679258  0.480669347749677  1.0000
  H   H233      1.0  0.15989601781931215  0.34254921476527317  0.49134726665422657  1.0000
  H   H234      1.0  0.11504806284193966  0.3160874043520173  0.5397050891139135  1.0000
  H   H235      1.0  0.10017976025857458  0.3381277532376539  0.5639876630964692  1.0000
  H   H236      1.0  0.1375728225796041  0.34266856307162474  0.5744939480028162  1.0000
  N   N10       1.0  0.8353981339306991  0.5121465188779042  0.6148700865026036  1.0000
  C   C229      1.0  0.8251804818484062  0.5259956882811194  0.584195586800944  1.0000
  C   C230      1.0  0.8121846200541187  0.47905706155918837  0.6225489810679574  1.0000
  C   C231      1.0  0.8385515832422478  0.5286316415530945  0.6503584878776771  1.0000
  C   C232      1.0  0.8656900430429071  0.514853060784712  0.6024412109590617  1.0000
  H   H237      1.0  0.8423331267435827  0.5508980178547643  0.5773508033663424  1.0000
  H   H238      1.0  0.8023225808629734  0.5243183903483938  0.5925345571254076  1.0000
  H   H239      1.0  0.8221553386698697  0.5137788020217613  0.5572011271544379  1.0000
  H   H240      1.0  0.8091932157278937  0.46588296025113757  0.5963432329218726  1.0000
  H   H241      1.0  0.8191556979903872  0.46794117766059284  0.6456843138916155  1.0000
  H   H242      1.0  0.7889170924272186  0.4760881372503265  0.6316604030349612  1.0000
  H   H243      1.0  0.845569508520728  0.5182941266419664  0.6742925590834501  1.0000
  H   H244      1.0  0.8162364629367604  0.527553373012062  0.6600723348317575  1.0000
  H   H245      1.0  0.8565936883490909  0.5534851931720579  0.6460039074889223  1.0000
  H   H246      1.0  0.8735026930078964  0.5035584023049791  0.6243025009320524  1.0000
  H   H247      1.0  0.8841667395927232  0.5395488771622372  0.5980361495401895  1.0000
  H   H248      1.0  0.8644576303708089  0.503644278671639  0.5749479101487699  1.0000
  N   N11       1.0  0.5090268103599656  0.35457732715214524  0.78312732613684  1.0000
  C   C233      1.0  0.540013106353785  0.3582161035751484  0.7901678959437155  1.0000
  C   C234      1.0  0.4986056578466675  0.339459735464157  0.7466858721452596  1.0000
  C   C235      1.0  0.5109222772595691  0.3853962825470619  0.7804591751281603  1.0000
  C   C236      1.0  0.4865106958797097  0.3351938665557242  0.8150558850452447  1.0000
  H   H249      1.0  0.5486712154865218  0.36943770419590094  0.8174834884968258  1.0000
  H   H250      1.0  0.5575654776494215  0.3727264325396641  0.7665513491806316  1.0000
  H   H251      1.0  0.5395851743048072  0.33544358267369845  0.79170252568819  1.0000
  H   H252      1.0  0.47533645151599097  0.33639929680017827  0.7402134862777676  1.0000
  H   H253      1.0  0.5148582491348521  0.35372124197360527  0.7221058315232958  1.0000
  H   H254      1.0  0.4974468782108377  0.31637625888067483  0.7471510354276449  1.0000
  H   H255      1.0  0.4881273217714203  0.3835949497815423  0.7739934425685348  1.0000
  H   H256      1.0  0.5279619535046838  0.4007059291350433  0.7568379262233766  1.0000
  H   H257      1.0  0.5182024157212929  0.3973855929780951  0.8076173384749906  1.0000
  H   H258      1.0  0.49362991914129817  0.34584849320299144  0.8430765075216955  1.0000
  H   H259      1.0  0.4844389998564651  0.31172240650557204  0.8176651524502112  1.0000
  H   H260      1.0  0.4629148215101027  0.3320745041610256  0.810528487567164  1.0000
  N   N12       1.0  0.5627331835964497  0.5015962096643443  0.6218213612151551  1.0000
  C   C237      1.0  0.5355421458349983  0.4872563732366322  0.5982012098811443  1.0000
  C   C238      1.0  0.5572292985098827  0.4811342186513678  0.6566179307770363  1.0000
  C   C239      1.0  0.5673780316463324  0.532000048904592  0.6332355895674809  1.0000
  C   C240      1.0  0.5907218492345918  0.5060169923707052  0.5991317628949315  1.0000
  H   H261      1.0  0.5390135356846811  0.5017847628892707  0.5713854039996897  1.0000
  H   H262      1.0  0.5141114154570655  0.4841299582561397  0.6142188235289423  1.0000
  H   H263      1.0  0.5310142924247429  0.464050937808524  0.5895759855934866  1.0000
  H   H264      1.0  0.5363484197436643  0.47754439027942824  0.6744683404415784  1.0000
  H   H265      1.0  0.5530783883234875  0.45781934961971227  0.6490349974429689  1.0000
  H   H266      1.0  0.5775137066867937  0.4908727874251909  0.6748326133067235  1.0000
  H   H267      1.0  0.5871705455997916  0.5431047906767489  0.6520153340159172  1.0000
  H   H268      1.0  0.5462401656485296  0.5297678557498797  0.6491110015772941  1.0000
  H   H269      1.0  0.5725577698431986  0.5482723390592702  0.6076125319208558  1.0000
  H   H270      1.0  0.5955181030985014  0.5214808244650448  0.5727327478323909  1.0000
  H   H271      1.0  0.5880305115677361  0.4835800074152138  0.5899068819364484  1.0000
  H   H272      1.0  0.6117331432387558  0.5165800773445715  0.6161270133969777  1.0000
  N   N13       1.0  0.6880829225266815  0.32748705828320385  0.340057608799309  1.0000
  C   C241      1.0  0.6892315311628402  0.2988001004515094  0.33239660080222466  1.0000
  C   C242      1.0  0.7200636315489143  0.35379840826819414  0.3388977911505739  1.0000
  C   C243      1.0  0.6723731284794443  0.3238037769600412  0.3784302708319364  1.0000
  C   C244      1.0  0.6706192742461191  0.33359072073795115  0.3105351577869881  1.0000
  H   H273      1.0  0.6977417708966662  0.2992057246651477  0.302169597578639  1.0000
  H   H274      1.0  0.6658573692708424  0.2780971372456494  0.3370901937011645  1.0000
  H   H275      1.0  0.7045937225799738  0.2949896436670166  0.35183508033749  1.0000
  H   H276      1.0  0.7200667287840187  0.3756430551070891  0.3455369705740806  1.0000
  H   H277      1.0  0.7342117019981216  0.3498060330898155  0.36007204135568294  1.0000
  H   H278      1.0  0.7320005200701848  0.35773412060228227  0.3097971285554439  1.0000
  H   H279      1.0  0.6846494947336417  0.318842831323905  0.4014698590060376  1.0000
  H   H280      1.0  0.6480199238187997  0.30416776575887006  0.3799058507658332  1.0000
  H   H281      1.0  0.6711135416405436  0.3450312874000274  0.3851640442780315  1.0000
  H   H282      1.0  0.6714620748804943  0.35633794327664764  0.31354878434504624  1.0000
  H   H283      1.0  0.6457211414460232  0.3154386703563287  0.31255979110000676  1.0000
  H   H284      1.0  0.6803165724422758  0.33422256003376843  0.2808778518751555  1.0000
  N   N14       1.0  0.8860552009058031  0.559248200281559  0.35752935514438283  1.0000
  C   C245      1.0  0.8851108569388821  0.5885197100718014  0.3611216666339602  1.0000
  C   C246      1.0  0.9173081663156057  0.5661977966703399  0.3422265570399443  1.0000
  C   C247      1.0  0.8625024692384369  0.5395863169619329  0.33118261006570776  1.0000
  C   C248      1.0  0.879287999040857  0.5426783664671505  0.39579226638441295  1.0000
  H   H285      1.0  0.8617065970345936  0.5840897960274078  0.3722589215600088  1.0000
  H   H286      1.0  0.8906008010130093  0.6020243812983956  0.3329942870249772  1.0000
  H   H287      1.0  0.9019439567930261  0.603510964885408  0.38174708445092886  1.0000
  H   H288      1.0  0.9188412806852692  0.5445867931671038  0.3395217003566345  1.0000
  H   H289      1.0  0.9231898670342249  0.578627008239722  0.3132764837707256  1.0000
  H   H290      1.0  0.9355466420343076  0.5810948570996343  0.3615120014917564  1.0000
  H   H291      1.0  0.8623863323282043  0.5171851232930619  0.32797408466903355  1.0000
  H   H292      1.0  0.866647524856045  0.5513549377185921  0.302039719536913  1.0000
  H   H293      1.0  0.8385998468125989  0.5336248279170699  0.34216349505063653  1.0000
  H   H294      1.0  0.8782046241557768  0.5197207296119071  0.39418979640315627  1.0000
  H   H295      1.0  0.8565362282924294  0.5384456280299832  0.4086934674585587  1.0000
  H   H296      1.0  0.8971019646512334  0.5563492442239518  0.4161887123554135  1.0000
  N   N15       1.0  0.32216035746090227  0.596736920819934  0.4268233763969611  1.0000
  C   C249      1.0  0.30545087021609085  0.6135263314764522  0.4153803500484551  1.0000
  C   C250      1.0  0.3095208856824031  0.5806924194701645  0.4652169021967055  1.0000
  C   C251      1.0  0.3556713009896331  0.6189517115780363  0.4281933183624977  1.0000
  C   C252      1.0  0.31799232630634666  0.573787816596901  0.3983599282085196  1.0000
  H   H297      1.0  0.30739684288255587  0.630562517811392  0.4365842495440451  1.0000
  H   H298      1.0  0.2801700222715427  0.5972907713481099  0.4132456841652603  1.0000
  H   H299      1.0  0.31467292097584537  0.6263334157329835  0.38679959911316913  1.0000
  H   H300      1.0  0.3211698537263295  0.5673288692883687  0.47468406888449455  1.0000
  H   H301      1.0  0.3122795293163267  0.597328031397159  0.48739940581946395  1.0000
  H   H302      1.0  0.28421846305830123  0.5641010763587856  0.4651929941944209  1.0000
  H   H303      1.0  0.369025053471303  0.607012885730374  0.4364220139491433  1.0000
  H   H304      1.0  0.3597832942615479  0.6367453082657588  0.44922287126374505  1.0000
  H   H305      1.0  0.3659283494258687  0.6313647505259422  0.39959956197871266  1.0000
  H   H306      1.0  0.3286814119953462  0.585382110135066  0.36955829627412634  1.0000
  H   H307      1.0  0.2929206542917517  0.5576615646042061  0.3948657979371456  1.0000
  H   H308      1.0  0.32892522548888287  0.5595505749325238  0.40691571644901636  1.0000
  N   N16       1.0  0.7246012515417031  0.7317402758994543  0.46779736647708897  1.0000
  C   C253      1.0  0.7551502296733049  0.751409456376968  0.48323109670010966  1.0000
  C   C254      1.0  0.7291580447291929  0.7217817737419123  0.42969298654494176  1.0000
  C   C255      1.0  0.707662125414861  0.749460348384096  0.4639848404114  1.0000
  C   C256      1.0  0.7063443045197012  0.7041643224455119  0.49439574202787934  1.0000
  H   H309      1.0  0.7695893827840817  0.7724650881623392  0.4638711627184823  1.0000
  H   H310      1.0  0.7683879224310618  0.7385738964307601  0.48650075408310556  1.0000
  H   H311      1.0  0.752436476128238  0.759176435609211  0.5120361532985678  1.0000
  H   H312      1.0  0.7065121396164514  0.7066638418805211  0.4173434624540109  1.0000
  H   H313      1.0  0.7428514098103007  0.7418831875336882  0.40871628952027134  1.0000
  H   H314      1.0  0.7414302394765822  0.7078899811992546  0.43164212371393157  1.0000
  H   H315      1.0  0.720668667735725  0.7705252893798139  0.4442222339502995  1.0000
  H   H316      1.0  0.703306815382119  0.7568421871504025  0.49235140486381485  1.0000
  H   H317      1.0  0.6844220711690623  0.7351909667798011  0.4525434856572152  1.0000
  H   H318      1.0  0.7018219641956759  0.7105466705516611  0.5233233343213265  1.0000
  H   H319      1.0  0.7181158493772388  0.6899069580476416  0.49782021474828114  1.0000
  H   H320      1.0  0.6833871130644931  0.6889206432040049  0.48329218991487205  1.0000
  N   N17       1.0  0.4831086878653292  0.16644374336005371  0.5125720375136719  1.0000
  C   C257      1.0  0.5075562168848232  0.1582259427038559  0.5204924208621644  1.0000
  C   C258      1.0  0.4691288913427272  0.15329505277726863  0.47629839584254535  1.0000
  C   C259      1.0  0.49696880793255377  0.20057869995642563  0.5090347105857286  1.0000
  C   C260      1.0  0.4588489516407143  0.15359523751962315  0.5445333371439827  1.0000
  H   H321      1.0  0.4981745780916828  0.13265283083720675  0.5229274732537456  1.0000
  H   H322      1.0  0.5190907160300922  0.16807229471910806  0.547314034527578  1.0000
  H   H323      1.0  0.5259993492320872  0.16748999220011812  0.4968336255708397  1.0000
  H   H324      1.0  0.4505182209240947  0.1589114624245139  0.4692398794875929  1.0000
  H   H325      1.0  0.4868186956977622  0.16231034500590044  0.45156362324208527  1.0000
  H   H326      1.0  0.4589217096197764  0.12759442003531155  0.4777773539744941  1.0000
  H   H327      1.0  0.4793254908741401  0.20780577690813049  0.5029496180684954  1.0000
  H   H328      1.0  0.5155667488983497  0.2110625581830317  0.48537030122292457  1.0000
  H   H329      1.0  0.5080354122827982  0.21126336965958592  0.5357847776564203  1.0000
  H   H330      1.0  0.44800093718315  0.12787272058788263  0.5479123273080825  1.0000
  H   H331      1.0  0.4400072882214285  0.15937924736243447  0.5395267314886342  1.0000
  H   H332      1.0  0.4687137800146427  0.16296663533717842  0.5723286285967513  1.0000
  N   N18       1.0  0.7046037138768749  0.39455166659866386  0.9220496506704582  1.0000
  C   C261      1.0  0.7032472531317356  0.3891743827909615  0.964281016234551  1.0000
  C   C262      1.0  0.6938374616747032  0.3648262362329451  0.903805736024628  1.0000
  C   C263      1.0  0.7369657736494378  0.41634401174030855  0.9077610351789914  1.0000
  C   C264      1.0  0.684389410207856  0.4078341152638568  0.9121074298414671  1.0000
  H   H333      1.0  0.7119404104715612  0.4111893652164771  0.9790766935642219  1.0000
  H   H334      1.0  0.7177657739626115  0.3785356688922067  0.9725603951669403  1.0000
  H   H335      1.0  0.6791118361124041  0.37315931681339426  0.9761698893473278  1.0000
  H   H336      1.0  0.6698883313385038  0.3473538591956316  0.9147434960493395  1.0000
  H   H337      1.0  0.6937147844846749  0.3678962094509136  0.8720567056546125  1.0000
  H   H338      1.0  0.709215881098312  0.35469942762540696  0.9094584021169649  1.0000
  H   H339      1.0  0.7387982536570491  0.4206889925198341  0.8758857965185933  1.0000
  H   H340      1.0  0.7529023924667543  0.407099053771515  0.9148457242751588  1.0000
  H   H341      1.0  0.7458602715340504  0.4391082508236688  0.9207637561795401  1.0000
  H   H342      1.0  0.6851465621779325  0.41222637838642584  0.8803275162971219  1.0000
  H   H343      1.0  0.6917676736392745  0.4302878146003371  0.925427434251898  1.0000
  H   H344      1.0  0.6597211972448613  0.39186004514600437  0.9220570623517644  1.0000
  N   N19       1.0  0.8139980279023087  0.3089856536117525  0.7042071903335967  1.0000
  C   C265      1.0  0.8052397654397594  0.28069614590134595  0.6832393114904838  1.0000
  C   C266      1.0  0.8450174102514959  0.3337507056121281  0.6891697802130884  1.0000
  C   C267      1.0  0.8148796642611275  0.30209562429001297  0.7456337613440666  1.0000
  C   C268      1.0  0.79084950174686  0.319480600099499  0.6988886463432167  1.0000
  H   H345      1.0  0.8218505012788779  0.27172617905504076  0.6871655160529393  1.0000
  H   H346      1.0  0.8047445118898189  0.28508033324429655  0.6517897216245727  1.0000
  H   H347      1.0  0.7817374027600564  0.26171755542889746  0.6935449033139994  1.0000
  H   H348      1.0  0.8631055258340188  0.32665949213890005  0.6926764269074848  1.0000
  H   H349      1.0  0.8452326456186462  0.3396928397638073  0.6579958271547945  1.0000
  H   H350      1.0  0.8522572228745661  0.3553861663657347  0.7045595606129542  1.0000
  H   H351      1.0  0.8213612281174236  0.32295796379629294  0.7623222779486898  1.0000
  H   H352      1.0  0.8320853416405909  0.29409710113465176  0.7507863002084177  1.0000
  H   H353      1.0  0.7918404759937887  0.2835800159843832  0.7579838434965251  1.0000
  H   H354      1.0  0.7968929243492744  0.34093104854713185  0.7140625278150723  1.0000
  H   H355      1.0  0.7672894633658386  0.30161854002174426  0.7105196455067367  1.0000
  H   H356      1.0  0.7892304489178018  0.3245264550573112  0.6679682191605819  1.0000
  N   N20       1.0  0.7228682889918078  0.24931596428267402  0.08623491145143056  1.0000
  C   C269      1.0  0.7325342817625659  0.24213240484685544  0.1231744008619538  1.0000
  C   C270      1.0  0.7504908533957513  0.2730804561283452  0.06290244836405022  1.0000
  C   C271      1.0  0.7008297317155383  0.2610813865164122  0.09381298883753342  1.0000
  C   C272      1.0  0.7074983869089029  0.22084683895818175  0.06504765959137314  1.0000
  H   H357      1.0  0.7121758883940711  0.22460026110409614  0.1417468688503523  1.0000
  H   H358      1.0  0.744127432004741  0.2630344904968479  0.14004648416263238  1.0000
  H   H359      1.0  0.7490640412040953  0.2330517966598655  0.11878570484900337  1.0000
  H   H360      1.0  0.7442113010539502  0.2782425153423353  0.034261350796252144  1.0000
  H   H361      1.0  0.7619815005751409  0.29533812285573163  0.07726756812592794  1.0000
  H   H362      1.0  0.7681448282012093  0.26547333192059935  0.057839383412097094  1.0000
  H   H363      1.0  0.679964514616696  0.24395109330089015  0.1119965491262774  1.0000
  H   H364      1.0  0.6926891417537141  0.2663935318824594  0.06669072717041631  1.0000
  H   H365      1.0  0.7116594453665596  0.2826430762870372  0.10966306429803435  1.0000
  H   H366      1.0  0.6865613804725191  0.20246114736800455  0.081921146324501  1.0000
  H   H367      1.0  0.7234568280587065  0.21131968124255054  0.05880507738030135  1.0000
  H   H368      1.0  0.6998215228167803  0.22540864729829863  0.03704173028015978  1.0000
  N   N21       1.0  0.6463237103573207  0.30777880700302995  0.6653791565760988  1.0000
  C   C273      1.0  0.6326493436646813  0.2748740516583712  0.6564522803060177  1.0000
  C   C274      1.0  0.6793283898710922  0.324676276329435  0.6509097593458981  1.0000
  C   C275      1.0  0.6442804057339996  0.30983738411520056  0.7074597612643102  1.0000
  C   C276      1.0  0.6290804459574602  0.3217593163540543  0.6469502484902904  1.0000
  H   H369      1.0  0.6078503499750485  0.26137577599656947  0.6674251916604562  1.0000
  H   H370      1.0  0.6453198245445985  0.2637711230436677  0.6699202416503282  1.0000
  H   H371      1.0  0.6335437629786852  0.27235542465995044  0.6248617493226892  1.0000
  H   H372      1.0  0.6903735781147041  0.34959796195527243  0.657213127089103  1.0000
  H   H373      1.0  0.6929455760476991  0.31480197613163746  0.6647055777157357  1.0000
  H   H374      1.0  0.6818336842924713  0.32344636023356454  0.619248814132968  1.0000
  H   H375      1.0  0.6556834695599079  0.33439496517550793  0.7152823505115374  1.0000
  H   H376      1.0  0.6559443930989071  0.2985094682146348  0.7226377803352608  1.0000
  H   H377      1.0  0.6196568178534635  0.29835128886458423  0.7192213296779878  1.0000
  H   H378      1.0  0.6385888052685318  0.34648323754039434  0.6536566892566595  1.0000
  H   H379      1.0  0.6040673991354324  0.3095152317626685  0.6573258615524605  1.0000
  H   H380      1.0  0.6301451237303689  0.32079925064163173  0.6150828610797437  1.0000
  N   N22       1.0  0.7616263339850179  0.21288670969741452  0.4642234508820967  1.0000
  C   C277      1.0  0.7553592276183092  0.18653453799680214  0.4913993365825782  1.0000
  C   C278      1.0  0.7442706079878305  0.22834549349396005  0.47834811741714306  1.0000
  C   C279      1.0  0.7515390177917527  0.20147708055842592  0.42587381050643763  1.0000
  C   C280      1.0  0.7953068612921197  0.2352451692517226  0.46128120188566785  1.0000
  H   H381      1.0  0.767828638162108  0.1740618450595644  0.4815956271640092  1.0000
  H   H382      1.0  0.7301516700142668  0.16936959807045068  0.4947069754027364  1.0000
  H   H383      1.0  0.7629652229622472  0.1943880253463659  0.520538386517083  1.0000
  H   H384      1.0  0.7482056272693444  0.24814424932261706  0.4583164596396552  1.0000
  H   H385      1.0  0.7187591672204696  0.21204116878638007  0.4810245287529537  1.0000
  H   H386      1.0  0.7513962054339433  0.2373309319232388  0.5071768601199501  1.0000
  H   H387      1.0  0.7565042521828498  0.22090809328337463  0.40450609898062745  1.0000
  H   H388      1.0  0.7260676506171111  0.18504043897859823  0.42682800087829414  1.0000
  H   H389      1.0  0.763852252541589  0.1892867006419131  0.4145587134363884  1.0000
  H   H390      1.0  0.8038466124200468  0.2443900817925038  0.4896690963230058  1.0000
  H   H391      1.0  0.800864454665046  0.25542331754715836  0.4409913210865912  1.0000
  H   H392      1.0  0.8091428562803873  0.22441408640670205  0.4505112417378668  1.0000
  N   N23       1.0  0.15391736898596897  0.5832687149113427  0.6030110034738051  1.0000
  C   C281      1.0  0.1231039074156357  0.5816109886255874  0.6039613110853549  1.0000
  C   C282      1.0  0.15129386061390138  0.5553775760287452  0.6237159354036492  1.0000
  C   C283      1.0  0.1760456502540353  0.6111086234816006  0.621845660997368  1.0000
  C   C284      1.0  0.16539585772261  0.5851056095181517  0.5626496035684435  1.0000
  H   H393      1.0  0.11377001950187582  0.5801854322972548  0.634044115750367  1.0000
  H   H394      1.0  0.10575055694372537  0.5609414753800431  0.5898760938610124  1.0000
  H   H395      1.0  0.12433790775208542  0.6025195323036301  0.5890024976395896  1.0000
  H   H396      1.0  0.17434004033658024  0.5563730627421025  0.6243895989990262  1.0000
  H   H397      1.0  0.1422894009430551  0.553156384855393  0.6541278337169992  1.0000
  H   H398      1.0  0.1353069024097704  0.533877652952473  0.6098548830100265  1.0000
  H   H399      1.0  0.16840298026278777  0.6104749312504447  0.6524774702980966  1.0000
  H   H400      1.0  0.17863784668589755  0.6326625747700942  0.6070985157407535  1.0000
  H   H401      1.0  0.19952029916638003  0.6131307838365598  0.6214782480100801  1.0000
  H   H402      1.0  0.18884290634002987  0.5869288887141456  0.5609885245852921  1.0000
  H   H403      1.0  0.16745699020777183  0.6058216030453858  0.5461802416504001  1.0000
  H   H404      1.0  0.1496608901035974  0.5642369210594985  0.5475394908133034  1.0000
  N   N24       1.0  0.5484810785139181  0.6978738068414511  0.6633233447719614  1.0000
  C   C285      1.0  0.5331076879250882  0.6881465680232626  0.6268698831620508  1.0000
  C   C286      1.0  0.5619276170464151  0.6779435458464496  0.6745109748946672  1.0000
  C   C287      1.0  0.5254796299085035  0.695142477816291  0.6939017609793646  1.0000
  C   C288      1.0  0.5734844780825681  0.7304151063586467  0.6579395778429715  1.0000
  H   H405      1.0  0.5232518791826904  0.7031393404148079  0.6172180761995306  1.0000
  H   H406      1.0  0.5137278043261333  0.6638608472369137  0.6298575863048667  1.0000
  H   H407      1.0  0.5497699669194112  0.6895409362345667  0.6033636184203834  1.0000
  H   H408      1.0  0.5740049141311564  0.6849882555296826  0.7016827919777536  1.0000
  H   H409      1.0  0.5435885735058956  0.6532282127211853  0.6792518622497823  1.0000
  H   H410      1.0  0.5790677755521163  0.6791178258036115  0.6518115800123672  1.0000
  H   H411      1.0  0.5061626886550645  0.6708208788668572  0.6985592565283308  1.0000
  H   H412      1.0  0.5152274684893023  0.7102638108413609  0.68662085054648  1.0000
  H   H413      1.0  0.5363869964239227  0.702373198712752  0.7218145284313847  1.0000
  H   H414      1.0  0.5916282422242246  0.7332592853630733  0.6356582422838091  1.0000
  H   H415      1.0  0.5850804270866014  0.7390481989588654  0.6851238560007531  1.0000
  H   H416      1.0  0.5640588420304055  0.7457824195232857  0.6484925237968716  1.0000
  N   N25       1.0  0.6380360350269633  0.4477191480546262  0.49633873315420535  1.0000
  C   C289      1.0  0.6492576406814276  0.4439935523356422  0.45801079862573724  1.0000
  C   C290      1.0  0.6554072238263448  0.48060797327561483  0.5054805408245173  1.0000
  C   C291      1.0  0.6429302225211744  0.4283996254479525  0.5256573779081306  1.0000
  C   C292      1.0  0.6045203677943415  0.43786105345552556  0.49621693210360174  1.0000
  H   H417      1.0  0.6366393892723506  0.4194835599920135  0.45008799852690556  1.0000
  H   H418      1.0  0.6745259142898177  0.45142303600536254  0.45703103570346815  1.0000
  H   H419      1.0  0.6462059872028633  0.45855485212345043  0.4352370983167011  1.0000
  H   H420      1.0  0.6808676182657326  0.48890374538673703  0.5053651661360011  1.0000
  H   H421      1.0  0.6522730627033071  0.4959139614564144  0.48394800991617287  1.0000
  H   H422      1.0  0.6477555463846942  0.4842997430113769  0.5343447403767269  1.0000
  H   H423      1.0  0.6345672433688851  0.43067911600704184  0.5548129214006776  1.0000
  H   H424      1.0  0.6680488528548932  0.4353993852120049  0.5267963026008545  1.0000
  H   H425      1.0  0.6300777543820617  0.4033775119260859  0.519764328022496  1.0000
  H   H426      1.0  0.5906069308966154  0.41288682320710735  0.49035317526824057  1.0000
  H   H427      1.0  0.5999289242632488  0.4515618800758188  0.47386440269012314  1.0000
  H   H428      1.0  0.5954753161171935  0.4409484664461242  0.5244816406762569  1.0000
  N   N26       1.0  0.5704749245581187  0.044284309281935844  0.4849653008231381  1.0000
  C   C293      1.0  0.5392096801212896  0.03304092499143207  0.5039494313642546  1.0000
  C   C294      1.0  0.5825695898200723  0.07643439600354976  0.4687546371253908  1.0000
  C   C295      1.0  0.5684606162871553  0.023979198005257496  0.45382389908418713  1.0000
  C   C296      1.0  0.5915618794262567  0.04353315809813051  0.513487100497636  1.0000
  H   H429      1.0  0.5396763955285522  0.04809845128827906  0.5271585344315556  1.0000
  H   H430      1.0  0.5296022260948258  0.008985166918729305  0.516976543575546  1.0000
  H   H431      1.0  0.52255074224312  0.032682016637260114  0.4830501079405024  1.0000
  H   H432      1.0  0.6059055462958619  0.0855414824477151  0.45354671696654963  1.0000
  H   H433      1.0  0.5668478939516838  0.07790381622797019  0.4476825226717923  1.0000
  H   H434      1.0  0.584939001187717  0.09249928788226176  0.49160200314059704  1.0000
  H   H435      1.0  0.591614805850149  0.03148135178851286  0.4389872313971626  1.0000
  H   H436      1.0  0.5528955837938629  0.02409541556985095  0.431604178847201  1.0000
  H   H437      1.0  0.5589144556163826  0.9994555429948356  0.465080738941039  1.0000
  H   H438      1.0  0.5930427466102419  0.05805899777160479  0.5378108006044251  1.0000
  H   H439      1.0  0.6155345827030672  0.05245476537639777  0.50034287154266  1.0000
  H   H440      1.0  0.5833663022428999  0.019494132579770167  0.5257018140595722  1.0000
  N   N27       1.0  0.019175159757202298  0.4519326103042264  0.4520325975639932  1.0000
  C   C297      1.0  0.999139590940513  0.45371592871423067  0.4226548260108372  1.0000
  C   C298      1.0  0.028141521460538277  0.4777706432837253  0.47757587786476025  1.0000
  C   C299      1.0  0.04737294973278017  0.45377309002314364  0.43287634029128214  1.0000
  C   C300      1.0  0.001912630044101693  0.4222129964283554  0.47510399513765655  1.0000
  H   H441      1.0  0.9915644509817159  0.43414861820047584  0.4033703756208694  1.0000
  H   H442      1.0  0.011379397618253684  0.47573812544217925  0.40441307680498007  1.0000
  H   H443      1.0  0.977660739871284  0.452390747460098  0.4361821613367007  1.0000
  H   H444      1.0  0.007343972770732732  0.4768670601497972  0.49263972277527096  1.0000
  H   H445      1.0  0.04300650415181573  0.4767895143134774  0.5002758892076766  1.0000
  H   H446      1.0  0.041200356129671434  0.5006508052530616  0.4612265934517322  1.0000
  H   H447      1.0  0.04134056498412364  0.43418037672288945  0.41398445325190675  1.0000
  H   H448      1.0  0.06311136023454433  0.45268632449962226  0.45426004623044697  1.0000
  H   H449      1.0  0.06088787692975517  0.4757103897733541  0.4147290762542525  1.0000
  H   H450      1.0  0.016368968879533208  0.4196522653414595  0.49719320171123504  1.0000
  H   H451      1.0  0.9941409002926012  0.4022704838684033  0.45655910681332446  1.0000
  H   H452      1.0  0.9808033484460481  0.4202137111641242  0.4904533469322572  1.0000
  N   N28       1.0  0.7755974594357898  0.047299013893328246  0.6384499968075932  1.0000
  C   C301      1.0  0.7844669211302909  0.06625452262511797  0.6723358204518171  1.0000
  C   C302      1.0  0.7572785295960279  0.056594457867045166  0.614030245878996  1.0000
  C   C303      1.0  0.756676358527544  0.01417652096429966  0.6514671151385708  1.0000
  C   C304      1.0  0.803868683905395  0.052268083542652194  0.6159663163680623  1.0000
  H   H453      1.0  0.7984397105784617  0.0914464347688533  0.6636170837294775  1.0000
  H   H454      1.0  0.7984086024094617  0.06000548344688766  0.6914728871006661  1.0000
  H   H455      1.0  0.7635020252949152  0.06288357115982553  0.689920130908721  1.0000
  H   H456      1.0  0.749322283587904  0.0422973363766037  0.5886584145627503  1.0000
  H   H457      1.0  0.736319149023742  0.0539465232141424  0.6305424352987602  1.0000
  H   H458      1.0  0.7710227488580913  0.08131338621551337  0.6029778716730557  1.0000
  H   H459      1.0  0.7479407863360538  0.99917491757017  0.6267806462301632  1.0000
  H   H460      1.0  0.7359662599991172  0.010001754021827793  0.6700842811429153  1.0000
  H   H461      1.0  0.7701581869106163  0.005971897597752734  0.6686410117292995  1.0000
  H   H462      1.0  0.7978447374278943  0.03818375103774669  0.5902698576432847  1.0000
  H   H463      1.0  0.8184814191823745  0.045771153165033995  0.6335165598211934  1.0000
  H   H464      1.0  0.8184325336755054  0.07703956053897681  0.6054604151460048  1.0000
  N   N29       1.0  0.9759175267998201  0.5618363490943789  0.7732812508806034  1.0000
  C   C305      1.0  0.0023419815109604336  0.5770684338376006  0.7979587760338016  1.0000
  C   C306      1.0  0.9816173169644341  0.5821149035676618  0.7382776315707433  1.0000
  C   C307      1.0  0.946804267157962  0.5562217781715287  0.7942347750855473  1.0000
  C   C308      1.0  0.9729352980100255  0.5319261177911997  0.7624174331991576  1.0000
  H   H465      1.0  0.9991197092476197  0.5623349400400097  0.8245025291947339  1.0000
  H   H466      1.0  0.0052325524577439  0.5996814649641775  0.8068377265489249  1.0000
  H   H467      1.0  0.024609868828469272  0.5818210313844491  0.7824221589464895  1.0000
  H   H468      1.0  0.9620322252544307  0.5715750455684424  0.719162939157881  1.0000
  H   H469      1.0  0.9844467597010533  0.6050821656131569  0.7453036647326664  1.0000
  H   H470      1.0  0.0030753515125891973  0.5863849501966463  0.7212974202718649  1.0000
  H   H471      1.0  0.926548733616138  0.5446388292707773  0.7760493184583814  1.0000
  H   H472      1.0  0.9480494660491593  0.5782825177148785  0.8026599345114926  1.0000
  H   H473      1.0  0.9416919540771295  0.5409429996197026  0.8208230217979032  1.0000
  H   H474      1.0  0.9532301182651494  0.5198478319239845  0.7436365952680386  1.0000
  H   H475      1.0  0.9684992633973939  0.5159592289400495  0.7880979102385934  1.0000
  H   H476      1.0  0.9945311004674356  0.5352937234187575  0.7465128353512042  1.0000
  N   N30       1.0  0.5910144776267844  0.003946381327715409  0.6514722808963125  1.0000
  C   C309      1.0  0.6096949743634025  0.008823435244957212  0.6150981358206989  1.0000
  C   C310      1.0  0.6071828132854248  0.031101987588748603  0.6746680835222074  1.0000
  C   C311      1.0  0.5871037447897441  0.9759936472939656  0.6734667840603935  1.0000
  C   C312      1.0  0.5602285158159321  0.9999971519506595  0.6426871887358793  1.0000
  H   H477      1.0  0.6136763753982037  0.030191742096403518  0.5983118181649467  1.0000
  H   H478      1.0  0.5979601308953778  0.9889705804361621  0.5965302026221743  1.0000
  H   H479      1.0  0.6328852003317783  0.011441193605992606  0.620620412024584  1.0000
  H   H480      1.0  0.5936905224393153  0.028459624839139552  0.7021998680218281  1.0000
  H   H481      1.0  0.6303522280098464  0.03437955994407638  0.6820688858446718  1.0000
  H   H482      1.0  0.6109870152428519  0.05280343202369786  0.6589106083635324  1.0000
  H   H483      1.0  0.57287747783721  0.9714607105307341  0.7009187954942792  1.0000
  H   H484      1.0  0.609922775715295  0.9783872853675429  0.6807740066870737  1.0000
  H   H485      1.0  0.5754458048574503  0.9550465569042385  0.65686140994986  1.0000
  H   H486      1.0  0.5475034093182323  0.9797182916546059  0.6250393994275181  1.0000
  H   H487      1.0  0.5625111372743058  0.020809634798298893  0.6261698701880731  1.0000
  H   H488      1.0  0.5453800122123139  0.9961560334440404  0.6693940913730729  1.0000
  N   N31       1.0  0.3113658571052157  0.5333688733692324  0.8598043977505705  1.0000
  C   C313      1.0  0.33271514329754687  0.5285017305211717  0.8841883683951361  1.0000
  C   C314      1.0  0.32931737503947484  0.5549293745432367  0.8264695047653396  1.0000
  C   C315      1.0  0.29518383460909947  0.5466119990265125  0.8825206380808022  1.0000
  C   C316      1.0  0.28831315917141787  0.5033728102978271  0.8459062109543077  1.0000
  H   H489      1.0  0.32034518393732697  0.5136008940868507  0.910643095301965  1.0000
  H   H490      1.0  0.3517048665438527  0.5508478405141587  0.8933119846553876  1.0000
  H   H491      1.0  0.3439673387756892  0.5170366773014796  0.8684380723296055  1.0000
  H   H492      1.0  0.3144315007332862  0.5611609439274263  0.809118308305838  1.0000
  H   H493      1.0  0.34858573916522406  0.5770070305944603  0.8357958805291696  1.0000
  H   H494      1.0  0.3397798660308162  0.5445582216101811  0.8071540676357649  1.0000
  H   H495      1.0  0.31201960022327535  0.5691634215246374  0.8934886781327147  1.0000
  H   H496      1.0  0.28118942089059207  0.5309233912700748  0.9077714595095612  1.0000
  H   H497      1.0  0.2793851119443753  0.5512865200501647  0.8648125482748936  1.0000
  H   H498      1.0  0.2744646439491558  0.48641562602114885  0.8702743415185856  1.0000
  H   H499      1.0  0.2999365293465778  0.49287071405004823  0.828541860524991  1.0000
  H   H500      1.0  0.27186788387906247  0.5062218774491926  0.8273490078419674  1.0000
  N   N32       1.0  0.8375668066618679  0.3911257725165466  0.3680642145852693  1.0000
  C   C317      1.0  0.8064042097142107  0.38450546509475664  0.38327378322650985  1.0000
  C   C318      1.0  0.8375401167506348  0.3882614673704718  0.3260378261959464  1.0000
  C   C319      1.0  0.8455707025283684  0.3686624355099083  0.38630448116356675  1.0000
  C   C320      1.0  0.8607479536654307  0.42291501316877556  0.37665704057268273  1.0000
  H   H501      1.0  0.7995456236144761  0.4008974096135232  0.369832902518222  1.0000
  H   H502      1.0  0.8058508429744308  0.38688891115072954  0.41490055909980345  1.0000
  H   H503      1.0  0.7884962454586989  0.36054914224561474  0.3776532014149771  1.0000
  H   H504      1.0  0.8198635908299593  0.36472865293232937  0.3186943663273731  1.0000
  H   H505      1.0  0.8321602204182353  0.40498147314694494  0.31073201995523625  1.0000
  H   H506      1.0  0.8605494268651043  0.3924904745881359  0.31370546155908285  1.0000
  H   H507      1.0  0.8691363107487667  0.37328247509460916  0.37578053132202704  1.0000
  H   H508      1.0  0.8289279827511  0.34439525733250914  0.3799047891968929  1.0000
  H   H509      1.0  0.8456541647394257  0.36994849166848487  0.4181146941855639  1.0000
  H   H510      1.0  0.8845864391995131  0.42857419808820746  0.36578271981594473  1.0000
  H   H511      1.0  0.8615111032584832  0.4256863918273657  0.40824876757835  1.0000
  H   H512      1.0  0.8552560942524369  0.4404343286058132  0.36349395087555003  1.0000
