data_image0
_chemical_formula_structural       FeS2FeS2FeSFeS3FeS2FeS2FeSFeS3FeS2FeS2FeSFeS3FeS2FeS2FeSFeS3FeS2FeS2FeSFeS3FeS2FeS2FeSFeS3FeS2FeS2FeSFeS3FeS2FeS2FeSFeS3FeS2FeS2FeSFeS3FeS2FeS2FeSFeS3FeS2FeS2FeSFeS3FeS2FeS2FeSFeS3FeS2FeS2FeSFeS3FeS2FeS2FeSFeS3FeS2FeS2FeSFeS3FeS2FeS2FeSFeS3FeS2FeS2FeSFeS3FeS2FeS2FeSFeS3FeS2FeS2FeSFeS3FeS2FeS2FeSFeS3FeS2FeS2FeSFeS3FeS2FeS2FeSFeS3FeS2FeS2FeSFeS3FeS2FeS2FeSFeS3C6H4C6H4C6H4C6H4C6H4C6H4C6H4C6H4C6H4C6H4C6H4C6H4C6H4C6H4C6H4C6H4C6H4C6H4C6H4C6H4C6H4C6H4C6H4C6H4C6H4C6H4C6H4C6H4C6H4C6H4C6H4C6H4C6H4C6H4C6H4C6H4C6H4C6H4C6H4C6H4C6H4C6H4C6H4C6H4C6H4C6H4C6H4C6H4NC4H12NC4H12NC4H12NC4H12NC4H12NC4H12NC4H12NC4H12NC4H12NC4H12NC4H12NC4H12NC4H12NC4H12NC4H12NC4H12NC4H12NC4H12NC4H12NC4H12NC4H12NC4H12NC4H12NC4H12NC4H12NC4H12NC4H12NC4H12NC4H12NC4H12NC4H12NC4H12NC4H12NC4H12NC4H12NC4H12NC4H12NC4H12NC4H12NC4H12NC4H12NC4H12NC4H12NC4H12NC4H12NC4H12NC4H12NC4H12
_chemical_formula_sum              "Fe96 S192 C480 H768 N48"
_cell_length_a       52.27613323022916
_cell_length_b       42.393767348892204
_cell_length_c       30.430268252503822
_cell_angle_alpha    89.42252831538825
_cell_angle_beta     89.17705716248082
_cell_angle_gamma    89.24314561979212

_space_group_name_H-M_alt    "P 1"
_space_group_IT_number       1

loop_
  _space_group_symop_operation_xyz
  'x, y, z'

loop_
  _atom_site_type_symbol
  _atom_site_label
  _atom_site_symmetry_multiplicity
  _atom_site_fract_x
  _atom_site_fract_y
  _atom_site_fract_z
  _atom_site_occupancy
  Fe  Fe1       1.0  0.5424620708947234  0.25586929083505566  0.5980962370070187  1.0000
  S   S1        1.0  0.5456702914797249  0.2156660054123306  0.6461866203865196  1.0000
  S   S2        1.0  0.5079404592275649  0.28686737933425144  0.6092918296896621  1.0000
  Fe  Fe2       1.0  0.5904561805629441  0.23644593529485172  0.5478432167678206  1.0000
  S   S3        1.0  0.5974187332411625  0.19459403265324923  0.5913809951709179  1.0000
  S   S4        1.0  0.6194835734222328  0.24006010091927332  0.4929781033248708  1.0000
  Fe  Fe3       1.0  0.5553787924062236  0.1869670138131119  0.5869816063890494  1.0000
  S   S5        1.0  0.5391790460373579  0.13906677955943134  0.5763745956279941  1.0000
  Fe  Fe4       1.0  0.5873392428031629  0.2271299171549659  0.6460481247784956  1.0000
  S   S6        1.0  0.6118549524891091  0.22362202268151146  0.705513733227517  1.0000
  S   S7        1.0  0.5489224378599152  0.22601329681576474  0.5383117827663649  1.0000
  S   S8        1.0  0.5835257928627982  0.27024873224729956  0.603447402785929  1.0000
  Fe  Fe5       1.0  0.866242960423414  0.38575329499577243  0.6299666301068985  1.0000
  S   S9        1.0  0.8900036087789733  0.38010344524475903  0.6904266174523923  1.0000
  S   S10       1.0  0.8655257242526245  0.3533384891670028  0.5721860175879335  1.0000
  Fe  Fe6       1.0  0.8431903599646599  0.4482664361263627  0.6588794448737129  1.0000
  S   S11       1.0  0.8642995690176234  0.44796992332685387  0.7223329670318936  1.0000
  S   S12       1.0  0.8186001276625536  0.48895921786911545  0.6364858915348551  1.0000
  Fe  Fe7       1.0  0.8978215094063391  0.4316861808092679  0.6816635599039816  1.0000
  S   S13       1.0  0.9346799243303094  0.45700557879539816  0.6916645706185893  1.0000
  Fe  Fe8       1.0  0.8543500708061128  0.396700405482654  0.7257756981893554  1.0000
  S   S14       1.0  0.8429431933736169  0.37120192751603637  0.7879881293515519  1.0000
  S   S15       1.0  0.8775231708055243  0.4358792875052437  0.6177074859838185  1.0000
  S   S16       1.0  0.8298469663122556  0.3983486708518496  0.6658383145622552  1.0000
  Fe  Fe9       1.0  0.7536446925532568  0.21703608808885663  0.5630039095905367  1.0000
  S   S17       1.0  0.7726280007734796  0.1939614524113548  0.620254905696167  1.0000
  S   S18       1.0  0.726592839424316  0.2562052026263745  0.5816349980801071  1.0000
  Fe  Fe10      1.0  0.7815929660989329  0.17566582241206474  0.49841883045003704  1.0000
  S   S19       1.0  0.8033994342968136  0.14899782321232666  0.5503236156205485  1.0000
  S   S20       1.0  0.7876169417973172  0.16192347792169326  0.4281223551576461  1.0000
  Fe  Fe11      1.0  0.7657341448775278  0.14856630415180325  0.5861380744896472  1.0000
  S   S21       1.0  0.7515155228438236  0.11004768134937065  0.6308605072017275  1.0000
  Fe  Fe12      1.0  0.8084621542808401  0.19665559501841798  0.5798497868657071  1.0000
  S   S22       1.0  0.8426627400578142  0.21087888923541465  0.6182639867922397  1.0000
  S   S23       1.0  0.7431846134116948  0.17126986913996847  0.5320825638627453  1.0000
  S   S24       1.0  0.7901177909631626  0.22372029929844414  0.5246976805146705  1.0000
  Fe  Fe13      1.0  0.03850120786814304  0.4369369524600492  0.5260148298631835  1.0000
  S   S25       1.0  0.010385502782598532  0.45524156351816714  0.47696414011736665  1.0000
  S   S26       1.0  0.025695823179615163  0.4015565962834007  0.5765364183131038  1.0000
  Fe  Fe14      1.0  0.08159141961616179  0.47781025861109017  0.49062556333048435  1.0000
  S   S27       1.0  0.05710530254565116  0.5000354645738068  0.4387357442551754  1.0000
  S   S28       1.0  0.12122821348631052  0.49585491062512616  0.5006000917895375  1.0000
  Fe  Fe15      1.0  0.026982202854788136  0.5023095948029044  0.4919835611987779  1.0000
  S   S29       1.0  0.0032441864442820383  0.5458663405928154  0.5048018736071044  1.0000
  Fe  Fe16      1.0  0.043085007521306944  0.45085898413134773  0.4288065184357078  1.0000
  S   S30       1.0  0.040244434854633804  0.4266759111836733  0.36389689487410026  1.0000
  S   S31       1.0  0.052778005284511265  0.48424868769590707  0.544865207822581  1.0000
  S   S32       1.0  0.07003777577801662  0.42824228194667113  0.4768153413779023  1.0000
  Fe  Fe17      1.0  0.26617316880276004  0.41989317770391676  0.7032672340163494  1.0000
  S   S33       1.0  0.2908177631907936  0.4559305344162372  0.6697341869510218  1.0000
  S   S34       1.0  0.2813579486349623  0.3964689290907351  0.763940120279568  1.0000
  Fe  Fe18      1.0  0.22618790501791167  0.42267365801901324  0.6321107413478833  1.0000
  S   S35       1.0  0.24741140794996425  0.45894096629660874  0.592294998465886  1.0000
  S   S36       1.0  0.19013897742112457  0.40080780401319166  0.6084672575766511  1.0000
  Fe  Fe19      1.0  0.28212329480391213  0.4296392156248125  0.6080954108034384  1.0000
  S   S37       1.0  0.31315104933856314  0.41777349885481785  0.5585066901875568  1.0000
  Fe  Fe20      1.0  0.25378977536449043  0.4814760169139221  0.6576545456523453  1.0000
  S   S38       1.0  0.24616680309726519  0.532743957982501  0.6702229851036502  1.0000
  S   S39       1.0  0.26044443135278034  0.39152303358448715  0.643080563340969  1.0000
  S   S40       1.0  0.22963392238805935  0.447569610007332  0.6963039291753761  1.0000
  Fe  Fe21      1.0  0.4002617935293448  0.2531446942787995  0.46270994994286846  1.0000
  S   S41       1.0  0.3876199904331306  0.23807269533451522  0.5303485063311296  1.0000
  S   S42       1.0  0.4352415461503101  0.281110773170096  0.44624584831072295  1.0000
  Fe  Fe22      1.0  0.35808273090520626  0.2176391034136481  0.4184279557014904  1.0000
  S   S43       1.0  0.3424480271935407  0.1981785941808031  0.48194118013581083  1.0000
  S   S44       1.0  0.33829564212318336  0.20886125723688231  0.3548528325299141  1.0000
  Fe  Fe23      1.0  0.3479423750514334  0.24747381644190353  0.5059760277871818  1.0000
  S   S45       1.0  0.3143295814856636  0.2698585207565409  0.540742558243145  1.0000
  Fe  Fe24      1.0  0.3834477069971929  0.19036190086472268  0.4998754343569379  1.0000
  S   S46       1.0  0.4020548487269502  0.14950742704926456  0.5353816336281405  1.0000
  S   S47       1.0  0.360978757016426  0.2674207127013289  0.44129182231923114  1.0000
  S   S48       1.0  0.39868941130522373  0.20488808041439982  0.4335396774859308  1.0000
  Fe  Fe25      1.0  0.6357718026089438  0.9627645937696119  0.44543694371852754  1.0000
  S   S49       1.0  0.6142697633604409  0.9395440906716795  0.5009305619053298  1.0000
  S   S50       1.0  0.6633057426994119  0.9360022749838413  0.40255155277875365  1.0000
  Fe  Fe26      1.0  0.6095612882157198  0.025946283938889092  0.4573472663098455  1.0000
  S   S51       1.0  0.5858745875845389  0.008727689047424825  0.514443208078615  1.0000
  S   S52       1.0  0.607204079159277  0.0754719008117144  0.43107429419049414  1.0000
  Fe  Fe27      1.0  0.6218136690761097  0.9846296804766005  0.5364316524508779  1.0000
  S   S53       1.0  0.6331904826241354  0.9904017367981194  0.6067349422059322  1.0000
  Fe  Fe28      1.0  0.5803614661171212  0.9657012649041944  0.47399500800279176  1.0000
  S   S54       1.0  0.5415063398273757  0.9456211086230579  0.4639138407960592  1.0000
  S   S55       1.0  0.6462828704352515  0.005736393483172675  0.48288684766606255  1.0000
  S   S56       1.0  0.601115025312211  0.9849016791015136  0.415075984205252  1.0000
  Fe  Fe29      1.0  0.8698962511792531  0.6432641234492303  0.547055092857856  1.0000
  S   S57       1.0  0.8870797204000677  0.6719335516745911  0.49213431065390634  1.0000
  S   S58       1.0  0.8900619942358182  0.5987811225691797  0.5695311757923722  1.0000
  Fe  Fe30      1.0  0.8289430927946646  0.6925047186986716  0.5671386442655296  1.0000
  S   S59       1.0  0.8421889205781604  0.7252155089387091  0.5137102578634453  1.0000
  S   S60       1.0  0.7957033649770279  0.707406972943102  0.6099009493607248  1.0000
  Fe  Fe31      1.0  0.8463061343317887  0.681443664205656  0.47338841948269084  1.0000
  S   S61       1.0  0.8337217946581135  0.6839618909548684  0.4032008141417746  1.0000
  Fe  Fe32      1.0  0.8814716678405162  0.713065864132018  0.536809276752368  1.0000
  S   S62       1.0  0.9100142728538896  0.750854987117887  0.5489056878566377  1.0000
  S   S63       1.0  0.8292887246707513  0.6493513462562993  0.5249027917989532  1.0000
  S   S64       1.0  0.8680602852296506  0.6836949564026179  0.5938707445323548  1.0000
  Fe  Fe33      1.0  0.7412045912838809  0.8944872165970442  0.685068498834933  1.0000
  S   S65       1.0  0.772153327461898  0.8874093831054471  0.6339930021738935  1.0000
  S   S66       1.0  0.7017698616932386  0.8765766636402176  0.6722205444095314  1.0000
  Fe  Fe34      1.0  0.775864227097256  0.9293741128504485  0.7462869841294681  1.0000
  S   S67       1.0  0.8096551191626294  0.9254521530640183  0.70040158063419  1.0000
  S   S68       1.0  0.7804363979945292  0.9583468548447789  0.8072351743181295  1.0000
  Fe  Fe35      1.0  0.7819109308735556  0.9377768948092565  0.6474539970513594  1.0000
  S   S69       1.0  0.7909664984281621  0.9714667228636352  0.5916055336294581  1.0000
  Fe  Fe36      1.0  0.796906843006668  0.8756159276146406  0.6915591820856701  1.0000
  S   S70       1.0  0.8267498841469599  0.8369749612418874  0.6927736249299762  1.0000
  S   S71       1.0  0.7489047500570534  0.9457889002136007  0.6938695586009581  1.0000
  S   S72       1.0  0.7652246597558009  0.8783495588117728  0.7417737747307788  1.0000
  Fe  Fe37      1.0  0.07486903122174504  0.684106766400036  0.5731415663458982  1.0000
  S   S73       1.0  0.08227397368223065  0.6978729173244493  0.5029361081427596  1.0000
  S   S74       1.0  0.0792475164222406  0.6353131477393469  0.6010514911560249  1.0000
  Fe  Fe38      1.0  0.05696385385519731  0.7496381991659022  0.5990721416049567  1.0000
  S   S75       1.0  0.06201672746959708  0.7695928104193565  0.5309406993162409  1.0000
  S   S76       1.0  0.04069463751818003  0.7753144386153064  0.6574495032539043  1.0000
  Fe  Fe39      1.0  0.04496037083561588  0.7242396977849043  0.508686858784166  1.0000
  S   S77       1.0  0.015272641317075841  0.7187893322153786  0.45667897651821  1.0000
  Fe  Fe40      1.0  0.09879698954262714  0.741672691108511  0.5312397170976297  1.0000
  S   S78       1.0  0.1354261080759435  0.7614497100893892  0.5045322519944706  1.0000
  S   S79       1.0  0.03626713511835633  0.7069198003491799  0.576970304837219  1.0000
  S   S80       1.0  0.09515471020809524  0.7250586225123231  0.6012403559033714  1.0000
  Fe  Fe41      1.0  0.3767467996843653  0.979261860040051  0.5765868308376481  1.0000
  S   S81       1.0  0.3969663048258773  0.9972568774138043  0.6354520418434718  1.0000
  S   S82       1.0  0.3552202513571393  0.013147278704630727  0.5327159485466982  1.0000
  Fe  Fe42      1.0  0.3890707390932866  0.9106918748786795  0.5992478628113838  1.0000
  S   S83       1.0  0.4096177004045896  0.9236544992364876  0.6607439449140028  1.0000
  S   S84       1.0  0.39164338334855825  0.8598566792316551  0.5779106888160889  1.0000
  Fe  Fe43      1.0  0.37723701158959255  0.9579738428498173  0.6713338820865046  1.0000
  S   S85       1.0  0.3575279596329104  0.9731754065241842  0.7338503172975852  1.0000
  Fe  Fe44      1.0  0.427363875028543  0.9615578254015703  0.6188772091657238  1.0000
  S   S86       1.0  0.4693301010306738  0.9713739304516485  0.6279754731003238  1.0000
  S   S87       1.0  0.35493402836877247  0.9418543356906077  0.6134129028052482  1.0000
  S   S88       1.0  0.40882475040485117  0.9466428461893771  0.5564262393151296  1.0000
  Fe  Fe45      1.0  0.3085476545868072  0.6903804551444094  0.4587141668915431  1.0000
  S   S89       1.0  0.3306615084358127  0.7031826141300193  0.5185236822708382  1.0000
  S   S90       1.0  0.32845209025254274  0.6920014090522293  0.3926290258231912  1.0000
  Fe  Fe46      1.0  0.26031029472174816  0.6763379301427178  0.5111946347518986  1.0000
  S   S91       1.0  0.27783132678270633  0.6890480092986666  0.5751444888231497  1.0000
  S   S92       1.0  0.2209188071277318  0.6560598799445022  0.5136931130359783  1.0000
  Fe  Fe47      1.0  0.2949642148770885  0.729842074921168  0.5382803058840783  1.0000
  S   S93       1.0  0.2907698798714742  0.7797733191195253  0.5628376494827845  1.0000
  Fe  Fe48      1.0  0.31157223409471113  0.6611735592111421  0.5498174604597827  1.0000
  S   S94       1.0  0.33023636075665147  0.6235459808081978  0.5913572851659107  1.0000
  S   S95       1.0  0.2740608916003001  0.7198788253323309  0.47627161367086057  1.0000
  S   S96       1.0  0.2929289528434375  0.6458207507809715  0.4880512262372657  1.0000
  Fe  Fe49      1.0  0.6288682864934974  0.8707824369485828  0.15366066235224918  1.0000
  S   S97       1.0  0.6477071586806709  0.9137717159603885  0.12516476338399182  1.0000
  S   S98       1.0  0.6534136593775237  0.8308202576809539  0.1774482511337973  1.0000
  Fe  Fe50      1.0  0.5759340983858182  0.9003715840954337  0.1535329536223173  1.0000
  S   S99       1.0  0.5902644896138188  0.945801122842937  0.12558475986984458  1.0000
  S   S100      1.0  0.5339325440701049  0.8998838199059993  0.16950109215679132  1.0000
  Fe  Fe51      1.0  0.6137570728951497  0.9151265034928574  0.08092592332372428  1.0000
  S   S101      1.0  0.6146210759500899  0.9294718219738999  0.00997656071719044  1.0000
  Fe  Fe52      1.0  0.6223790048417882  0.9399487480556574  0.1724147723997028  1.0000
  S   S102      1.0  0.6338102608166737  0.9814070774945332  0.2121285228825224  1.0000
  S   S103      1.0  0.5969162078243823  0.8696309675935951  0.10505500093776142  1.0000
  S   S104      1.0  0.6061182331768266  0.8969867753437892  0.2046746712594089  1.0000
  Fe  Fe53      1.0  0.922636975887402  0.6702536122218415  0.20900317344993338  1.0000
  S   S105      1.0  0.8937298257180444  0.6662727551295365  0.1560977202531867  1.0000
  S   S106      1.0  0.922901251747479  0.6440401261784855  0.2732402072776426  1.0000
  Fe  Fe54      1.0  0.9569820589289922  0.7117562795393724  0.15428266883685485  1.0000
  S   S107      1.0  0.9314328549631373  0.7118422863439668  0.09534607438490728  1.0000
  S   S108      1.0  0.996904446527814  0.7293628137359547  0.16087253345292407  1.0000
  Fe  Fe55      1.0  0.8997398926746836  0.7181492735712351  0.14551611729733538  1.0000
  S   S109      1.0  0.8627859511686233  0.7448950626139119  0.13535070024521462  1.0000
  Fe  Fe56      1.0  0.9272749618682995  0.6602367787253358  0.11047802372165873  1.0000
  S   S110      1.0  0.9275723805402241  0.6216937771370261  0.06053353069258382  1.0000
  S   S111      1.0  0.9257349870472124  0.7227107731355524  0.2033238514232425  1.0000
  S   S112      1.0  0.9556990789847117  0.6595924150807032  0.1643117580734405  1.0000
  Fe  Fe57      1.0  0.7735114259252163  0.9166762403723098  0.14376574527986818  1.0000
  S   S113      1.0  0.8102360241645726  0.9431258984040366  0.14182858727482128  1.0000
  S   S114      1.0  0.7573187894790381  0.9001391475670565  0.20832255382823406  1.0000
  Fe  Fe58      1.0  0.7688986151278352  0.9167946584490263  0.045026997130225954  1.0000
  S   S115      1.0  0.8051408378581195  0.9436288109255623  0.0348015663001815  1.0000
  S   S116      1.0  0.7477439200709319  0.8965886319448484  0.9885410813517901  1.0000
  Fe  Fe59      1.0  0.8210522833198822  0.9110075181747512  0.08621800233358679  1.0000
  S   S117      1.0  0.8601731117655573  0.8884852520365333  0.07788574642559132  1.0000
  Fe  Fe60      1.0  0.7905437343329025  0.9730781177257325  0.09087810480193581  1.0000
  S   S118      1.0  0.7955177115556537  0.025734884322091478  0.09118161132889613  1.0000
  S   S119      1.0  0.7857546305791072  0.8820546598713369  0.0925995060501803  1.0000
  S   S120      1.0  0.7527415051622621  0.9488144548286024  0.09699340254508404  1.0000
  Fe  Fe61      1.0  0.1029881190477576  0.7385063928665047  0.8680243203058436  1.0000
  S   S121      1.0  0.10887613360584747  0.7602808536398966  0.933935891975125  1.0000
  S   S122      1.0  0.1209944007225895  0.7594532738450338  0.8071721722508979  1.0000
  Fe  Fe62      1.0  0.07471919642176483  0.682246246925803  0.9063372773404775  1.0000
  S   S123      1.0  0.07750522695162099  0.6999692812192537  0.9749802564015463  1.0000
  S   S124      1.0  0.05655912164714438  0.6350280761932069  0.8986251518092202  1.0000
  Fe  Fe63      1.0  0.06800161315753184  0.7470526197967066  0.9461368830299388  1.0000
  S   S125      1.0  0.03915152121781773  0.7790323223411725  0.9782378916017033  1.0000
  Fe  Fe64      1.0  0.1179510494005553  0.710751035383331  0.9559880269224164  1.0000
  S   S126      1.0  0.1473689320408084  0.6927453968280612  0.003147087509567603  1.0000
  S   S127      1.0  0.06118494539665065  0.7285045145035387  0.8785615802767209  1.0000
  S   S128      1.0  0.11588871689786287  0.6900505652745927  0.8889085702349335  1.0000
  Fe  Fe65      1.0  0.26392268508160915  0.7617212028702844  0.08901662741438576  1.0000
  S   S129      1.0  0.29109676686700703  0.7234449537117055  0.0674815486724818  1.0000
  S   S130      1.0  0.2383861232037763  0.7844973047875138  0.03874108125057817  1.0000
  Fe  Fe66      1.0  0.2828342735781882  0.7605184995710161  0.18302551377667062  1.0000
  S   S131      1.0  0.3115528928754369  0.7220226400370471  0.16950818529170697  1.0000
  S   S132      1.0  0.27601953617412395  0.7798305951588399  0.25070721030595566  1.0000
  Fe  Fe67      1.0  0.31958487209587366  0.7493807993456586  0.10750108216877925  1.0000
  S   S133      1.0  0.35862987191598344  0.7598565223057173  0.08006940669434415  1.0000
  Fe  Fe68      1.0  0.28017106068881914  0.6997712561533938  0.1311443010001456  1.0000
  S   S134      1.0  0.2702340050884246  0.6486802062070397  0.1432943981748511  1.0000
  S   S135      1.0  0.2932302013096844  0.7898127038148038  0.12382575937119852  1.0000
  S   S136      1.0  0.2506910626603155  0.7362403443164495  0.1500698005151262  1.0000
  Fe  Fe69      1.0  0.3960768610216432  0.9281189978657789  0.9602250487571321  1.0000
  S   S137      1.0  0.3655088278874124  0.943538636027667  0.007846911631399944  1.0000
  S   S138      1.0  0.3874617085944525  0.89575774710286  0.9046599349703365  1.0000
  Fe  Fe70      1.0  0.4382490131865625  0.9606033505015431  0.009928751549618697  1.0000
  S   S139      1.0  0.41142460606466497  0.9783751792196332  0.06228829641050825  1.0000
  S   S140      1.0  0.4804592060666669  0.969300968088863  0.010399953089597958  1.0000
  Fe  Fe71      1.0  0.3942318377206224  0.9301425163190976  0.05898539011787163  1.0000
  S   S141      1.0  0.3826819565063196  0.9022267464738098  0.11907330504177027  1.0000
  Fe  Fe72      1.0  0.3854747173363537  0.9901967693093956  0.006164250201248445  1.0000
  S   S142      1.0  0.3650168371797856  0.036763161643856845  0.9955282496496276  1.0000
  S   S143      1.0  0.4235636040191652  0.9113843741147053  0.011417231105740333  1.0000
  S   S144      1.0  0.41378192347857795  0.9757615636450968  0.9535806903405176  1.0000
  Fe  Fe73      1.0  0.585663764127332  0.11052172621482  0.8766126527262044  1.0000
  S   S145      1.0  0.5596964900789575  0.15027934502323834  0.8971817450136769  1.0000
  S   S146      1.0  0.5857121602913965  0.09748501336754019  0.8053628887222707  1.0000
  Fe  Fe74      1.0  0.6060647294444637  0.10058013079683481  0.9675833023913968  1.0000
  S   S147      1.0  0.5823462972038761  0.1396819389961099  0.9966546583482889  1.0000
  S   S148      1.0  0.6336362788462342  0.07520137609176918  0.011064239529530395  1.0000
  Fe  Fe75      1.0  0.5509690714889396  0.12018624900698506  0.9562736662383868  1.0000
  S   S149      1.0  0.5124194688768923  0.11471849672763465  0.988590932585928  1.0000
  Fe  Fe76      1.0  0.5932785005530505  0.16625531877907468  0.9355583387480491  1.0000
  S   S150      1.0  0.6029172624170296  0.21751790602685364  0.9353881497102207  1.0000
  S   S151      1.0  0.573665929756065  0.07847152836851218  0.9321524845957693  1.0000
  S   S152      1.0  0.6201991125007996  0.12906760741608717  0.9103577918974288  1.0000
  Fe  Fe77      1.0  0.8565690058576193  0.44173951947259044  0.01693329200200422  1.0000
  S   S153      1.0  0.8318542536156623  0.4568978498027471  0.0738392600576796  1.0000
  S   S154      1.0  0.8476757773936743  0.46207598718173476  0.9502773211201917  1.0000
  Fe  Fe78      1.0  0.8914318323446337  0.4026071366085466  0.07420655288414046  1.0000
  S   S155      1.0  0.8694270561777083  0.41370675533069584  0.1361697828732073  1.0000
  S   S156      1.0  0.9272621578756761  0.37307846028293523  0.07746162468886286  1.0000
  Fe  Fe79      1.0  0.8346776127387191  0.4061217139011451  0.0953607067459834  1.0000
  S   S157      1.0  0.7972459062513223  0.38512870867341975  0.11821186777764248  1.0000
  Fe  Fe80      1.0  0.8685375153204484  0.4631995465730698  0.10935739875949468  1.0000
  S   S158      1.0  0.8771765655347736  0.5035537140391623  0.15413368658053894  1.0000
  S   S159      1.0  0.8567643092452046  0.39040073624991206  0.03555219681082211  1.0000
  S   S160      1.0  0.8931795841221826  0.45269959104186014  0.050557205259889715  1.0000
  Fe  Fe81      1.0  0.7090233065718099  0.21056233157969315  0.22965052338035757  1.0000
  S   S161      1.0  0.7396193088842058  0.18107198802926153  0.19695174079193664  1.0000
  S   S162      1.0  0.705848854293848  0.22278638386690958  0.3013948095224366  1.0000
  Fe  Fe82      1.0  0.6833393048664812  0.22692780380108124  0.14317107394877018  1.0000
  S   S163      1.0  0.7118375931997556  0.19918329698008036  0.10311495986316377  1.0000
  S   S164      1.0  0.6515352491682889  0.2561766007017721  0.1142937617833578  1.0000
  Fe  Fe83      1.0  0.7076292947378326  0.162659981330202  0.15669504370328832  1.0000
  S   S165      1.0  0.7001505475836298  0.11159111853531671  0.14270301172705407  1.0000
  Fe  Fe84      1.0  0.7411334514542848  0.2204372725847601  0.14683075261992645  1.0000
  S   S166      1.0  0.7795757872568843  0.2375241413302972  0.12212605840378314  1.0000
  S   S167      1.0  0.6766743961998269  0.18901296022062086  0.19350412731756975  1.0000
  S   S168      1.0  0.7128820218281208  0.25122925599920976  0.18273813199048777  1.0000
  Fe  Fe85      1.0  0.045343731374728684  0.49418485882380986  0.141450746750413  1.0000
  S   S169      1.0  0.045303878621395066  0.4439061070274357  0.11926949699877021  1.0000
  S   S170      1.0  0.021983292475511448  0.5132589021828674  0.19814590113995625  1.0000
  Fe  Fe86      1.0  0.08472169525356765  0.5132240302261986  0.0722807063635571  1.0000
  S   S171      1.0  0.08836100391425034  0.46465080025702366  0.04434199297368746  1.0000
  S   S172      1.0  0.1089931891870914  0.552855915403859  0.0473928452549639  1.0000
  Fe  Fe87      1.0  0.04552624530840643  0.46445917261655156  0.051139582260880445  1.0000
  S   S173      1.0  0.019904190031680535  0.44903952790756263  0.9969701103748505  1.0000
  Fe  Fe88      1.0  0.0878181155940783  0.4489936230701566  0.11492912166489981  1.0000
  S   S174      1.0  0.11308060766963865  0.4112868426460874  0.1436535759725315  1.0000
  S   S175      1.0  0.04189113977749015  0.5146057570536677  0.07361176807204894  1.0000
  S   S176      1.0  0.08798992992313288  0.49761264421336  0.14254722763932104  1.0000
  Fe  Fe89      1.0  0.42492280351406264  0.24259519369478294  0.06306002808020295  1.0000
  S   S177      1.0  0.39552713013891644  0.21128879851312554  0.033637781649304976  1.0000
  S   S178      1.0  0.46394479205066363  0.2479708946950294  0.032317229909583745  1.0000
  Fe  Fe90      1.0  0.3903605220413017  0.2612940916413211  0.13996264518622417  1.0000
  S   S179      1.0  0.35834174898760607  0.23132305049586005  0.11746445260830028  1.0000
  S   S180      1.0  0.38740456209538604  0.2900654365657446  0.20152158928961825  1.0000
  Fe  Fe91      1.0  0.3888780954027612  0.19503661111741288  0.10327636067627287  1.0000
  S   S181      1.0  0.3882352349183987  0.14527965206032614  0.12984676888673857  1.0000
  Fe  Fe92      1.0  0.3680156844557489  0.2508975602357441  0.05043328135495373  1.0000
  S   S182      1.0  0.33524257539032015  0.26840476327071694  0.008906339461109303  1.0000
  S   S183      1.0  0.4203415817417132  0.22364534740661915  0.13146410266026692  1.0000
  S   S184      1.0  0.39812950390031904  0.28353783098264157  0.07416837524899322  1.0000
  Fe  Fe93      1.0  0.23466647735709165  0.4441158107966965  0.9768940568637068  1.0000
  S   S185      1.0  0.27124005350488395  0.4669996552214663  0.956116785747971  1.0000
  S   S186      1.0  0.2088095170174873  0.42602653384309686  0.924932849039862  1.0000
  Fe  Fe94      1.0  0.24388847703695007  0.45505742026044793  0.07312728968924742  1.0000
  S   S187      1.0  0.2813586782318058  0.47891971322956  0.06043449038327453  1.0000
  S   S188      1.0  0.23002780711193788  0.44532723421496717  0.14193264126789296  1.0000
  Fe  Fe95      1.0  0.2605302797519902  0.5036040059864048  0.005719913142919086  1.0000
  S   S189      1.0  0.26368749437056904  0.5543853062083136  0.9842473177581388  1.0000
  Fe  Fe96      1.0  0.28836556439082367  0.43985986101307223  0.012170696301382122  1.0000
  S   S190      1.0  0.3274426179695601  0.41714182580467907  0.005836582646417288  1.0000
  S   S191      1.0  0.22229210406294686  0.4828917877173289  0.022331511052202435  1.0000
  S   S192      1.0  0.2524313316810046  0.4139238997505734  0.02928795012934815  1.0000
  C   C1        1.0  0.33336262738652683  0.30962214541830807  0.0016994482509382625  1.0000
  C   C2        1.0  0.35541862778990263  0.3279292246025407  0.0016868447230593553  1.0000
  C   C3        1.0  0.3534011955051846  0.3609808552401256  0.0009001458645607752  1.0000
  C   C4        1.0  0.32934689595938704  0.37590682851465146  0.9999573873346665  1.0000
  C   C5        1.0  0.3073526741753222  0.35762018578214533  0.9972434332168807  1.0000
  C   C6        1.0  0.3093697354112198  0.32451697898960796  0.99810147361744  1.0000
  H   H1        1.0  0.3740431148785048  0.3166435068635148  0.002694746509012802  1.0000
  H   H2        1.0  0.37051784521551157  0.37500999514422667  0.0021337867634747543  1.0000
  H   H3        1.0  0.2887791125588539  0.3688778500586201  0.9952784601874514  1.0000
  H   H4        1.0  0.29227339948838593  0.31043771096996214  0.9972294292841336  1.0000
  C   C7        1.0  0.1452875420735812  0.42189826506835926  0.1441217877152907  1.0000
  C   C8        1.0  0.15334867571349195  0.45051552584499394  0.12561250292224346  1.0000
  C   C9        1.0  0.17947820536909775  0.4578823501716178  0.12469607163978202  1.0000
  C   C10       1.0  0.19733211362715083  0.4370205534079641  0.14343398611135227  1.0000
  C   C11       1.0  0.18906400863305078  0.40899937182985224  0.16328829540320736  1.0000
  C   C12       1.0  0.1631169678519309  0.40126215072375465  0.16314460989628637  1.0000
  H   H5        1.0  0.13958198579793296  0.46666351336106715  0.11113566683103504  1.0000
  H   H6        1.0  0.18582742770652097  0.479730782270204  0.10972029376541137  1.0000
  H   H7        1.0  0.202845135378148  0.3929201327774103  0.177889860707786  1.0000
  H   H8        1.0  0.15688444798216417  0.3792131192021622  0.1776996264798008  1.0000
  C   C13       1.0  0.9533436796196515  0.39160769625202124  0.05163419974635297  1.0000
  C   C14       1.0  0.9780250993827442  0.3863886439961282  0.06764398465482913  1.0000
  C   C15       1.0  0.998695299913436  0.4034842692497004  0.05024504168672839  1.0000
  C   C16       1.0  0.9947391210146722  0.4255492296418422  0.016470675412846747  1.0000
  C   C17       1.0  0.9702960609659823  0.4295437490537386  0.9988664785774882  1.0000
  C   C18       1.0  0.9495809570002681  0.41272010387874214  0.016613020141916124  1.0000
  H   H9        1.0  0.9810471226537412  0.36973721654018554  0.09432105580146903  1.0000
  H   H10       1.0  0.01766470443214896  0.39962755819158635  0.06306043920405524  1.0000
  H   H11       1.0  0.9672633767355902  0.44630768247356173  0.9723607627369701  1.0000
  H   H12       1.0  0.9307217239794173  0.4160241793125326  0.003144888719198713  1.0000
  C   C19       1.0  0.7931192705140522  0.34402533873363855  0.11973887725705046  1.0000
  C   C20       1.0  0.8134143310039724  0.3229670792604956  0.1115735333633741  1.0000
  C   C21       1.0  0.8090794845861999  0.2902658189080645  0.11211151883007117  1.0000
  C   C22       1.0  0.7844890313439199  0.27856656836915933  0.12068210501240056  1.0000
  C   C23       1.0  0.7642637733193692  0.2997363111047454  0.1285110228159454  1.0000
  C   C24       1.0  0.7685963752379087  0.33231226429092586  0.1282901280012292  1.0000
  H   H13       1.0  0.8324271183466347  0.33182669453898467  0.10497296644423672  1.0000
  H   H14       1.0  0.8248289424320612  0.2739907162262549  0.10596931656748197  1.0000
  H   H15       1.0  0.7451732650348621  0.29113478644618757  0.13408902925223565  1.0000
  H   H16       1.0  0.7527923580228852  0.3485205518797765  0.1343471699274259  1.0000
  C   C25       1.0  0.6202384971850493  0.22773873031873593  0.9819171261454  1.0000
  C   C26       1.0  0.6305345197062697  0.20450763107655362  0.00986845859448171  1.0000
  C   C27       1.0  0.6415075438386688  0.21312559180002094  0.049861651887311176  1.0000
  C   C28       1.0  0.641607549818013  0.2448816439045479  0.062118303800765995  1.0000
  C   C29       1.0  0.6317371968563539  0.2679906156303441  0.033720909793923504  1.0000
  C   C30       1.0  0.6215173508888877  0.25950319718667103  0.9933474098687891  1.0000
  H   H17       1.0  0.6294780835963177  0.17992428627024698  0.0011504560503248218  1.0000
  H   H18       1.0  0.648848194439411  0.19521960727383939  0.07208898628275895  1.0000
  H   H19       1.0  0.6318023958593045  0.29253488294589997  0.043202463220935794  1.0000
  H   H20       1.0  0.6135524845447914  0.27750298288540276  0.971898634099046  1.0000
  C   C31       1.0  0.49898167181734027  0.15175693888627462  0.0009078710478416241  1.0000
  C   C32       1.0  0.47735697764418283  0.15388379831197765  0.028441399905897446  1.0000
  C   C33       1.0  0.46629081438298303  0.18341464241881522  0.03781474927708728  1.0000
  C   C34       1.0  0.4768316816611837  0.210829427197384  0.019596594446271487  1.0000
  C   C35       1.0  0.4983005453461739  0.20867238842067407  0.9918287423282672  1.0000
  C   C36       1.0  0.5095223305157649  0.179193945961417  0.9828059685285985  1.0000
  H   H21       1.0  0.46919477341605664  0.13280230405271357  0.04280706306127868  1.0000
  H   H22       1.0  0.4497044304982875  0.18495364509085724  0.05938684466208421  1.0000
  H   H23       1.0  0.5061249054397452  0.22986097083283016  0.9771372988816862  1.0000
  H   H24       1.0  0.5261312690437431  0.17775152296732427  0.9614764983620032  1.0000
  C   C37       1.0  0.3707901892511812  0.06669472696569745  0.033562193718478905  1.0000
  C   C38       1.0  0.38126288765044675  0.059644168010745346  0.07455430233868054  1.0000
  C   C39       1.0  0.3864638216521705  0.08396947325870106  0.10390367971612736  1.0000
  C   C40       1.0  0.3815101946741222  0.11548400214513566  0.09219982577252472  1.0000
  C   C41       1.0  0.37111880796608443  0.12263341258162204  0.05114559611935188  1.0000
  C   C42       1.0  0.365519708005572  0.09821706101577288  0.02205448123974807  1.0000
  H   H25       1.0  0.38483638207826126  0.035430213266201216  0.08409467418209492  1.0000
  H   H26       1.0  0.3942888122661472  0.07830972261964142  0.13577509569160406  1.0000
  H   H27       1.0  0.36694814219501876  0.1468883623031436  0.04213686470292921  1.0000
  H   H28       1.0  0.3571791662467377  0.10378541752306969  0.990531505927963  1.0000
  C   C43       1.0  0.26941025203728436  0.6228428451550071  0.09854393870470775  1.0000
  C   C44       1.0  0.2731677044689524  0.6335295251250477  0.05534127722837278  1.0000
  C   C45       1.0  0.2718924545341784  0.6122739414242494  0.02032508517321685  1.0000
  C   C46       1.0  0.2669006950271613  0.5803192357676472  0.02844663823455651  1.0000
  C   C47       1.0  0.26330682230465186  0.5696240608406977  0.07166415523283276  1.0000
  C   C48       1.0  0.26446206614202206  0.5908726091111192  0.10659871426756728  1.0000
  H   H29       1.0  0.27689732096779246  0.6581418572873758  0.048808918177462246  1.0000
  H   H30       1.0  0.2746652906197057  0.6206584738682166  0.9869123642542853  1.0000
  H   H31       1.0  0.25930885740718795  0.5450451035749482  0.07818224124725348  1.0000
  H   H32       1.0  0.2614913053040414  0.5824846934757916  0.13994639965605127  1.0000
  C   C49       1.0  0.36683752243111833  0.7985679503667211  0.09272302877566797  1.0000
  C   C50       1.0  0.38096204423137564  0.81630461744604  0.06223128720090209  1.0000
  C   C51       1.0  0.3853380323635904  0.8483110077214109  0.06971368474166484  1.0000
  C   C52       1.0  0.376785851725466  0.8623131104318182  0.10878474020300422  1.0000
  C   C53       1.0  0.36352071841692596  0.8442003414295421  0.1400982056390221  1.0000
  C   C54       1.0  0.35819611601956775  0.8124671897271566  0.1317890043386013  1.0000
  H   H33       1.0  0.3876232949040307  0.8055825368757268  0.031955636532230214  1.0000
  H   H34       1.0  0.3951472696728425  0.8620641516717444  0.04498750537297669  1.0000
  H   H35       1.0  0.35683265789157576  0.8548902759950537  0.17038197543583777  1.0000
  H   H36       1.0  0.34744815714111943  0.7987490874421289  0.15568308300511882  1.0000
  C   C55       1.0  0.07147467009697926  0.6104687299582316  0.9377835080480684  1.0000
  C   C56       1.0  0.061427907289824724  0.5810257798750315  0.9494778038850016  1.0000
  C   C57       1.0  0.07285001686789716  0.5628813160393059  0.9831010051625686  1.0000
  C   C58       1.0  0.09410259773950647  0.574415266460791  0.005177540217646381  1.0000
  C   C59       1.0  0.10395203107541041  0.6037374385678347  0.9933212497366375  1.0000
  C   C60       1.0  0.09299170509825527  0.6213669061837519  0.9593713770255186  1.0000
  H   H37       1.0  0.04483942926124529  0.5723072422262975  0.9328254507770339  1.0000
  H   H38       1.0  0.06531766176891218  0.5399745178110276  0.9916642937727862  1.0000
  H   H39       1.0  0.11989079324208149  0.6132002625274398  0.010774812818357349  1.0000
  H   H40       1.0  0.10134797957213443  0.6435434697002432  0.9502721757203598  1.0000
  C   C61       1.0  0.2141292476313878  0.7581268137250384  0.02583790631877525  1.0000
  C   C62       1.0  0.19614528149299806  0.7659733760631826  0.9937091337925549  1.0000
  C   C63       1.0  0.17591456279380568  0.7454806010923672  0.9853851433189444  1.0000
  C   C64       1.0  0.1735086078138578  0.71748864076683  0.009742922314914804  1.0000
  C   C65       1.0  0.19175666652524243  0.7094225055447057  0.0411318633512745  1.0000
  C   C66       1.0  0.2122180266824217  0.7294669724872872  0.04865256137433249  1.0000
  H   H41       1.0  0.19783053198935202  0.7878842918544803  0.9754162574493205  1.0000
  H   H42       1.0  0.16221988268012635  0.7514151604270324  0.9602986496325429  1.0000
  H   H43       1.0  0.19000502527477928  0.6878199011050351  0.06007217873518167  1.0000
  H   H44       1.0  0.22638782621922446  0.7227505521040372  0.072424313723622  1.0000
  C   C67       1.0  0.768758978688628  0.049676553748057906  0.10388669460502964  1.0000
  C   C68       1.0  0.7438569242752346  0.03836148460351829  0.10046977465111295  1.0000
  C   C69       1.0  0.7228937360936611  0.0575171492990445  0.11268336908131227  1.0000
  C   C70       1.0  0.7267426100969274  0.08817759967888301  0.12785396453760503  1.0000
  C   C71       1.0  0.7515408918104117  0.09991388317800076  0.12981584908321295  1.0000
  C   C72       1.0  0.7725068361722648  0.08065954937549091  0.1178630288621405  1.0000
  H   H45       1.0  0.7407444627706232  0.014921089274617216  0.08833134458773251  1.0000
  H   H46       1.0  0.7036523264306523  0.04864629431268619  0.11009951910771246  1.0000
  H   H47       1.0  0.7546505007327353  0.12368405381401631  0.14092404813322718  1.0000
  H   H48       1.0  0.7917343020055696  0.08963575076874397  0.12006296065570443  1.0000
  C   C73       1.0  0.9138016631847212  0.5884276651750774  0.08576852283694958  1.0000
  C   C74       1.0  0.9024198635729358  0.5651190777385954  0.06054874340193605  1.0000
  C   C75       1.0  0.8906160451524524  0.5391927222166885  0.08123482897904544  1.0000
  C   C76       1.0  0.89068819609457  0.5362749940121039  0.12710034746952803  1.0000
  C   C77       1.0  0.9024716879936828  0.5592955420767879  0.15210478077568457  1.0000
  C   C78       1.0  0.9138085140511606  0.5854026176945937  0.1315783130871453  1.0000
  H   H49       1.0  0.9022525021130415  0.5674473022634914  0.025108647539691997  1.0000
  H   H50       1.0  0.881389713497872  0.5216203123007626  0.061658606855615083  1.0000
  H   H51       1.0  0.9033017975789095  0.5566836618870152  0.1873932599326722  1.0000
  H   H52       1.0  0.9229399906140068  0.6029522467096818  0.15126120927361075  1.0000
  C   C79       1.0  0.008554424232414926  0.7429564468015606  0.11004268663228145  1.0000
  C   C80       1.0  0.033876487713934145  0.7362384933139949  0.09733829231835656  1.0000
  C   C81       1.0  0.043169753071713446  0.7465398682724863  0.056267074303437914  1.0000
  C   C82       1.0  0.027440619404145883  0.7645425862273498  0.028613553325344876  1.0000
  C   C83       1.0  0.002181550243093522  0.7713521947094957  0.04146431965524444  1.0000
  C   C84       1.0  0.9925850811319048  0.7600618462729483  0.08181040079024782  1.0000
  H   H53       1.0  0.04616723377908216  0.7227766589920387  0.11907124642472522  1.0000
  H   H54       1.0  0.06265315195905341  0.7412500018253522  0.046483267747310375  1.0000
  H   H55       1.0  0.9899694935378452  0.7852568632292637  0.020096726068812965  1.0000
  H   H56       1.0  0.9730238557906196  0.7653693906479848  0.09157402037008033  1.0000
  C   C85       1.0  0.8637987774562959  0.7837395780254258  0.11488647111836468  1.0000
  C   C86       1.0  0.8415111222277564  0.7968927698541063  0.09701393917805312  1.0000
  C   C87       1.0  0.8405513944955748  0.8287701363842405  0.08459082155975439  1.0000
  C   C88       1.0  0.861835241967976  0.8478426257225987  0.09021704562843591  1.0000
  C   C89       1.0  0.8845611022193531  0.834376457818761  0.10626466657373525  1.0000
  C   C90       1.0  0.8855458102810632  0.8023214474437357  0.11875195292779434  1.0000
  H   H57       1.0  0.8248541508069638  0.7823569888112354  0.09306711445456894  1.0000
  H   H58       1.0  0.8233314555203723  0.8383850286441022  0.07055669506058226  1.0000
  H   H59       1.0  0.9012152990954528  0.8489316504593208  0.11017530751638528  1.0000
  H   H60       1.0  0.902860596103332  0.7922549426701176  0.13240024503029102  1.0000
  C   C91       1.0  0.6221721853535512  0.9694442974755543  0.007987668570825113  1.0000
  C   C92       1.0  0.6159067392306495  0.9878008456429371  0.9711592036655066  1.0000
  C   C93       1.0  0.6204320739099467  0.020315045159288836  0.97102719387154  1.0000
  C   C94       1.0  0.6313073447303924  0.03429042210112332  0.0076370556283555935  1.0000
  C   C95       1.0  0.6386091240393366  0.015686929991752807  0.04356725170879194  1.0000
  C   C96       1.0  0.6338116021422848  0.9833268794538379  0.04390574191479946  1.0000
  H   H61       1.0  0.6067507013218619  0.9771258878660288  0.9434309199137473  1.0000
  H   H62       1.0  0.61531401902223  0.034545345175947206  0.94278270624714  1.0000
  H   H63       1.0  0.6470592293559173  0.02646740616128218  0.07193468960451431  1.0000
  H   H64       1.0  0.638894819765045  0.9692751533037158  0.0722958621429448  1.0000
  C   C97       1.0  0.6834773176448032  0.847302418739818  0.18557196451039124  1.0000
  C   C98       1.0  0.6966204853548267  0.8611753001963793  0.15014948142436824  1.0000
  C   C99       1.0  0.7195599619074857  0.8769598125243545  0.15702578371050957  1.0000
  C   C100      1.0  0.7291707026466113  0.8793335706340264  0.19948329026063116  1.0000
  C   C101      1.0  0.7162167412848588  0.865210412858625  0.2349300640435115  1.0000
  C   C102      1.0  0.6934284256977349  0.8490025699012579  0.2279226199221001  1.0000
  H   H65       1.0  0.6889273969239992  0.8599190464209816  0.11738926680070105  1.0000
  H   H66       1.0  0.7295007030732994  0.8876682055848351  0.12943851123433014  1.0000
  H   H67       1.0  0.7235184467632272  0.8671676700858789  0.2678600572686764  1.0000
  H   H68       1.0  0.6830602850492999  0.8386996539068513  0.25543162256988255  1.0000
  C   C103      1.0  0.5185639340267685  0.9181918323671412  0.12505365096254534  1.0000
  C   C104      1.0  0.5310599130530954  0.9203492559877661  0.08419015508928605  1.0000
  C   C105      1.0  0.5190465529769621  0.9354674546119844  0.048767508962550554  1.0000
  C   C106      1.0  0.49439622986893045  0.9482290848535283  0.05391785302106533  1.0000
  C   C107      1.0  0.48163066472685906  0.9455036405949303  0.09451616766893589  1.0000
  C   C108      1.0  0.4938341406227529  0.930761834730312  0.13021039011252133  1.0000
  H   H69       1.0  0.5499649922200017  0.910156365111615  0.07961803616125196  1.0000
  H   H70       1.0  0.5288307039245749  0.9370254830777043  0.017241138334332495  1.0000
  H   H71       1.0  0.4626378550144799  0.9555416117532622  0.09877238728189397  1.0000
  H   H72       1.0  0.4842003927787142  0.9293828387754355  0.16187448674682736  1.0000
  C   C109      1.0  0.31386045329139495  0.7169105269798648  0.35376463232274585  1.0000
  C   C110      1.0  0.3281956832469827  0.728012002121073  0.31769642517501623  1.0000
  C   C111      1.0  0.3166635499710701  0.7474973471657258  0.2858968233483741  1.0000
  C   C112      1.0  0.2908420128316052  0.7561272706473516  0.29043857577855586  1.0000
  C   C113      1.0  0.2766395880977761  0.745390828678278  0.32678652891557597  1.0000
  C   C114      1.0  0.28804352925681675  0.7254370744218608  0.3580674620275562  1.0000
  H   H73       1.0  0.34820672771686484  0.7214904102465819  0.3142462555793543  1.0000
  H   H74       1.0  0.32772001552032687  0.7559575285817953  0.2579282303242046  1.0000
  H   H75       1.0  0.2565855591618801  0.7517965189134563  0.33002711228651016  1.0000
  H   H76       1.0  0.2766190630982738  0.7160631504603759  0.3847938611794396  1.0000
  C   C115      1.0  0.36626569195492387  0.9514510957335924  0.7808938112925607  1.0000
  C   C116      1.0  0.37589547194344375  0.9206095595648217  0.777538554473117  1.0000
  C   C117      1.0  0.3821336259055152  0.9034046409419799  0.815700973354019  1.0000
  C   C118      1.0  0.37934800856444795  0.9172827349102846  0.857131058914752  1.0000
  C   C119      1.0  0.3699459269791147  0.9482238084992767  0.8604152587981241  1.0000
  C   C120      1.0  0.3631144453970134  0.9651267870041553  0.822380262619835  1.0000
  H   H77       1.0  0.37808663562464795  0.909805220372756  0.7456575003942155  1.0000
  H   H78       1.0  0.3893470179329301  0.8794532921922837  0.8130970641171079  1.0000
  H   H79       1.0  0.3675511133471186  0.9589769792194204  0.8923193024939665  1.0000
  H   H80       1.0  0.35556079340971974  0.9889087300432574  0.8251339386778658  1.0000
  C   C121      1.0  0.36342472889337185  0.8377507975731179  0.5760190317786128  1.0000
  C   C122      1.0  0.36516682714563364  0.805741417448325  0.5651360265151966  1.0000
  C   C123      1.0  0.34303806530381126  0.787524612220878  0.5624578305759531  1.0000
  C   C124      1.0  0.31897161505028293  0.8012949079915049  0.5701502689428649  1.0000
  C   C125      1.0  0.317202455055867  0.8332614816435551  0.5814314184947111  1.0000
  C   C126      1.0  0.3393895295159112  0.8514771307254393  0.5843653808909897  1.0000
  H   H81       1.0  0.38372257135145543  0.7949416111434454  0.5589552284949939  1.0000
  H   H82       1.0  0.3447003671366624  0.7628530022791131  0.5544391941349345  1.0000
  H   H83       1.0  0.2986469372373701  0.8440943770045006  0.5874679420150578  1.0000
  H   H84       1.0  0.33787212219518553  0.8761234600913038  0.5928658765409375  1.0000
  C   C127      1.0  0.06328394666797421  0.777608255751622  0.6992526392215908  1.0000
  C   C128      1.0  0.05511030228521019  0.7779041619690896  0.743235354744396  1.0000
  C   C129      1.0  0.07295481299785389  0.7740491956563497  0.7769256287545597  1.0000
  C   C130      1.0  0.09896072514589929  0.7701985006761413  0.7666099255304307  1.0000
  C   C131      1.0  0.10727337708107328  0.7722677664171781  0.7228007568787816  1.0000
  C   C132      1.0  0.08943811880207836  0.7760432380148314  0.6891674518723003  1.0000
  H   H85       1.0  0.0349068814973128  0.7798001542941051  0.751183633833325  1.0000
  H   H86       1.0  0.06653827307436555  0.7738367835119514  0.8107616444965602  1.0000
  H   H87       1.0  0.12742706521069747  0.7699507264066069  0.7147570063181488  1.0000
  H   H88       1.0  0.09591150332800405  0.7776362769950647  0.6553968993550835  1.0000
  C   C133      1.0  0.19711420253219772  0.6851266406332774  0.5092137787535164  1.0000
  C   C134      1.0  0.17348442313632378  0.6803641654940524  0.5300647396253506  1.0000
  C   C135      1.0  0.15424533851296043  0.7035051178494086  0.527595510639267  1.0000
  C   C136      1.0  0.15877774922618676  0.7316987241139348  0.5047890379390669  1.0000
  C   C137      1.0  0.18237799590317966  0.7364765549944494  0.48370113111867336  1.0000
  C   C138      1.0  0.2015963042357724  0.7131666199576531  0.48596567016408987  1.0000
  H   H89       1.0  0.17035348110260606  0.6592691004205546  0.5493620281312853  1.0000
  H   H90       1.0  0.136159150694229  0.6998718232960255  0.5442994159662399  1.0000
  H   H91       1.0  0.18574690801698884  0.7581780191451399  0.46561583284409125  1.0000
  H   H92       1.0  0.2196352132409788  0.7166993402209205  0.4691021348777547  1.0000
  C   C139      1.0  0.7718520209348136  0.9404916511352175  0.8573927755632418  1.0000
  C   C140      1.0  0.7625800034150195  0.9097182772283201  0.8592024576033004  1.0000
  C   C141      1.0  0.7555577763826404  0.8961030349144641  0.899695118774884  1.0000
  C   C142      1.0  0.7575863738824737  0.9133631791890969  0.9384266844389629  1.0000
  C   C143      1.0  0.7670209900843099  0.9440371972621586  0.9367383614128076  1.0000
  C   C144      1.0  0.7741967493257448  0.957546192364411  0.8962624931787238  1.0000
  H   H93       1.0  0.7607218863474083  0.8964204794445343  0.8294772721822297  1.0000
  H   H94       1.0  0.7484944622198826  0.8722233084443576  0.9009041956730128  1.0000
  H   H95       1.0  0.7681503167392354  0.9577363155663977  0.9664043892641131  1.0000
  H   H96       1.0  0.7812721570670941  0.9814276639546979  0.8949722925786141  1.0000
  C   C145      1.0  0.8586235687564309  0.6731730735718047  0.3671497958048626  1.0000
  C   C146      1.0  0.859889726093605  0.6864922505311333  0.32486863270589444  1.0000
  C   C147      1.0  0.8799512179659549  0.6781240738067509  0.2959875787125936  1.0000
  C   C148      1.0  0.8984140922674815  0.6559729204609218  0.3092176893431244  1.0000
  C   C149      1.0  0.8969898067799082  0.6424000726873744  0.3512308608889826  1.0000
  C   C150      1.0  0.8771031991303224  0.6509943295676691  0.3801831290374896  1.0000
  H   H97       1.0  0.8455372164377691  0.7035866643398929  0.3147299546847457  1.0000
  H   H98       1.0  0.8809955440190718  0.6886440989693585  0.26346879115681127  1.0000
  H   H99       1.0  0.9111501405384851  0.6250349348943998  0.3613016240284822  1.0000
  H   H100      1.0  0.8757236044529001  0.6399020177746539  0.41222352974409676  1.0000
  C   C151      1.0  0.9387824722305574  0.7453185062207531  0.5196724852842923  1.0000
  C   C152      1.0  0.9395131941203826  0.7281966864425955  0.4805960774273916  1.0000
  C   C153      1.0  0.9630500164586775  0.7213396599422336  0.45989297526452616  1.0000
  C   C154      1.0  0.9858196931295234  0.7315275015383694  0.4784251625245916  1.0000
  C   C155      1.0  0.9849793140585162  0.7496816093181025  0.516539855074148  1.0000
  C   C156      1.0  0.9614555561184963  0.7566836032966092  0.5370389486635837  1.0000
  H   H101      1.0  0.9219787249885281  0.720179424378002  0.46637916549010705  1.0000
  H   H102      1.0  0.963643131921203  0.7072377199947637  0.4305029567229942  1.0000
  H   H103      1.0  0.002500299216205759  0.7578472083416011  0.5308203889574675  1.0000
  H   H104      1.0  0.960970935707131  0.7700688133572485  0.5671641291896179  1.0000
  C   C157      1.0  0.8032396496023785  0.7424840519967928  0.6368354886279067  1.0000
  C   C158      1.0  0.7848941545572727  0.766668139193762  0.6415743465695494  1.0000
  C   C159      1.0  0.7916187744309714  0.7955857257361482  0.660210005405837  1.0000
  C   C160      1.0  0.8165426015591265  0.7999756846471302  0.674999354423945  1.0000
  C   C161      1.0  0.8344360928616533  0.7752188702156982  0.672155801400141  1.0000
  C   C162      1.0  0.8279408460641333  0.746760335557336  0.6524904655048918  1.0000
  H   H105      1.0  0.7657168246524274  0.7634428419037723  0.6296142651305064  1.0000
  H   H106      1.0  0.7776452607188443  0.8145804005042032  0.6624953200559943  1.0000
  H   H107      1.0  0.8536042422609031  0.7783299242538189  0.6842041593627822  1.0000
  H   H108      1.0  0.8420606526694252  0.728079482453008  0.6498181329351047  1.0000
  C   C163      1.0  0.6436186460791371  0.9688245694601602  0.2642032881101848  1.0000
  C   C164      1.0  0.6511156398093763  0.9374253963843969  0.27173752285034986  1.0000
  C   C165      1.0  0.6582270884904922  0.9274954937410139  0.3140176966082443  1.0000
  C   C166      1.0  0.657483276177612  0.9488779904129152  0.34876293449573426  1.0000
  C   C167      1.0  0.6505657892337221  0.9803916056275134  0.34089114905383916  1.0000
  C   C168      1.0  0.6437896434322345  0.9903987787073067  0.298603851941938  1.0000
  H   H109      1.0  0.6518425192091656  0.9208388083561585  0.2449632510327366  1.0000
  H   H110      1.0  0.6637382893078754  0.9031281904627748  0.31994341356029277  1.0000
  H   H111      1.0  0.6503500282340261  0.9971122020042856  0.3675334874454355  1.0000
  H   H112      1.0  0.6381890136100447  0.014742457548983401  0.29279467566987405  1.0000
  C   C169      1.0  0.521586810054381  0.9542105105249679  0.5091146080640635  1.0000
  C   C170      1.0  0.4951007784672116  0.9564611655413897  0.5036577937538512  1.0000
  C   C171      1.0  0.4789869170981524  0.9630753136240696  0.539718176451041  1.0000
  C   C172      1.0  0.4892366689591547  0.9664522800145515  0.5815457925569161  1.0000
  C   C173      1.0  0.5157733034630351  0.96441607407061  0.5869440141436331  1.0000
  C   C174      1.0  0.5319690334114  0.9585274622215919  0.5507189493071071  1.0000
  H   H113      1.0  0.4870542713055089  0.9535296389874297  0.47140946120289107  1.0000
  H   H114      1.0  0.45866187891577065  0.9655027053259572  0.5350252149408926  1.0000
  H   H115      1.0  0.523745650256611  0.9666957573328592  0.619323189452708  1.0000
  H   H116      1.0  0.5524198091396967  0.9564560500314496  0.5551487919133874  1.0000
  C   C175      1.0  0.6499152527239802  0.9577222363011615  0.6283061114072024  1.0000
  C   C176      1.0  0.647462911664673  0.9278035631475432  0.6100336965535507  1.0000
  C   C177      1.0  0.6624778244324583  0.9024450078411929  0.625357562979401  1.0000
  C   C178      1.0  0.680225411048288  0.9070598004503104  0.6586152434493009  1.0000
  C   C179      1.0  0.681983055161574  0.9367136188205774  0.6780166999263431  1.0000
  C   C180      1.0  0.6667547532031173  0.9619816526666345  0.663024027834656  1.0000
  H   H117      1.0  0.6340633183214404  0.9241028778085574  0.5840750479735046  1.0000
  H   H118      1.0  0.660963287444831  0.879483251060594  0.610449566777796  1.0000
  H   H119      1.0  0.6950893116668155  0.9401843860094499  0.704582219695836  1.0000
  H   H120      1.0  0.668547814667932  0.9850124699859881  0.6775932355019213  1.0000
  C   C181      1.0  0.3726350280046806  0.26906032178174927  0.2445650409060164  1.0000
  C   C182      1.0  0.3826325154117102  0.27033728614208313  0.28690117411280214  1.0000
  C   C183      1.0  0.3720016318387772  0.25203036831573916  0.32099269376574596  1.0000
  C   C184      1.0  0.35091280930291524  0.23305967193164231  0.3130569412549874  1.0000
  C   C185      1.0  0.3402741229328464  0.2327161585995357  0.2711340155750551  1.0000
  C   C186      1.0  0.3512922692652736  0.25043979222420454  0.2367957601973068  1.0000
  H   H121      1.0  0.39914990509560083  0.28471739254863315  0.2930549567455269  1.0000
  H   H122      1.0  0.38054201375969277  0.2522403310858325  0.3531162874061388  1.0000
  H   H123      1.0  0.3238390448669092  0.21824131181480472  0.26491899570232996  1.0000
  H   H124      1.0  0.34318375698420117  0.24976773488455578  0.20440375026150928  1.0000
  C   C187      1.0  0.389517781799156  0.11153698217086824  0.5303519721210349  1.0000
  C   C188      1.0  0.3657526989053005  0.10654592856120707  0.5112348016103235  1.0000
  C   C189      1.0  0.3556934658567217  0.07595783848850002  0.5103303865077139  1.0000
  C   C190      1.0  0.36942787655015624  0.05041413828104435  0.5283766984211121  1.0000
  C   C191      1.0  0.3935897108958429  0.05535737086257031  0.5458929865685597  1.0000
  C   C192      1.0  0.4034897725872456  0.0858721935172957  0.5472606361221051  1.0000
  H   H125      1.0  0.3549217755179032  0.1262622505948201  0.49799796585321504  1.0000
  H   H126      1.0  0.33702091246209004  0.07218800810009918  0.4965773934752044  1.0000
  H   H127      1.0  0.40460946864340247  0.035716730440638056  0.5587628531032541  1.0000
  H   H128      1.0  0.4219857788351619  0.08957633612491121  0.5617164978129405  1.0000
  C   C193      1.0  0.26023668146071943  0.400055941387356  0.8088529620202928  1.0000
  C   C194      1.0  0.26991625533527436  0.3991098296930694  0.8514428228208422  1.0000
  C   C195      1.0  0.2538023140488224  0.40566229597074077  0.8874536798598803  1.0000
  C   C196      1.0  0.2279648460961946  0.412971925168654  0.8809316379169073  1.0000
  C   C197      1.0  0.21794715071263407  0.4121373351203039  0.8385853403142957  1.0000
  C   C198      1.0  0.2341299080599258  0.4057775431247862  0.8024899238649686  1.0000
  H   H129      1.0  0.29003951813687445  0.39423599340843724  0.8566055888375455  1.0000
  H   H130      1.0  0.26149802091766433  0.405238354743931  0.920249466542842  1.0000
  H   H131      1.0  0.19790464382174328  0.41746325168222403  0.8334988322942319  1.0000
  H   H132      1.0  0.2264051230835302  0.40546197707374526  0.7698014379712023  1.0000
  C   C199      1.0  0.3068455454886718  0.5992019797840471  0.6152602317607118  1.0000
  C   C200      1.0  0.31397924284274464  0.574526049760517  0.6437178049544816  1.0000
  C   C201      1.0  0.29541281690401355  0.5539415416687945  0.6609103064709819  1.0000
  C   C202      1.0  0.2696936084036456  0.5582618659312388  0.6498568215429249  1.0000
  C   C203      1.0  0.2625514733570198  0.5832097474531371  0.6220736031894762  1.0000
  C   C204      1.0  0.2811094523542426  0.6034076874205451  0.6044242229300189  1.0000
  H   H133      1.0  0.33387937890546215  0.5712615019252303  0.6522026225206745  1.0000
  H   H134      1.0  0.30097711503880803  0.5348114403382855  0.6826746185837395  1.0000
  H   H135      1.0  0.2426701676124607  0.5866674206508228  0.6135483268564913  1.0000
  H   H136      1.0  0.27542066007629795  0.6219551363132347  0.5819429613695687  1.0000
  C   C205      1.0  0.3130977287278674  0.3772157730723638  0.5470691807627536  1.0000
  C   C206      1.0  0.29064491755854305  0.36009973221492025  0.552996922883709  1.0000
  C   C207      1.0  0.29122825521953144  0.32715763219230576  0.5506747545653726  1.0000
  C   C208      1.0  0.3140976590032725  0.3111872042067443  0.5406235209437764  1.0000
  C   C209      1.0  0.3363387277931183  0.32830867442793416  0.5318321876713908  1.0000
  C   C210      1.0  0.33587214203679083  0.3613697775443307  0.5354290388404903  1.0000
  H   H137      1.0  0.27273064448312645  0.3722539483070885  0.5593764573274562  1.0000
  H   H138      1.0  0.2738835603810398  0.3140434129917446  0.5567768330027454  1.0000
  H   H139      1.0  0.3540820138463713  0.3160651087740239  0.5238473788894432  1.0000
  H   H140      1.0  0.35331261045328993  0.37450984618396405  0.5305144833347949  1.0000
  C   C211      1.0  0.03100736461335862  0.4503144072971159  0.3192495622547289  1.0000
  C   C212      1.0  0.031939992062940174  0.43725372911408844  0.2772507086977903  1.0000
  C   C213      1.0  0.028981072625138275  0.456534830444466  0.24008862940170772  1.0000
  C   C214      1.0  0.023968802184212157  0.48877153647198035  0.24475311070210803  1.0000
  C   C215      1.0  0.021421705452615347  0.5015995570592546  0.2868790819367255  1.0000
  C   C216      1.0  0.02523885117354463  0.4824224702168354  0.32422479544753935  1.0000
  H   H141      1.0  0.03590420885077905  0.4123016622696306  0.27337116533716727  1.0000
  H   H142      1.0  0.030674988258340804  0.4463148198557662  0.20792592293062914  1.0000
  H   H143      1.0  0.01740928611377557  0.5265466009147026  0.2906035522489709  1.0000
  H   H144      1.0  0.024282335687909606  0.49258743071347444  0.35665794976865994  1.0000
  C   C217      1.0  0.05724851443519219  0.6110699517437383  0.5753656431604748  1.0000
  C   C218      1.0  0.05214292292134637  0.581131604515559  0.5927565679319222  1.0000
  C   C219      1.0  0.03495152155521386  0.5614166223890182  0.5716963480589851  1.0000
  C   C220      1.0  0.023144122593066193  0.5714291929089602  0.5329178550369102  1.0000
  C   C221      1.0  0.027964682061934143  0.6015358745204802  0.5158846139554073  1.0000
  C   C222      1.0  0.04499572115306938  0.6213724934020696  0.5371446533501419  1.0000
  H   H145      1.0  0.06144804720370378  0.5731723550914876  0.6224755428233405  1.0000
  H   H146      1.0  0.030704822709944676  0.5385214875054128  0.5856646911406227  1.0000
  H   H147      1.0  0.018998538811609844  0.6092784069218169  0.48572386017573405  1.0000
  H   H148      1.0  0.04884195122417978  0.6444682318840276  0.5234820672295136  1.0000
  C   C223      1.0  0.14142576945221952  0.4691370901167555  0.5279927140900428  1.0000
  C   C224      1.0  0.16127428355091192  0.48057909653693415  0.553537824195582  1.0000
  C   C225      1.0  0.17672302407300433  0.45959971399149274  0.5776492313519799  1.0000
  C   C226      1.0  0.17265045787852687  0.4271136098580485  0.5755174541611114  1.0000
  C   C227      1.0  0.15336744054603857  0.4156355489283943  0.5488171284070582  1.0000
  C   C228      1.0  0.13757354127582985  0.4366453968812346  0.5254189040102023  1.0000
  H   H149      1.0  0.1643450438211606  0.505692968791988  0.5556072003204007  1.0000
  H   H150      1.0  0.19133124273390187  0.4686377137593162  0.5987384911514692  1.0000
  H   H151      1.0  0.15052017124135683  0.3904690748320478  0.5465828617187127  1.0000
  H   H152      1.0  0.12267151160950622  0.42764786426138546  0.5050040359748118  1.0000
  C   C229      1.0  0.7653186917415977  0.17943684124897383  0.39281636091940825  1.0000
  C   C230      1.0  0.7628344973858787  0.16785861945574032  0.3501959683747609  1.0000
  C   C231      1.0  0.7446149757580796  0.18107553436133758  0.3218637402430978  1.0000
  C   C232      1.0  0.7292529739386978  0.2063784577657851  0.3357614840015048  1.0000
  C   C233      1.0  0.7320587137277437  0.2183600997545746  0.3781524305004707  1.0000
  C   C234      1.0  0.7499054911756518  0.20470354482841396  0.4068394125890297  1.0000
  H   H153      1.0  0.7746780764705087  0.14818584842963717  0.33943307009456425  1.0000
  H   H154      1.0  0.7422152666531303  0.17122818891836705  0.28965945952538424  1.0000
  H   H155      1.0  0.7202286265538009  0.2380041420249849  0.38905456056278953  1.0000
  H   H156      1.0  0.7518503630808853  0.21379664263069326  0.4396982531607323  1.0000
  C   C235      1.0  0.7618447533590411  0.07157069779814765  0.6185243233345642  1.0000
  C   C236      1.0  0.7707893165244747  0.06357270057412978  0.576459587166526  1.0000
  C   C237      1.0  0.7799140300316737  0.03280316720916865  0.5682908745622932  1.0000
  C   C238      1.0  0.7802252153610836  0.01014389778861502  0.6021908258480694  1.0000
  C   C239      1.0  0.7716780472469478  0.018467415770484497  0.644249294681666  1.0000
  C   C240      1.0  0.7621619124458853  0.04892434813507274  0.6522408999668371  1.0000
  H   H157      1.0  0.7707036568165706  0.08106028180223834  0.5502911273402957  1.0000
  H   H158      1.0  0.7867396700601156  0.026587159546696215  0.5357304501482258  1.0000
  H   H159      1.0  0.7727450603794103  0.0016247776807420955  0.6709586241115165  1.0000
  H   H160      1.0  0.7554922442612387  0.05506667156515377  0.6849317096858576  1.0000
  C   C241      1.0  0.842424246836224  0.39591153515074257  0.8337625393684934  1.0000
  C   C242      1.0  0.8367794747019283  0.42804082336735877  0.8289309224069394  1.0000
  C   C243      1.0  0.8380242517245198  0.448033738395956  0.8651842962436723  1.0000
  C   C244      1.0  0.8450209160416694  0.43600386669065316  0.9063301033772179  1.0000
  C   C245      1.0  0.8502526609338704  0.4037364819328109  0.9113847196942618  1.0000
  C   C246      1.0  0.8487699822163752  0.3836529537579899  0.8751603676956949  1.0000
  H   H161      1.0  0.8311779244503609  0.43747242687941607  0.7973375324845086  1.0000
  H   H162      1.0  0.8337507601028152  0.4729520104482412  0.8612476353593451  1.0000
  H   H163      1.0  0.856167160307519  0.3943787024645209  0.9427466173749088  1.0000
  H   H164      1.0  0.8533343677857501  0.3587941835822578  0.8788758808131005  1.0000
  C   C247      1.0  0.838382889537134  0.5194154942001735  0.617597616725979  1.0000
  C   C248      1.0  0.863565832705874  0.5212668714049944  0.6321761945281287  1.0000
  C   C249      1.0  0.8792862239300467  0.5458112298494632  0.6173314885759773  1.0000
  C   C250      1.0  0.8698759538788337  0.5685694074172066  0.587895381450781  1.0000
  C   C251      1.0  0.844739087637055  0.5666932819417997  0.5731542713559866  1.0000
  C   C252      1.0  0.8289765082091108  0.542140957148848  0.5880580421650965  1.0000
  H   H165      1.0  0.8708888873239522  0.5039248331537238  0.6552474562220237  1.0000
  H   H166      1.0  0.8987079020052774  0.547200320917462  0.6289160326256575  1.0000
  H   H167      1.0  0.8376080651004786  0.5836956726626917  0.5495322138612342  1.0000
  H   H168      1.0  0.8096071661442724  0.5404656585535286  0.5762869804200843  1.0000
  C   C253      1.0  0.9599610682163594  0.4411623074437927  0.6602312338912567  1.0000
  C   C254      1.0  0.9599620576344342  0.40955751628629916  0.6475334931414218  1.0000
  C   C255      1.0  0.9804109921553642  0.39730155876519585  0.6223375207777386  1.0000
  C   C256      1.0  0.0003254051279004688  0.4169293280397729  0.6083926056165716  1.0000
  C   C257      1.0  0.999967459491831  0.4487333640055585  0.6202947201465587  1.0000
  C   C258      1.0  0.9801059498773086  0.46064384696118055  0.6469958286842302  1.0000
  H   H169      1.0  0.9444146365560118  0.3943943463160268  0.6575423845434054  1.0000
  H   H170      1.0  0.9805526152070505  0.37272246867105746  0.6129901194282312  1.0000
  H   H171      1.0  0.015177287977509168  0.4640871007567458  0.6096363669519212  1.0000
  H   H172      1.0  0.9801310764122961  0.48511155864419486  0.6567786171245238  1.0000
  C   C259      1.0  0.861423345832694  0.3132674656065636  0.5851513676841343  1.0000
  C   C260      1.0  0.8627752907027982  0.30231843140438547  0.6285908874468772  1.0000
  C   C261      1.0  0.8579525396381503  0.2704837878730284  0.638478521471434  1.0000
  C   C262      1.0  0.8513324741300368  0.24972728348551831  0.6050645927335725  1.0000
  C   C263      1.0  0.8503301247348708  0.2606052697355496  0.561574835490338  1.0000
  C   C264      1.0  0.8555397094573357  0.29228424851834833  0.5516195645086686  1.0000
  H   H173      1.0  0.8674250416273036  0.3183731239345923  0.6545903274241963  1.0000
  H   H174      1.0  0.858794056625825  0.26212039000540854  0.6721439707719944  1.0000
  H   H175      1.0  0.8455468021864986  0.2445986478739547  0.5355753672643094  1.0000
  H   H176      1.0  0.8546096760783587  0.300651305742401  0.5179575511812566  1.0000
  C   C265      1.0  0.607267573228555  0.18664646460959203  0.7300982668642486  1.0000
  C   C266      1.0  0.5907776074185422  0.16494347275714216  0.7114079165213776  1.0000
  C   C267      1.0  0.5850421042253283  0.13678907788325245  0.7336889920177123  1.0000
  C   C268      1.0  0.5956084620834942  0.13045790965087367  0.7748160185046191  1.0000
  C   C269      1.0  0.6129295078443989  0.15158590352756132  0.7924874517199738  1.0000
  C   C270      1.0  0.6189613152041231  0.17950769741456404  0.7699756629438864  1.0000
  H   H177      1.0  0.581910436956723  0.1700440217170432  0.6803111655583448  1.0000
  H   H178      1.0  0.5715897438997758  0.12063165746912857  0.7199477070067214  1.0000
  H   H179      1.0  0.6217544723772153  0.1464593309473814  0.8234871529469212  1.0000
  H   H180      1.0  0.6321180534916301  0.19593438534666016  0.7841444656822738  1.0000
  C   C271      1.0  0.5548026185947705  0.12361116220514233  0.5300061755099799  1.0000
  C   C272      1.0  0.5487946497851455  0.09358465452680018  0.5151062344192108  1.0000
  C   C273      1.0  0.5637904223403655  0.07959425749439775  0.4819361972780027  1.0000
  C   C274      1.0  0.5849339905831773  0.09544447899446662  0.46428986307940334  1.0000
  C   C275      1.0  0.5895643461730837  0.12643922382182593  0.47659338766055237  1.0000
  C   C276      1.0  0.5743408858958682  0.14061954566406995  0.5091879856851989  1.0000
  H   H181      1.0  0.5329172625286085  0.08091670413881451  0.5295636620553242  1.0000
  H   H182      1.0  0.5591822774459267  0.05638510020336995  0.4703227565913871  1.0000
  H   H183      1.0  0.6056276873840721  0.1389284828263151  0.46262568952167765  1.0000
  H   H184      1.0  0.5783382297170927  0.16436706467841028  0.5189156048874322  1.0000
  C   C277      1.0  0.6495927379177248  0.24674603828717878  0.5155039718439124  1.0000
  C   C278      1.0  0.6718309664800339  0.2357293715133638  0.4941611016016449  1.0000
  C   C279      1.0  0.6957488646979361  0.23894800183672366  0.5139159896639823  1.0000
  C   C280      1.0  0.6974205485489376  0.25399951471704646  0.5544705581730806  1.0000
  C   C281      1.0  0.6753328903651377  0.266060256625653  0.5749290906614383  1.0000
  C   C282      1.0  0.6514290433920971  0.2619422289388141  0.5558479617187048  1.0000
  H   H185      1.0  0.6705276707573229  0.22430777551687  0.462799949798886  1.0000
  H   H186      1.0  0.7128504784112378  0.22993947616344743  0.4977104330749506  1.0000
  H   H187      1.0  0.6765745371693482  0.27790741324071827  0.6061442968314721  1.0000
  H   H188      1.0  0.6344613775517195  0.27097139585998603  0.5721380225122794  1.0000
  C   C283      1.0  0.48794769261093895  0.2885054962671908  0.5635304963269369  1.0000
  C   C284      1.0  0.46139320254634075  0.2905925846419521  0.5698248836673194  1.0000
  C   C285      1.0  0.4450592384731469  0.2890705997905334  0.5337461166530209  1.0000
  C   C286      1.0  0.45529771236967614  0.28616632116861906  0.49123427532511  1.0000
  C   C287      1.0  0.4818719875087787  0.28501351127430746  0.48484317274745364  1.0000
  C   C288      1.0  0.4981842713818057  0.2857952483996328  0.521003477574055  1.0000
  H   H189      1.0  0.45344906152612147  0.2926662427207016  0.6027062284019772  1.0000
  H   H190      1.0  0.4245707073420728  0.2903254421861874  0.5387764900032447  1.0000
  H   H191      1.0  0.48983275944966526  0.2827872987067896  0.4519800572267183  1.0000
  H   H192      1.0  0.518687751108754  0.2846101596338063  0.5159373356454194  1.0000
  N   N1        1.0  0.13421652555390592  0.5933298943265943  0.5142577981255254  1.0000
  C   C289      1.0  0.11952883392859848  0.5746733997666892  0.54700406840497  1.0000
  C   C290      1.0  0.12352387816711057  0.6257554985248018  0.5121126264778451  1.0000
  C   C291      1.0  0.13241208463692938  0.57859649110399  0.4706209405253021  1.0000
  C   C292      1.0  0.16134863653172885  0.5942399778635183  0.5272687491049088  1.0000
  H   H193      1.0  0.12783994194669035  0.5505808491379897  0.5512300283151949  1.0000
  H   H194      1.0  0.09928224820404592  0.5719303490625681  0.5369601723130593  1.0000
  H   H195      1.0  0.1192318037941962  0.5861202216383058  0.5797725848850656  1.0000
  H   H196      1.0  0.13382448740241704  0.640538271939041  0.4873067070253458  1.0000
  H   H197      1.0  0.10290322652554827  0.6257582137002116  0.5033738438721269  1.0000
  H   H198      1.0  0.12487409248784989  0.6377669233338432  0.544337575555593  1.0000
  H   H199      1.0  0.14087299118583613  0.5543652639515468  0.4707780497224445  1.0000
  H   H200      1.0  0.1427363564384867  0.5925453698071301  0.44494863078110786  1.0000
  H   H201      1.0  0.11212514143162261  0.5765079903489815  0.4604371835182143  1.0000
  H   H202      1.0  0.1633702855793897  0.6042179515980184  0.5607078482861424  1.0000
  H   H203      1.0  0.1729422977778737  0.6089802413186901  0.5040972372353977  1.0000
  H   H204      1.0  0.17015605390639152  0.5701809988465065  0.5279097426683913  1.0000
  N   N2        1.0  0.9585489218346253  0.6459719958481575  0.5624230356939395  1.0000
  C   C293      1.0  0.9381475262086258  0.6644139583244787  0.5849134303439592  1.0000
  C   C294      1.0  0.963032993587482  0.6159490794571888  0.5863843421565413  1.0000
  C   C295      1.0  0.9822505179479416  0.6644937394474069  0.5614031510773375  1.0000
  C   C296      1.0  0.9508484296366561  0.639163360697832  0.5169769473342611  1.0000
  H   H205      1.0  0.9338275003605863  0.6868140056044822  0.5669365321126698  1.0000
  H   H206      1.0  0.9436730383929575  0.6707984836261495  0.6188182438276527  1.0000
  H   H207      1.0  0.9200928188456274  0.651012239539686  0.5874161880482625  1.0000
  H   H208      1.0  0.9783215435123577  0.6015280660827789  0.5700816007175403  1.0000
  H   H209      1.0  0.9689918476156167  0.6201236131536458  0.6207594184350091  1.0000
  H   H210      1.0  0.9454014257178613  0.6014910315546727  0.5877872655825482  1.0000
  H   H211      1.0  0.997744301474582  0.6524511451012593  0.5424505030023381  1.0000
  H   H212      1.0  0.9893449687248257  0.6687881239237662  0.5950757270376266  1.0000
  H   H213      1.0  0.9791259674383603  0.6878923856062826  0.5455379613347862  1.0000
  H   H214      1.0  0.9328257795410495  0.6254678548148672  0.5165556683320458  1.0000
  H   H215      1.0  0.9658419015826638  0.6251329305424943  0.4992322073186154  1.0000
  H   H216      1.0  0.9475544496498064  0.6612770641948926  0.49779164175379986  1.0000
  N   N3        1.0  0.8404662802829912  0.8820736835834102  0.9432784587713263  1.0000
  C   C297      1.0  0.83210326128362  0.8792623725612976  0.8972678947112327  1.0000
  C   C298      1.0  0.8193870471676399  0.8727200189120535  0.9733097748270729  1.0000
  C   C299      1.0  0.8474083782947929  0.9151296730668725  0.9517912615659019  1.0000
  C   C300      1.0  0.8629031936524989  0.8612525473623099  0.9509930771180507  1.0000
  H   H217      1.0  0.847540714216673  0.8860360998038521  0.8735641828981973  1.0000
  H   H218      1.0  0.8152697464432354  0.8949175489895316  0.8905457475823835  1.0000
  H   H219      1.0  0.8264255470294548  0.8547116154689677  0.889710435356297  1.0000
  H   H220      1.0  0.8249975797611654  0.8747304808375772  0.008241138175698381  1.0000
  H   H221      1.0  0.8022379017929929  0.8880256663920288  0.9687228601885006  1.0000
  H   H222      1.0  0.8135165698562251  0.8479474854363199  0.9679015281943575  1.0000
  H   H223      1.0  0.8536538858049882  0.9181466295791395  0.9863869310066415  1.0000
  H   H224      1.0  0.8309007126880489  0.9315209044776834  0.9462124384324305  1.0000
  H   H225      1.0  0.8633773024210278  0.9229512195370675  0.929896944283009  1.0000
  H   H226      1.0  0.8695732710765565  0.8630194413504736  0.9855625048686056  1.0000
  H   H227      1.0  0.8792731912694668  0.8675764873873337  0.928994483594232  1.0000
  H   H228      1.0  0.8583238080841504  0.8360744168925579  0.9452457469066025  1.0000
  N   N4        1.0  0.15300382273293922  0.3936319639325215  0.007686601028548345  1.0000
  C   C301      1.0  0.17062984327265368  0.36722161043486623  0.9966919352824889  1.0000
  C   C302      1.0  0.1675712598844432  0.4192835469514362  0.0276722018339719  1.0000
  C   C303      1.0  0.133217500339434  0.3825826497652607  0.039225184090306835  1.0000
  C   C304      1.0  0.14062400783182297  0.40554958059313917  0.9673033221755765  1.0000
  H   H229      1.0  0.16033020646685864  0.34737745611531323  0.9815319620201075  1.0000
  H   H230      1.0  0.1804341551730516  0.3579239474546995  0.02646760132578918  1.0000
  H   H231      1.0  0.1858185441067402  0.37481613672769937  0.9729443632566955  1.0000
  H   H232      1.0  0.17724967273537504  0.4111056256255087  0.0581449754387553  1.0000
  H   H233      1.0  0.18269134170828213  0.4282355870681275  0.004991866822550595  1.0000
  H   H234      1.0  0.15491445511292573  0.4397039863158553  0.036106548232277984  1.0000
  H   H235      1.0  0.1418305200147461  0.373886117212706  0.07043266435612949  1.0000
  H   H236      1.0  0.12184579048186628  0.3630921455900902  0.025516143888001608  1.0000
  H   H237      1.0  0.1195698353183977  0.4019425695074487  0.04815785553185714  1.0000
  H   H238      1.0  0.12729893453950047  0.4256232263838514  0.9745306375855644  1.0000
  H   H239      1.0  0.12942303322208523  0.3868375103772665  0.9513035301198335  1.0000
  H   H240      1.0  0.15506350102887628  0.41415119680552703  0.9428554211106879  1.0000
  N   N5        1.0  0.4745596994398253  0.18355031553489676  0.5348024055561158  1.0000
  C   C305      1.0  0.49383421015125917  0.18382004181038575  0.49878894766330795  1.0000
  C   C306      1.0  0.4683139725962762  0.15062850212670367  0.5467766843346805  1.0000
  C   C307      1.0  0.45121660938755237  0.200199685937989  0.52002447672745  1.0000
  C   C308      1.0  0.48470448445817044  0.19972699647058867  0.5735210344682713  1.0000
  H   H241      1.0  0.4988258376014271  0.2084023428547836  0.48895286306445046  1.0000
  H   H242      1.0  0.48668589757479197  0.1717840301263901  0.4691564729800078  1.0000
  H   H243      1.0  0.5118180515345041  0.1715718699835235  0.5086889128513241  1.0000
  H   H244      1.0  0.45394112801841763  0.14970526819712532  0.574104214721345  1.0000
  H   H245      1.0  0.4599907070510989  0.13794521605456336  0.5185976364538171  1.0000
  H   H246      1.0  0.4855721805761111  0.13715656162692733  0.5574510285740271  1.0000
  H   H247      1.0  0.43656759458714717  0.20157090945655326  0.5468305827379232  1.0000
  H   H248      1.0  0.44246259895990175  0.1880212988067861  0.49188712801273915  1.0000
  H   H249      1.0  0.45538167282622194  0.22465379802904997  0.5091818193128671  1.0000
  H   H250      1.0  0.5019572924383126  0.18742415817822958  0.5863769802666475  1.0000
  H   H251      1.0  0.470306880796203  0.20090113739518112  0.6007477912440485  1.0000
  H   H252      1.0  0.49021303570064806  0.2243225480274209  0.5653084787445743  1.0000
  N   N6        1.0  0.9346259175975917  0.4908368470758606  0.5382082713618408  1.0000
  C   C309      1.0  0.9465508331457043  0.5100659737519876  0.5724100363882452  1.0000
  C   C310      1.0  0.9401729812335099  0.4570542785195309  0.5468705176928109  1.0000
  C   C311      1.0  0.9451162575926378  0.4998914837492768  0.4945971979734277  1.0000
  C   C312      1.0  0.9066572302021011  0.4964103164986447  0.5389942759714538  1.0000
  H   H253      1.0  0.9393471983574937  0.5034199647723997  0.6058655791700902  1.0000
  H   H254      1.0  0.9424165218665632  0.535650592027668  0.5672468603545079  1.0000
  H   H255      1.0  0.9677521139412982  0.5068667485234402  0.5720897806947113  1.0000
  H   H256      1.0  0.9316067826562643  0.441730038874947  0.5216510874405279  1.0000
  H   H257      1.0  0.9611489804274769  0.45203479035329286  0.5469312535137294  1.0000
  H   H258      1.0  0.9323530419067986  0.44941569452670393  0.579444975825003  1.0000
  H   H259      1.0  0.9415841189090548  0.5253494834210732  0.487241933274821  1.0000
  H   H260      1.0  0.9365768826691827  0.48587908689777104  0.46791961969379187  1.0000
  H   H261      1.0  0.9661743344525442  0.4960322324192125  0.4928950914770038  1.0000
  H   H262      1.0  0.8968940727173466  0.4817570035627453  0.5143230496367589  1.0000
  H   H263      1.0  0.9017494736453496  0.521608635185436  0.5320225304991822  1.0000
  H   H264      1.0  0.8982356367711968  0.4904392468356395  0.5717195973649756  1.0000
  N   N7        1.0  0.28335501759569465  0.2746116133558082  0.40662856205059905  1.0000
  C   C313      1.0  0.28877763164714265  0.3010117748816974  0.436327271770493  1.0000
  C   C314      1.0  0.2560121993020749  0.27545026219267327  0.39495682328528864  1.0000
  C   C315      1.0  0.28934034054387214  0.24439689517944294  0.42908737044185136  1.0000
  C   C316      1.0  0.2992957529451601  0.27749320517272597  0.36627792294150013  1.0000
  H   H265      1.0  0.3092741086927775  0.3010267829201575  0.4458338561200101  1.0000
  H   H266      1.0  0.2773234263426836  0.2992808188097104  0.4673790337298312  1.0000
  H   H267      1.0  0.2844235540460622  0.3242875551160505  0.42078826980266804  1.0000
  H   H268      1.0  0.25132221457316145  0.2557318582742366  0.37265738163001344  1.0000
  H   H269      1.0  0.24351071075570252  0.2732655618161396  0.4247654438074773  1.0000
  H   H270      1.0  0.250772727305833  0.29795475461700976  0.37799150070211035  1.0000
  H   H271      1.0  0.2858651943049246  0.22381800495216325  0.4075960687678038  1.0000
  H   H272      1.0  0.27791627578564837  0.24144565056996492  0.4600022926775384  1.0000
  H   H273      1.0  0.3097475145474192  0.24312116437871018  0.438377908157125  1.0000
  H   H274      1.0  0.29599777540195704  0.25764015315964456  0.34340522363565684  1.0000
  H   H275      1.0  0.3200650000082167  0.2769042553339516  0.37395503263824353  1.0000
  H   H276      1.0  0.29531229869893194  0.2999514383227497  0.34831694906964883  1.0000
  N   N8        1.0  0.7825937315750847  0.3789270561125702  0.982955557233869  1.0000
  C   C317      1.0  0.7920964382828508  0.41019435406213944  0.9955860920912826  1.0000
  C   C318      1.0  0.8021010290886861  0.3544370304234206  0.9929674025177894  1.0000
  C   C319      1.0  0.7773956734655613  0.37900580690413405  0.9353240686064347  1.0000
  C   C320      1.0  0.7588501695245676  0.3721030711097587  0.008079850258320365  1.0000
  H   H277      1.0  0.7781524258574278  0.4293991905759439  0.987704293163802  1.0000
  H   H278      1.0  0.8103350808374242  0.41585327189722376  0.9782379174874457  1.0000
  H   H279      1.0  0.795741075921805  0.4112209775280637  0.03145345824998902  1.0000
  H   H280      1.0  0.8201054400185753  0.358330001864546  0.9738275324015437  1.0000
  H   H281      1.0  0.8070191763740653  0.3544122799260087  0.02842784048425373  1.0000
  H   H282      1.0  0.795273065400301  0.3303913433688906  0.9852609346607931  1.0000
  H   H283      1.0  0.7626592469481127  0.39710122378048146  0.9265944827493549  1.0000
  H   H284      1.0  0.7704891464143961  0.35565999376600677  0.9244640920880267  1.0000
  H   H285      1.0  0.7949752989915242  0.3844819980657605  0.9156429196748169  1.0000
  H   H286      1.0  0.7623066386095488  0.3720314467624712  0.044166011321343346  1.0000
  H   H287      1.0  0.7511901943498158  0.3485524340105304  0.9998276950199687  1.0000
  H   H288      1.0  0.7436842519376956  0.39013080991198335  0.0015422606198958189  1.0000
  N   N9        1.0  0.1855990990898421  0.599504343828161  0.02816243115551198  1.0000
  C   C321      1.0  0.16765366485343636  0.6128426519229674  0.06126324891772339  1.0000
  C   C322      1.0  0.19753793531558417  0.5703869633155974  0.04602026970500339  1.0000
  C   C323      1.0  0.2056197554603026  0.6227685978890624  0.017461307408131566  1.0000
  C   C324      1.0  0.17156201314322533  0.5920011421953522  0.9878516660652329  1.0000
  H   H289      1.0  0.15826253429428402  0.6348287041055205  0.048853134780273866  1.0000
  H   H290      1.0  0.17766237328950468  0.6188647484629601  0.09203164218601434  1.0000
  H   H291      1.0  0.15219079800552113  0.5959272883940816  0.0699340250505136  1.0000
  H   H292      1.0  0.20836568282635018  0.5752164926052112  0.07639962386813015  1.0000
  H   H293      1.0  0.1828997011149146  0.5523330792527629  0.05432254099927536  1.0000
  H   H294      1.0  0.2112650876530851  0.5597070303037156  0.021935318463428555  1.0000
  H   H295      1.0  0.21963700925405213  0.6133182203988958  0.9928699843371211  1.0000
  H   H296      1.0  0.21653815811809504  0.6292359423905004  0.047148120731620224  1.0000
  H   H297      1.0  0.19721767420919484  0.6449090117607319  0.0034525272784942107  1.0000
  H   H298      1.0  0.18458601722955506  0.5818755171870016  0.9622570013670173  1.0000
  H   H299      1.0  0.16226960985052633  0.6135180463409146  0.9735665945161145  1.0000
  H   H300      1.0  0.156251619064603  0.5744935490795956  0.9947156486402898  1.0000
  N   N10       1.0  0.8601621037079863  0.827405193219535  0.5628133168097089  1.0000
  C   C325      1.0  0.8324720951470626  0.8210676694174913  0.566910011669963  1.0000
  C   C326      1.0  0.8738872178859857  0.8115855215573415  0.5991809283394527  1.0000
  C   C327      1.0  0.8643268237629401  0.8617775774120433  0.5648704015570409  1.0000
  C   C328      1.0  0.8699978169599126  0.8151789917287364  0.5204184005845802  1.0000
  H   H301      1.0  0.824094117318231  0.8318919811730181  0.5970827759760847  1.0000
  H   H302      1.0  0.8286782499617872  0.7952687956475563  0.5688712940942077  1.0000
  H   H303      1.0  0.8217144096341583  0.8309365120208072  0.5385610354101346  1.0000
  H   H304      1.0  0.8949593712686641  0.8146125855856349  0.5960259370953392  1.0000
  H   H305      1.0  0.8677549891571282  0.8211462632865987  0.6316325362809591  1.0000
  H   H306      1.0  0.8703717654235195  0.7857323769099127  0.5997840526004666  1.0000
  H   H307      1.0  0.8850257254011838  0.8673837507901702  0.5618360026211452  1.0000
  H   H308      1.0  0.8571981532867725  0.8715319094407422  0.5967757053269829  1.0000
  H   H309      1.0  0.8540727980567426  0.8746035624463122  0.5381873181225687  1.0000
  H   H310      1.0  0.8910371448272058  0.8185011416409328  0.5168798188384739  1.0000
  H   H311      1.0  0.8605868426201477  0.8270383668610094  0.4920658237829588  1.0000
  H   H312      1.0  0.866626679139168  0.789403680923093  0.5177519127657229  1.0000
  N   N11       1.0  0.30514002331245577  0.6418328511051968  0.2597373468005405  1.0000
  C   C329      1.0  0.2905929626525133  0.6126118984585996  0.2533658266103325  1.0000
  C   C330      1.0  0.28729603753440613  0.6691879249212553  0.25961705308479543  1.0000
  C   C331      1.0  0.32425867999462804  0.6454636529585939  0.2237974300098576  1.0000
  C   C332      1.0  0.31846883469556925  0.6401110799811837  0.30223116224489427  1.0000
  H   H313      1.0  0.27596756486366797  0.6092890513572392  0.2798737590034554  1.0000
  H   H314      1.0  0.30340287570327396  0.591454488047102  0.2529696573463589  1.0000
  H   H315      1.0  0.2803434140160042  0.6132397764969009  0.22149894317561808  1.0000
  H   H316      1.0  0.2976963991790615  0.6916828331173109  0.26183897093035585  1.0000
  H   H317      1.0  0.2760761224704145  0.6705564194325747  0.2288726663969905  1.0000
  H   H318      1.0  0.2734354975034489  0.6682413938707549  0.28767072344118394  1.0000
  H   H319      1.0  0.3149993576118301  0.6468621008914175  0.19114650780768475  1.0000
  H   H320      1.0  0.33803023118914743  0.6252554507374358  0.22287946429571967  1.0000
  H   H321      1.0  0.33541815270198344  0.6674621476552973  0.2274352155438853  1.0000
  H   H322      1.0  0.33067762937879563  0.6610745054524366  0.30688748793265147  1.0000
  H   H323      1.0  0.33118749809216397  0.6189418887775399  0.30443067590316325  1.0000
  H   H324      1.0  0.3047357353989075  0.6393488892938567  0.33054069865004654  1.0000
  N   N12       1.0  0.6778712215270262  0.9237131576806067  0.920323432662224  1.0000
  C   C333      1.0  0.6945872048770076  0.9415622496863442  0.8896530999828284  1.0000
  C   C334      1.0  0.6802862722508237  0.9363926625501593  0.9651607920887504  1.0000
  C   C335      1.0  0.6854758294294663  0.8900073516501824  0.9204879548323935  1.0000
  C   C336      1.0  0.6510616919536253  0.9268360003088144  0.9059963584458275  1.0000
  H   H325      1.0  0.6941450959944688  0.9318723854814565  0.8557935691802874  1.0000
  H   H326      1.0  0.714813947810906  0.9407544480304849  0.9002843966621374  1.0000
  H   H327      1.0  0.6887797855487974  0.9668828889409529  0.8877967504980383  1.0000
  H   H328      1.0  0.7004195455473984  0.9348670860385639  0.976605570254275  1.0000
  H   H329      1.0  0.6740378661382745  0.9615532440123731  0.9667579400002433  1.0000
  H   H330      1.0  0.6684245029275053  0.9229508120509222  0.9893798911838362  1.0000
  H   H331      1.0  0.6847036840224505  0.8797663665590477  0.8870112535233691  1.0000
  H   H332      1.0  0.6728010336313378  0.8759019254415015  0.9426528738371779  1.0000
  H   H333      1.0  0.7052749611890382  0.8866035697832751  0.9325461944286811  1.0000
  H   H334      1.0  0.6379006491167551  0.9134880670058679  0.9282231358263451  1.0000
  H   H335      1.0  0.6486611768765606  0.9176601972860513  0.8721868411032431  1.0000
  H   H336      1.0  0.6445104890975653  0.9518945048440415  0.9060452303095099  1.0000
  N   N13       1.0  0.9805577408113112  0.7100786674162191  0.3081588744695119  1.0000
  C   C337      1.0  0.9988779620352657  0.7085216340068878  0.3447089975602198  1.0000
  C   C338      1.0  0.9541284405056334  0.7106835791607601  0.3261914514797266  1.0000
  C   C339      1.0  0.9841401521719442  0.6821333200555383  0.2799639961420911  1.0000
  C   C340      1.0  0.985100973179172  0.7389749435340244  0.28170520989122183  1.0000
  H   H337      1.0  0.019038448728784463  0.707827703214766  0.3324754431543499  1.0000
  H   H338      1.0  0.9959335338752993  0.6871938989496593  0.3657410258400341  1.0000
  H   H339      1.0  0.9968287549445363  0.7294091562772534  0.3664882132201055  1.0000
  H   H340      1.0  0.9507685950976477  0.7312432075469135  0.348095148981739  1.0000
  H   H341      1.0  0.9397785210385162  0.71203373675076  0.2995349520507374  1.0000
  H   H342      1.0  0.9499381472990495  0.6888869897825052  0.34560114836675027  1.0000
  H   H343      1.0  0.9706286558395919  0.6827612709450366  0.25206363386711045  1.0000
  H   H344      1.0  0.9805721295694717  0.6598199069531598  0.2985594085426117  1.0000
  H   H345      1.0  0.003823648592664819  0.6808751969726636  0.26558844163962936  1.0000
  H   H346      1.0  0.971671322889394  0.7409456302321596  0.2537300036353824  1.0000
  H   H347      1.0  0.004770923569930918  0.7390465498515847  0.26711030493658816  1.0000
  H   H348      1.0  0.9826902037202503  0.7606024730844724  0.3018459387174765  1.0000
  N   N14       1.0  0.32472620334721325  0.33463416756311115  0.6869425751141884  1.0000
  C   C341      1.0  0.2975826718017806  0.32570487839827444  0.6836510922813155  1.0000
  C   C342      1.0  0.33267429563025147  0.3322467481078545  0.7333131898493681  1.0000
  C   C343      1.0  0.3278846640194201  0.367439997896721  0.6710311833450691  1.0000
  C   C344      1.0  0.3407153486299101  0.31317671679747  0.6597417672786232  1.0000
  H   H349      1.0  0.29088281403275723  0.3274973788569304  0.6491161468589483  1.0000
  H   H350      1.0  0.28498214133457367  0.3413025729627223  0.7040821543690883  1.0000
  H   H351      1.0  0.2944952668557263  0.3010246944757583  0.6951014689933314  1.0000
  H   H352      1.0  0.33049494005711566  0.3078342011942119  0.7465054811344163  1.0000
  H   H353      1.0  0.3530140733231925  0.3390103811162576  0.7371260447316131  1.0000
  H   H354      1.0  0.3208789118638918  0.3481254329322359  0.7547079273392379  1.0000
  H   H355      1.0  0.3481681161983194  0.37492199132799214  0.6724952100499305  1.0000
  H   H356      1.0  0.31624670837460694  0.3843029749762684  0.6910439267626917  1.0000
  H   H357      1.0  0.3217272901273102  0.37021566877997913  0.6363735100202675  1.0000
  H   H358      1.0  0.3350968584908304  0.3143761326803544  0.6246351290694963  1.0000
  H   H359      1.0  0.3387631744880368  0.2881707158470513  0.6706389670642278  1.0000
  H   H360      1.0  0.36132760634779953  0.3192933318938574  0.6611245321336682  1.0000
  N   N15       1.0  0.7192318131778371  0.986694388983023  0.2199489717487466  1.0000
  C   C345      1.0  0.7462521045568596  0.991986455151552  0.20721900938966842  1.0000
  C   C346      1.0  0.705751634089567  0.017375552541803122  0.2248299356934862  1.0000
  C   C347      1.0  0.7182491020582087  0.9691655140586389  0.2621642227222136  1.0000
  C   C348      1.0  0.7066693183872961  0.9681847708620938  0.18565156470629574  1.0000
  H   H361      1.0  0.7562223353157979  0.006371920454054656  0.2319174901255152  1.0000
  H   H362      1.0  0.7478734087359761  0.0046251639785686045  0.17520352550853802  1.0000
  H   H363      1.0  0.7570222760192133  0.9692861464242803  0.20386853897844381  1.0000
  H   H364      1.0  0.714379257817152  0.03185054694442502  0.25090509012264306  1.0000
  H   H365      1.0  0.7064653147303074  0.03145027145440782  0.19377933502718392  1.0000
  H   H366      1.0  0.685162297191127  0.014122180978613173  0.2334976681112675  1.0000
  H   H367      1.0  0.7272931651975751  0.9453384079768751  0.25915975956571624  1.0000
  H   H368      1.0  0.698233848521635  0.9656819305311057  0.2736067222307814  1.0000
  H   H369      1.0  0.7282860109888617  0.9819111451086069  0.28846852856613214  1.0000
  H   H370      1.0  0.7165292941280302  0.9450980919632451  0.1805309472778791  1.0000
  H   H371      1.0  0.7065798605755423  0.9810044624630704  0.15355411728161616  1.0000
  H   H372      1.0  0.6864489750986811  0.9630486448618746  0.19473135074781922  1.0000
  N   N16       1.0  0.7991180806561635  0.6186080641432579  0.6649430002254206  1.0000
  C   C349      1.0  0.7835752943110408  0.6397278568549694  0.693393535907401  1.0000
  C   C350      1.0  0.8003106534859786  0.586694684078383  0.6849578979875607  1.0000
  C   C351      1.0  0.8252769737317113  0.6311520949064214  0.6602303040201567  1.0000
  C   C352      1.0  0.7873088167229193  0.6169589113841437  0.6211702882855116  1.0000
  H   H373      1.0  0.7821939540635309  0.663997408538349  0.6790752214721104  1.0000
  H   H374      1.0  0.7920374246065377  0.641878672749979  0.7265601037167587  1.0000
  H   H375      1.0  0.7636991805397673  0.6310238440120703  0.6977064315365191  1.0000
  H   H376      1.0  0.8123688978799668  0.5703375185189578  0.6648746454241152  1.0000
  H   H377      1.0  0.8086951993017156  0.5871331997354123  0.7183523051742139  1.0000
  H   H378      1.0  0.7809842142856097  0.5761067805276463  0.6879979802302205  1.0000
  H   H379      1.0  0.8249324055840709  0.6554689442187366  0.646129187932567  1.0000
  H   H380      1.0  0.8374275713947493  0.6162701322099392  0.6381098006559408  1.0000
  H   H381      1.0  0.8349570071724944  0.6322829894377329  0.6924815521721276  1.0000
  H   H382      1.0  0.786128581291429  0.6406836681245459  0.6051629137072282  1.0000
  H   H383      1.0  0.7675254815153659  0.6076627378676949  0.6233947366878738  1.0000
  H   H384      1.0  0.7985477619819737  0.6013611953025221  0.5987284185331028  1.0000
  N   N17       1.0  0.8345870983495721  0.10023708818918564  0.666733429901893  1.0000
  C   C353      1.0  0.8136968531003999  0.09323852664286547  0.698485910989908  1.0000
  C   C354      1.0  0.8368839293155815  0.13479738308003442  0.6612570701225317  1.0000
  C   C355      1.0  0.8287910449035083  0.0860700992193475  0.6239051753340088  1.0000
  C   C356      1.0  0.8589148383032879  0.08682391004438306  0.6831474904965775  1.0000
  H   H385      1.0  0.8109242460706063  0.06734341351109929  0.7025404953706854  1.0000
  H   H386      1.0  0.7951501933602055  0.10352252202011858  0.6873609409909538  1.0000
  H   H387      1.0  0.8175667621735119  0.10312477813529619  0.7314198895363806  1.0000
  H   H388      1.0  0.8187028848054138  0.14577586072338145  0.6495872370677829  1.0000
  H   H389      1.0  0.8416947467183598  0.1464454716250616  0.6926261822423292  1.0000
  H   H390      1.0  0.8520372319170447  0.14108840599055994  0.6366842405608939  1.0000
  H   H391      1.0  0.8261460100985479  0.060078456435235905  0.6267822305392888  1.0000
  H   H392      1.0  0.8442368119353468  0.09048654735736616  0.5991287331649519  1.0000
  H   H393      1.0  0.8108526580273543  0.09623704790887411  0.6103846960956568  1.0000
  H   H394      1.0  0.8750627232195987  0.09179175839097264  0.6599260170563775  1.0000
  H   H395      1.0  0.8577899904037137  0.06073968542605024  0.6874231432720513  1.0000
  H   H396      1.0  0.8638708240186277  0.09695412972433903  0.7155011699148143  1.0000
  N   N18       1.0  0.11037992348463344  0.4534579442769465  0.27305448522719206  1.0000
  C   C357      1.0  0.13083613226205593  0.4613092045900369  0.24090963175981714  1.0000
  C   C358      1.0  0.09639374932975175  0.4256229400347121  0.2577875711536525  1.0000
  C   C359      1.0  0.0925150346891157  0.4806150980598886  0.27729402142529436  1.0000
  C   C360      1.0  0.12171487426397931  0.4462459219104997  0.3163031271739857  1.0000
  H   H397      1.0  0.14166847808658511  0.4823992294868047  0.25092831225178325  1.0000
  H   H398      1.0  0.12279339776538634  0.46638275149468017  0.20788237848757923  1.0000
  H   H399      1.0  0.14477664952395397  0.4414242476566716  0.23699347633131024  1.0000
  H   H400      1.0  0.08216403973871911  0.41752421465691253  0.282875065311629  1.0000
  H   H401      1.0  0.08590773776178984  0.43087510051214944  0.22687705417625914  1.0000
  H   H402      1.0  0.1095799722222548  0.405405639925664  0.2507748570973935  1.0000
  H   H403      1.0  0.07761115274843444  0.476032822732376  0.3028646267093894  1.0000
  H   H404      1.0  0.08246888046972001  0.4857456104849282  0.24591330102483064  1.0000
  H   H405      1.0  0.10255933434843523  0.5024016832931356  0.2868619430550501  1.0000
  H   H406      1.0  0.10661638849432786  0.44029708474035917  0.3412529371534514  1.0000
  H   H407      1.0  0.1324067937732354  0.4667020768737321  0.328951590180302  1.0000
  H   H408      1.0  0.13516305204001  0.42571719395405044  0.3143770019820244  1.0000
  N   N19       1.0  0.11905824145073263  0.7921648109056861  0.06580304526496782  1.0000
  C   C361      1.0  0.11931072746165583  0.7573041387919982  0.06461311056738173  1.0000
  C   C362      1.0  0.1401413301577008  0.8043469696335382  0.03782103012754212  1.0000
  C   C363      1.0  0.12255486139700311  0.8025655730843088  0.11152117405858324  1.0000
  C   C364      1.0  0.09431591212545687  0.8044273073469599  0.04935840598503005  1.0000
  H   H409      1.0  0.10397557258434742  0.747169737780875  0.08595658734930844  1.0000
  H   H410      1.0  0.13795114481879356  0.7472352643806651  0.0757553263648667  1.0000
  H   H411      1.0  0.1163628614954082  0.7485659744344169  0.03074360981215185  1.0000
  H   H412      1.0  0.13825244085168675  0.7967435962487217  0.0031251482485190607  1.0000
  H   H413      1.0  0.14054102972337357  0.8305826205444555  0.0377061120025901  1.0000
  H   H414      1.0  0.15911224882884278  0.795644810789822  0.04945824091565365  1.0000
  H   H415      1.0  0.141073610606554  0.7936720772170484  0.12486148877480656  1.0000
  H   H416      1.0  0.10697822202433271  0.793763521380919  0.13359499618667045  1.0000
  H   H417      1.0  0.12252793709494725  0.8287697583561302  0.11366830827450701  1.0000
  H   H418      1.0  0.09364598274400393  0.8306706320166961  0.048711957824069334  1.0000
  H   H419      1.0  0.07797130732075219  0.7963423047370928  0.07023858678092787  1.0000
  H   H420      1.0  0.09068499231139016  0.796388707948329  0.01529169422183152  1.0000
  N   N20       1.0  0.43832842785125004  0.07685782901041589  0.953012110757145  1.0000
  C   C365      1.0  0.4593198354837651  0.05507070697520033  0.9397562996145125  1.0000
  C   C366      1.0  0.4351438992143438  0.07572839841822053  0.0013564518202704434  1.0000
  C   C367      1.0  0.41432553521042237  0.06732341074029359  0.9321436255139512  1.0000
  C   C368      1.0  0.4444783543870174  0.10935319421151245  0.9388023767902544  1.0000
  H   H421      1.0  0.4778596895310212  0.06213656480337737  0.9540978341118203  1.0000
  H   H422      1.0  0.46191998288384156  0.05460855265825493  0.9034213367231283  1.0000
  H   H423      1.0  0.4555232449351346  0.03045115187514913  0.9511136191372661  1.0000
  H   H424      1.0  0.45333476831121966  0.0811573174095286  0.01806859228497326  1.0000
  H   H425      1.0  0.420478646503525  0.09314078780982712  0.012910244606890053  1.0000
  H   H426      1.0  0.4288737098398442  0.05198825933729468  0.012940865144200675  1.0000
  H   H427      1.0  0.39790759197101233  0.0826481509732422  0.9425611832701786  1.0000
  H   H428      1.0  0.409244015492259  0.042773837893703044  0.941393814622504  1.0000
  H   H429      1.0  0.41581802097662496  0.06836190456841208  0.8956757025803261  1.0000
  H   H430      1.0  0.4291708418570688  0.126414440922966  0.9490081316543972  1.0000
  H   H431      1.0  0.4468681118181186  0.11112395381072036  0.9024896823539362  1.0000
  H   H432      1.0  0.4625662528252195  0.11729390292552051  0.9534631723005551  1.0000
  N   N21       1.0  0.5651966723256806  0.9328066981305014  0.3128345897206385  1.0000
  C   C369      1.0  0.5872588620689381  0.9156352648791073  0.33201496060629154  1.0000
  C   C370      1.0  0.550371422682589  0.9111386020716724  0.2855352385132659  1.0000
  C   C371      1.0  0.5746157356649138  0.9593502047979514  0.28545150405761965  1.0000
  C   C372      1.0  0.5484242395651421  0.9451052391322701  0.34841947037903404  1.0000
  H   H433      1.0  0.5990574526761956  0.9313881168142855  0.35236353717611985  1.0000
  H   H434      1.0  0.6001938171267236  0.9058017764756894  0.30601513269954994  1.0000
  H   H435      1.0  0.5809822297510877  0.8957172892137898  0.35350327776487755  1.0000
  H   H436      1.0  0.5339608295019878  0.9234777439311855  0.26957690331048717  1.0000
  H   H437      1.0  0.5622786469909133  0.9008113217242146  0.25870369665494175  1.0000
  H   H438      1.0  0.5426408937284583  0.8911499103781457  0.3053834696694909  1.0000
  H   H439      1.0  0.5585909124271468  0.9729288689749988  0.2703798877894008  1.0000
  H   H440      1.0  0.5873062963937297  0.9509278170089571  0.2582160763203436  1.0000
  H   H441      1.0  0.5860170476943313  0.9760270338858457  0.30509793973028065  1.0000
  H   H442      1.0  0.5585597361160672  0.9620646048907879  0.3693502739405218  1.0000
  H   H443      1.0  0.5415523015698572  0.9258249017953707  0.3705667916480121  1.0000
  H   H444      1.0  0.531310527293467  0.9576215386480128  0.3352102227876458  1.0000
  N   N22       1.0  0.3320460424483304  0.3513005725501473  0.14076441004140344  1.0000
  C   C373      1.0  0.3121370843319245  0.3659740758549687  0.1129108961668498  1.0000
  C   C374      1.0  0.3536445585911594  0.34040706120910386  0.1127941472177207  1.0000
  C   C375      1.0  0.3212246072004774  0.3240234084172252  0.16490965842349292  1.0000
  C   C376      1.0  0.3413302661348628  0.37467669332159437  0.17229193730475836  1.0000
  H   H445      1.0  0.2955489606478412  0.3747855916385814  0.13278115648234295  1.0000
  H   H446      1.0  0.30478794251860114  0.34886503874444175  0.08878318794659279  1.0000
  H   H447      1.0  0.319767219349477  0.38641699530590856  0.09373745379315881  1.0000
  H   H448      1.0  0.36155344533160994  0.35997516999818774  0.09230460647636217  1.0000
  H   H449      1.0  0.3695762677914264  0.330622211883758  0.13280509213165373  1.0000
  H   H450      1.0  0.34765143416319  0.32145157035196537  0.09027704488886677  1.0000
  H   H451      1.0  0.31457654323812906  0.3056750767832201  0.14185776086705842  1.0000
  H   H452      1.0  0.3046695270794639  0.33120724181101746  0.18602880677375197  1.0000
  H   H453      1.0  0.3357802181930371  0.3125789980120034  0.18639679414908056  1.0000
  H   H454      1.0  0.3564145829596842  0.36419609803894043  0.19374117738276195  1.0000
  H   H455      1.0  0.3255364291498674  0.38359680871485624  0.1938797896028891  1.0000
  H   H456      1.0  0.349812122277157  0.39536334107646337  0.15483882762824466  1.0000
  N   N23       1.0  0.7164439840788431  0.9591292860800419  0.5360000665585355  1.0000
  C   C377      1.0  0.7380444692899479  0.9650834001220676  0.505305574303329  1.0000
  C   C378      1.0  0.707402550713628  0.989321822484464  0.5550086787312017  1.0000
  C   C379      1.0  0.7249973390709263  0.9377970882695963  0.5716981238957449  1.0000
  C   C380      1.0  0.6953830353651487  0.9442917787080674  0.5121130461875547  1.0000
  H   H457      1.0  0.7322266376408857  0.9810117546558892  0.4778191652201285  1.0000
  H   H458      1.0  0.745519495230665  0.9427491952614239  0.49078266973479373  1.0000
  H   H459      1.0  0.7542143354713248  0.9763781405231247  0.5222985687327137  1.0000
  H   H460      1.0  0.7228537211283512  0.0009831725503159916  0.5735175050413801  1.0000
  H   H461      1.0  0.7007797842909833  0.006077002760651817  0.5290768324847401  1.0000
  H   H462      1.0  0.6910856964940926  0.9856935672955014  0.5783640345517993  1.0000
  H   H463      1.0  0.7404391846169873  0.9484966247261111  0.5910969128509367  1.0000
  H   H464      1.0  0.73236258965206  0.9148869948835117  0.5588670974573973  1.0000
  H   H465      1.0  0.7091045242169682  0.9325211084537831  0.5949875818792265  1.0000
  H   H466      1.0  0.6783942098110834  0.9405066052519967  0.5339083197486287  1.0000
  H   H467      1.0  0.701242991229805  0.9209135945259003  0.4986954408978942  1.0000
  H   H468      1.0  0.6891149863285442  0.9591174120315952  0.48378814562536687  1.0000
  N   N24       1.0  0.7802557944492838  0.32233999546290243  0.6185956115377413  1.0000
  C   C381      1.0  0.752290988564112  0.32633221107682286  0.6244938579638191  1.0000
  C   C382      1.0  0.7901647847571585  0.3477506784671904  0.5896705235533799  1.0000
  C   C383      1.0  0.7858191471536595  0.2914601959344196  0.5983030370847658  1.0000
  C   C384      1.0  0.7927966293893777  0.32368658552842544  0.6617709459960891  1.0000
  H   H469      1.0  0.7442105372850806  0.3073231527876683  0.6458521865889622  1.0000
  H   H470      1.0  0.7422867530043107  0.32504792631081153  0.5924664083691612  1.0000
  H   H471      1.0  0.7472852006992209  0.34942564514173685  0.6396101215475688  1.0000
  H   H472      1.0  0.8112181403671992  0.3452906663354588  0.5843959278093204  1.0000
  H   H473      1.0  0.781234711106782  0.3473210725447046  0.556708041947257  1.0000
  H   H474      1.0  0.7864903648344699  0.371465581716437  0.6039783148239408  1.0000
  H   H475      1.0  0.8066771782299561  0.2876621353802309  0.5934915813918642  1.0000
  H   H476      1.0  0.7767412692506407  0.28958149569417585  0.5655754355010397  1.0000
  H   H477      1.0  0.7786333862686785  0.2716217444151406  0.6190828509392772  1.0000
  H   H478      1.0  0.7863197183123325  0.3042893416423801  0.6840111070178594  1.0000
  H   H479      1.0  0.7886796460444724  0.3464561230320686  0.6785016056841388  1.0000
  H   H480      1.0  0.8139717030643366  0.3213775808917363  0.6582351460437412  1.0000
  N   N25       1.0  0.550522312723108  0.024235121462700567  0.06164324532053644  1.0000
  C   C385      1.0  0.5753329730519077  0.03329340528512792  0.08012946557958056  1.0000
  C   C386      1.0  0.536836472795034  0.05276482364532398  0.045832374379001006  1.0000
  C   C387      1.0  0.5348643158962082  0.00844185499240968  0.09593590692681518  1.0000
  C   C388      1.0  0.5549742605244663  0.002564706890510582  0.024466867751947285  1.0000
  H   H481      1.0  0.5867456797446297  0.012234087663677728  0.09054730602459449  1.0000
  H   H482      1.0  0.5727742404050115  0.04873405737626002  0.10922796669529583  1.0000
  H   H483      1.0  0.5870948637692263  0.04648000055066848  0.055560667543960385  1.0000
  H   H484      1.0  0.532793264573688  0.06964114124726462  0.07288309963469408  1.0000
  H   H485      1.0  0.5482334660120145  0.06548960950089322  0.020284209473381054  1.0000
  H   H486      1.0  0.5182101889731802  0.04678256442490092  0.03083527998400637  1.0000
  H   H487      1.0  0.5319545446408959  0.023630668015873768  0.12520169145608878  1.0000
  H   H488      1.0  0.543989720390646  0.9859711507778294  0.10717090270767518  1.0000
  H   H489      1.0  0.5156037952782375  0.002651610084550837  0.08343897159407332  1.0000
  H   H490      1.0  0.5666088627251208  0.013858684632447773  0.9979240618561712  1.0000
  H   H491      1.0  0.536605310431641  0.9952990750536955  0.00970484178723785  1.0000
  H   H492      1.0  0.5653734188324662  0.9806897744681675  0.03498363688401729  1.0000
  N   N26       1.0  0.9226321430005747  0.4351978758036282  0.8277210345492062  1.0000
  C   C389      1.0  0.9185173158928064  0.42766203211068915  0.874832721705777  1.0000
  C   C390      1.0  0.9146593065304721  0.4082818775586892  0.800833677389613  1.0000
  C   C391      1.0  0.9500341103720906  0.4414162702083313  0.8192829209869597  1.0000
  C   C392      1.0  0.9073043210333394  0.46347544366116566  0.8157701049299521  1.0000
  H   H493      1.0  0.9297475028058292  0.40641356900137243  0.8851247504649807  1.0000
  H   H494      1.0  0.8980369305040178  0.4228724029174037  0.882178222129468  1.0000
  H   H495      1.0  0.9241617330418938  0.4475327472758426  0.8961514150714801  1.0000
  H   H496      1.0  0.8939641651052985  0.4032244552329227  0.8056908317474746  1.0000
  H   H497      1.0  0.9178650342042605  0.4131057626613712  0.7651522424645818  1.0000
  H   H498      1.0  0.9254973296304151  0.38634500229739077  0.8093067377617768  1.0000
  H   H499      1.0  0.9537295433835228  0.44721417109574907  0.7839396058762869  1.0000
  H   H500      1.0  0.9621553135922833  0.4205106298116769  0.8277958341873876  1.0000
  H   H501      1.0  0.9567161059039611  0.46161545802661014  0.8389982767117882  1.0000
  H   H502      1.0  0.8864947150943178  0.4594376135268737  0.8211747904016792  1.0000
  H   H503      1.0  0.9101648887419238  0.4699925722426812  0.7804803099168022  1.0000
  H   H504      1.0  0.9125340246850893  0.48419171974695907  0.8357679130011574  1.0000
  N   N27       1.0  0.47417604504314165  0.8681096568551457  0.5987334344686405  1.0000
  C   C393      1.0  0.4596569361291254  0.8898893264127118  0.5699781058587774  1.0000
  C   C394      1.0  0.48065610796658437  0.8390712171412191  0.574301286375263  1.0000
  C   C395      1.0  0.4583909161902985  0.8600705664009535  0.6378755315342566  1.0000
  C   C396      1.0  0.4978803248479031  0.8835785573527987  0.6126499532253072  1.0000
  H   H505      1.0  0.454007858539792  0.9117040399070461  0.5877873214546259  1.0000
  H   H506      1.0  0.4418177521336676  0.8790044832245472  0.5581480973031411  1.0000
  H   H507      1.0  0.4710989003926184  0.8970118933516963  0.5404942522270728  1.0000
  H   H508      1.0  0.491712664003779  0.8220494172447372  0.5949129823003388  1.0000
  H   H509      1.0  0.46302598944026774  0.8269929736006261  0.5635213721537029  1.0000
  H   H510      1.0  0.492386453929846  0.8444137674685223  0.544366290431422  1.0000
  H   H511      1.0  0.43972684435849346  0.8498202197233685  0.6284548169433536  1.0000
  H   H512      1.0  0.45399550650908876  0.8813514856047995  0.6578848395555613  1.0000
  H   H513      1.0  0.46828863197004306  0.8427020559848816  0.6595987267083232  1.0000
  H   H514      1.0  0.5099785118076435  0.8906521544295489  0.5838368536313764  1.0000
  H   H515      1.0  0.5095474066869176  0.8678019672506009  0.6340952335671292  1.0000
  H   H516      1.0  0.49346397404013903  0.905471215622026  0.6314722118814107  1.0000
  N   N28       1.0  0.6750846723029962  0.17459471175441646  0.6381884126740406  1.0000
  C   C397      1.0  0.6732918123658409  0.17574370799157357  0.5897565460832696  1.0000
  C   C398      1.0  0.6994019397041923  0.1590144197280005  0.6505920601255202  1.0000
  C   C399      1.0  0.6534723929156445  0.15651178224064455  0.6568841340324472  1.0000
  C   C400      1.0  0.6742467557224461  0.2070524984662811  0.6554895998925635  1.0000
  H   H517      1.0  0.6896984242909859  0.188614747762288  0.5747952136908461  1.0000
  H   H518      1.0  0.6555044780170814  0.18816083462246389  0.5790196063655443  1.0000
  H   H519      1.0  0.6734037468773819  0.15166575246961225  0.5755268936910427  1.0000
  H   H520      1.0  0.7017002365816585  0.15805495651821974  0.6868666618925369  1.0000
  H   H521      1.0  0.70046304824212  0.13432508711911118  0.6384672552742283  1.0000
  H   H522      1.0  0.7162004482315937  0.1716281405205169  0.6364156106093211  1.0000
  H   H523      1.0  0.6544446097323017  0.1548591879593418  0.6933677281376188  1.0000
  H   H524      1.0  0.6532181082397004  0.1320527865045813  0.6439700437033005  1.0000
  H   H525      1.0  0.634869457418802  0.16798164713719238  0.6489506224405208  1.0000
  H   H526      1.0  0.6742451889589035  0.20713920730901153  0.6920539868845357  1.0000
  H   H527      1.0  0.6566229242282643  0.2199598571342794  0.6449666492188529  1.0000
  H   H528      1.0  0.6909472955296962  0.22092186145996548  0.6435596291310368  1.0000
  N   N29       1.0  0.5619528757363155  0.24188723817028068  0.8189694072875537  1.0000
  C   C401      1.0  0.549090368614349  0.2405839150087068  0.8625284351566317  1.0000
  C   C402      1.0  0.5543568686133269  0.21446674006081867  0.7927131038432166  1.0000
  C   C403      1.0  0.589975011407704  0.2412029017405905  0.824849886382183  1.0000
  C   C404      1.0  0.5544652608246123  0.2713111690343189  0.7957343339880698  1.0000
  H   H529      1.0  0.527890858346782  0.24091149046402283  0.8596009834680409  1.0000
  H   H530      1.0  0.5545190852198795  0.2608518864174062  0.883268139665558  1.0000
  H   H531      1.0  0.554620191370965  0.218780037665231  0.8809005926598591  1.0000
  H   H532      1.0  0.562649023101296  0.21571615399592162  0.7588674767447011  1.0000
  H   H533      1.0  0.5610374859844026  0.191801732274888  0.8077816252846995  1.0000
  H   H534      1.0  0.5332254630642631  0.2133347272172327  0.7894166584881657  1.0000
  H   H535      1.0  0.6003630562294716  0.2437928670649545  0.7929000504763866  1.0000
  H   H536      1.0  0.596479604585648  0.218584319502201  0.8402096912920547  1.0000
  H   H537      1.0  0.5962718323811119  0.26050782389165045  0.8465551492191139  1.0000
  H   H538      1.0  0.5639603033030547  0.2729205393751582  0.7627153959231289  1.0000
  H   H539      1.0  0.5599670894253791  0.29252224025935913  0.814487001290574  1.0000
  H   H540      1.0  0.5334374270622075  0.2725992001932827  0.790513903795036  1.0000
  N   N30       1.0  0.9558652991610005  0.47366375734743416  0.14238768067130786  1.0000
  C   C405      1.0  0.9537774525256509  0.4989101924681974  0.17543823058927266  1.0000
  C   C406      1.0  0.9823420169577689  0.46130621983431397  0.1409899359362226  1.0000
  C   C407      1.0  0.9492777365924735  0.48652394818532163  0.0986318514961023  1.0000
  C   C408      1.0  0.9382533302781081  0.44787298901675465  0.15437317847129226  1.0000
  H   H541      1.0  0.9338024677536397  0.5079887437170417  0.17850367062638958  1.0000
  H   H542      1.0  0.9662815883700081  0.5191664894662157  0.16660095682451603  1.0000
  H   H543      1.0  0.9597495574295699  0.4903024425769977  0.20847065301548268  1.0000
  H   H544      1.0  0.9883380843019143  0.4522104133317438  0.17370529711315552  1.0000
  H   H545      1.0  0.9844715111966513  0.441704536614829  0.11730167785692165  1.0000
  H   H546      1.0  0.9959473840126455  0.4799990696457063  0.13064726994355808  1.0000
  H   H547      1.0  0.9512064009102548  0.46817509200932245  0.07285318379755966  1.0000
  H   H548      1.0  0.961912946877578  0.5064094403555287  0.08885350791561275  1.0000
  H   H549      1.0  0.9292588496373942  0.49549347252881154  0.09819962665545523  1.0000
  H   H550      1.0  0.9392958655562503  0.4285095206712189  0.12994419148622585  1.0000
  H   H551      1.0  0.9180446705751691  0.4563943673000346  0.15581328277621156  1.0000
  H   H552      1.0  0.9428652679558581  0.4374192284988587  0.18703026391578018  1.0000
  N   N31       1.0  0.07290292319809333  0.6727933174550637  0.7469480083467551  1.0000
  C   C409      1.0  0.09402921637326656  0.6895173552363012  0.7679565895759338  1.0000
  C   C410      1.0  0.08355643950552216  0.6503097021511545  0.7144994687132941  1.0000
  C   C411      1.0  0.05606762737550186  0.6958967616618513  0.7243876761251787  1.0000
  C   C412      1.0  0.05803151171052745  0.6555592031775448  0.7809805814757877  1.0000
  H   H553      1.0  0.08662683711595953  0.7065570495450201  0.7927481604499849  1.0000
  H   H554      1.0  0.10554247837180775  0.7032130006756745  0.7435045782105277  1.0000
  H   H555      1.0  0.10725667540605222  0.6729534231717968  0.7852286005067721  1.0000
  H   H556      1.0  0.09475276844788927  0.6627157992123159  0.6882643601378307  1.0000
  H   H557      1.0  0.09648897333444584  0.6326055134490092  0.730203041888342  1.0000
  H   H558      1.0  0.0681462831889228  0.6372755194392973  0.6978535417973585  1.0000
  H   H559      1.0  0.06682775326808921  0.709837034965188  0.6991599705611558  1.0000
  H   H560      1.0  0.047391017160532956  0.7130166727016616  0.747943566102022  1.0000
  H   H561      1.0  0.04018104308025827  0.6841771374081344  0.7072641895797699  1.0000
  H   H562      1.0  0.04189988176805226  0.6425721114559315  0.7664896711058712  1.0000
  H   H563      1.0  0.04980010770423804  0.6719140616747045  0.8060773953232567  1.0000
  H   H564      1.0  0.07020448683056979  0.6381135236716678  0.7990041849538287  1.0000
  N   N32       1.0  0.09299430248355844  0.41762561594300374  0.6410993209343273  1.0000
  C   C413      1.0  0.09076224532847355  0.4000914164446447  0.5996150914062697  1.0000
  C   C414      1.0  0.10855732045982314  0.4460844737383479  0.6334357235424554  1.0000
  C   C415      1.0  0.10544696322181801  0.39714978754654384  0.674319323360066  1.0000
  C   C416      1.0  0.06719832973734086  0.427138085439411  0.6569474666104983  1.0000
  H   H565      1.0  0.0781003095692474  0.3792941041948479  0.6036834622933668  1.0000
  H   H566      1.0  0.10967412006038835  0.3912924275792787  0.587609657375411  1.0000
  H   H567      1.0  0.08237553548909848  0.4151595347118278  0.5732188716649635  1.0000
  H   H568      1.0  0.12855860792059293  0.4397060228922516  0.6240175494383714  1.0000
  H   H569      1.0  0.10069116924212418  0.46112819219115897  0.6064513614350091  1.0000
  H   H570      1.0  0.10950251881647177  0.46076737424360864  0.6634341194425509  1.0000
  H   H571      1.0  0.1074816287221605  0.4095672984383943  0.7060989682884555  1.0000
  H   H572      1.0  0.12501910000971117  0.38964150537007697  0.6631972724583435  1.0000
  H   H573      1.0  0.09422486827193399  0.3753904215184606  0.6807059274418756  1.0000
  H   H574      1.0  0.05755304306197129  0.44291558331205444  0.632694112230835  1.0000
  H   H575      1.0  0.06793667303745243  0.4399005844925907  0.688638127564622  1.0000
  H   H576      1.0  0.05462869881285548  0.4063196263168035  0.6618557276330752  1.0000
  N   N33       1.0  0.797780468199999  0.8154210979441643  0.20946785080710814  1.0000
  C   C417      1.0  0.7802707718890429  0.8148649176830791  0.17176110515067275  1.0000
  C   C418      1.0  0.8120914600269487  0.7851629596334211  0.2121088519681297  1.0000
  C   C419      1.0  0.782771982692073  0.8200162774386767  0.25050761661051824  1.0000
  C   C420      1.0  0.815958171709968  0.8416218192858077  0.20351444402557795  1.0000
  H   H577      1.0  0.7662842233598132  0.7953842363014927  0.17498122534583746  1.0000
  H   H578      1.0  0.7909565797071163  0.8117309752556898  0.14018661421304568  1.0000
  H   H579      1.0  0.7690627257865721  0.8372790528414479  0.16902875495277347  1.0000
  H   H580      1.0  0.8233954883729419  0.7807309235365977  0.1815329723192121  1.0000
  H   H581      1.0  0.8258403411841898  0.7848825710445902  0.23970020486178575  1.0000
  H   H582      1.0  0.7990299234450087  0.7648624995501014  0.21686779253320143  1.0000
  H   H583      1.0  0.795318837998628  0.8201405380761057  0.2797264187169742  1.0000
  H   H584      1.0  0.7684490162052937  0.8010660661841109  0.25551489277856815  1.0000
  H   H585      1.0  0.7720511944805485  0.8428579896853118  0.2499398426568348  1.0000
  H   H586      1.0  0.8278834798893724  0.8386744451821968  0.17321537437476237  1.0000
  H   H587      1.0  0.829253004044688  0.8430989860854738  0.23160443228379987  1.0000
  H   H588      1.0  0.8057745201564354  0.8647831832550988  0.20061229732033545  1.0000
  N   N34       1.0  0.2161647919945743  0.7632696801572575  0.6083500884596422  1.0000
  C   C421      1.0  0.23942741733295314  0.7621170344351058  0.6354211030306433  1.0000
  C   C422      1.0  0.22299586292420887  0.7734845163076014  0.5631478248136103  1.0000
  C   C423      1.0  0.19743440668759032  0.7858823130968181  0.6274954950991677  1.0000
  C   C424      1.0  0.20474298745339492  0.7315890867050823  0.6072004641331762  1.0000
  H   H589      1.0  0.24886816093177114  0.7855109452464407  0.6363066628619147  1.0000
  H   H590      1.0  0.25386574000553924  0.7451356855009558  0.621917246999794  1.0000
  H   H591      1.0  0.23503544972232046  0.7547785824389397  0.6698856555399191  1.0000
  H   H592      1.0  0.20573500822176907  0.7759317138507504  0.5423411391097146  1.0000
  H   H593      1.0  0.23277205230828124  0.79666318840528  0.5629102729823834  1.0000
  H   H594      1.0  0.23627560307826587  0.7562486480267193  0.5470199965619782  1.0000
  H   H595      1.0  0.1917482379169469  0.778890532807262  0.6615977470052732  1.0000
  H   H596      1.0  0.1796313477332371  0.7872682614180436  0.6077253694209687  1.0000
  H   H597      1.0  0.20540826852966695  0.8100747022105648  0.6287511467092008  1.0000
  H   H598      1.0  0.21801616032568427  0.7140375807211747  0.5916353607661138  1.0000
  H   H599      1.0  0.1868119339251554  0.7319418709087624  0.5879643447839503  1.0000
  H   H600      1.0  0.19988864301868847  0.722737749269058  0.6407945460712946  1.0000
  N   N35       1.0  0.3284444798460292  0.050433475373312664  0.6634349311684572  1.0000
  C   C425      1.0  0.34283642896119626  0.0675072141833335  0.6286924281197028  1.0000
  C   C426      1.0  0.3432871930547084  0.050137788683425555  0.704437211255562  1.0000
  C   C427      1.0  0.3242101549408146  0.017676116611487158  0.6493457650015962  1.0000
  C   C428      1.0  0.3034779436037449  0.0663007519036134  0.6711553629423975  1.0000
  H   H601      1.0  0.346297031123716  0.09243877949883639  0.6376849463433379  1.0000
  H   H602      1.0  0.3324533970033773  0.06761498958693513  0.5969892707519928  1.0000
  H   H603      1.0  0.36183493793893773  0.05614831437707357  0.6223837151721217  1.0000
  H   H604      1.0  0.3332318571078097  0.0368872511975189  0.731220226880381  1.0000
  H   H605      1.0  0.362261217304206  0.0382687864286797  0.6996366970119002  1.0000
  H   H606      1.0  0.3468018411797424  0.0744073435409951  0.7162461692031235  1.0000
  H   H607      1.0  0.3426494512301421  0.005127109613096259  0.6434228661829445  1.0000
  H   H608      1.0  0.31343901018694953  0.0168317543874259  0.6180745256439001  1.0000
  H   H609      1.0  0.31367938717605703  0.003793055912686638  0.6748955446194437  1.0000
  H   H610      1.0  0.30593904999361343  0.09111279291949348  0.6817598844235196  1.0000
  H   H611      1.0  0.29219180059438243  0.05387407069109429  0.6972183696813854  1.0000
  H   H612      1.0  0.2918521616910146  0.06680202905327715  0.6407618632396282  1.0000
  N   N36       1.0  0.6507130674948896  0.16969392187769916  0.3792273384315843  1.0000
  C   C429      1.0  0.6769490066824084  0.17559412031686716  0.39423713049411097  1.0000
  C   C430      1.0  0.6485752473996544  0.179437925597963  0.3326150531654866  1.0000
  C   C431      1.0  0.6322783952900249  0.1881691292846872  0.4062085471642326  1.0000
  C   C432      1.0  0.6451481548143713  0.1357132557721532  0.38385366251935366  1.0000
  H   H613      1.0  0.679444551921397  0.16851688664697662  0.42924261126000046  1.0000
  H   H614      1.0  0.6815700773047214  0.20107312367494945  0.39118491809157124  1.0000
  H   H615      1.0  0.6914722511090349  0.16238618731054877  0.3742834993639227  1.0000
  H   H616      1.0  0.6291323596181769  0.1749878721916145  0.3198690723885533  1.0000
  H   H617      1.0  0.6524854050806574  0.20507122652601195  0.32813812667775955  1.0000
  H   H618      1.0  0.6626955612890549  0.16656025306484912  0.31141534344709715  1.0000
  H   H619      1.0  0.6121714256922212  0.18382734606563034  0.3966696625066022  1.0000
  H   H620      1.0  0.635598748817077  0.2140113387987428  0.40290923205210044  1.0000
  H   H621      1.0  0.6338889948624867  0.1821792494253276  0.4417788179775323  1.0000
  H   H622      1.0  0.6468299542139195  0.12748036204495516  0.4185823394493759  1.0000
  H   H623      1.0  0.6585358612450154  0.12105895630941221  0.3636267301739237  1.0000
  H   H624      1.0  0.625336372937983  0.1303597718392815  0.37346457661720955  1.0000
  N   N37       1.0  0.005996765870295295  0.6543411802007733  0.017010274095270006  1.0000
  C   C433      1.0  0.987537298764805  0.6635494014578212  0.05197688783324095  1.0000
  C   C434      1.0  0.03138765381155206  0.6483433488561021  0.03641212026014817  1.0000
  C   C435      1.0  0.007883936660832092  0.6800784786135223  0.9840152794478721  1.0000
  C   C436      1.0  0.9971490382755097  0.6253691975055987  0.995609038502612  1.0000
  H   H625      1.0  0.9682389035545501  0.6686194197381145  0.03833911644249044  1.0000
  H   H626      1.0  0.993723681606963  0.685064812943294  0.06937022458973674  1.0000
  H   H627      1.0  0.9851862962865198  0.6443792416321859  0.07693452246200971  1.0000
  H   H628      1.0  0.04573595512650086  0.6411953542683873  0.010878843334521937  1.0000
  H   H629      1.0  0.038680836495364135  0.6697799846641194  0.05268087941995492  1.0000
  H   H630      1.0  0.03066809710633467  0.6290486869899587  0.06148085359497624  1.0000
  H   H631      1.0  0.021598196047486917  0.673855061060713  0.9570186266189035  1.0000
  H   H632      1.0  0.014563668234463645  0.7023000983692408  0.9989984948316377  1.0000
  H   H633      1.0  0.9890329679773667  0.6853279284445599  0.9688590350604243  1.0000
  H   H634      1.0  0.9957767546863755  0.6053647606721727  0.01950451094557404  1.0000
  H   H635      1.0  0.010474374681735954  0.6179969248148288  0.9685645069384369  1.0000
  H   H636      1.0  0.9777738602246653  0.628880130104278  0.98143325989925  1.0000
  N   N38       1.0  0.7834489692708422  0.2675403228403653  0.2692825040494228  1.0000
  C   C437      1.0  0.76019859853964  0.28590766516251037  0.281374087765989  1.0000
  C   C438      1.0  0.776266507736773  0.24096643531211992  0.24127522309423535  1.0000
  C   C439      1.0  0.7956872135668706  0.2550906495688079  0.30951420707384897  1.0000
  C   C440      1.0  0.8014712871693598  0.28801897040037855  0.24472633368844976  1.0000
  H   H637      1.0  0.7648163608337002  0.3063570733855849  0.3023185934350667  1.0000
  H   H638      1.0  0.7461946564494132  0.27110362052742093  0.2999495516143912  1.0000
  H   H639      1.0  0.7502703351932234  0.2951700581982494  0.2516572996711988  1.0000
  H   H640      1.0  0.7932323609806705  0.2265949275114104  0.23082381630804746  1.0000
  H   H641      1.0  0.7626952919902679  0.2250623684924841  0.2587223363196557  1.0000
  H   H642      1.0  0.7668208962783545  0.24953407181935397  0.21088293339865147  1.0000
  H   H643      1.0  0.8131759202207574  0.24087612706765052  0.3015105637057859  1.0000
  H   H644      1.0  0.7825176522039737  0.23941768225513513  0.3285696522863621  1.0000
  H   H645      1.0  0.801346393953254  0.27444664348212705  0.33165001768930374  1.0000
  H   H646      1.0  0.8075765727572136  0.30826033986381995  0.26487955033039784  1.0000
  H   H647      1.0  0.792640336680908  0.2978941476218724  0.21433388675507295  1.0000
  H   H648      1.0  0.8189761205644416  0.27469558858108345  0.2341914320425858  1.0000
  N   N39       1.0  0.696202301127553  0.13116126178026533  0.0059904624234277115  1.0000
  C   C441      1.0  0.6766183487437065  0.12964549302372008  0.04141271799319335  1.0000
  C   C442      1.0  0.696021484404768  0.16313471291920267  0.9861513304096131  1.0000
  C   C443      1.0  0.6904037717595146  0.10769867468542049  0.9720606937714175  1.0000
  C   C444      1.0  0.7216789790739327  0.12403105546951254  0.02439816537156947  1.0000
  H   H649      1.0  0.6761501486524693  0.1057819741965993  0.0571184641449578  1.0000
  H   H650      1.0  0.6571351253781968  0.13478922798779558  0.028837524585459073  1.0000
  H   H651      1.0  0.6803724212209774  0.14679571411718584  0.06784599975092687  1.0000
  H   H652      1.0  0.710660292360121  0.16524611954827928  0.9594293865849892  1.0000
  H   H653      1.0  0.6770394903704857  0.16911564730266382  0.9718963757883475  1.0000
  H   H654      1.0  0.7001054901069502  0.18139427223558058  0.011032522820404012  1.0000
  H   H655      1.0  0.7049757555015491  0.10773898543403826  0.9450778455890206  1.0000
  H   H656      1.0  0.6713428015238548  0.11238413420163984  0.9573447246591735  1.0000
  H   H657      1.0  0.6898043137090801  0.08339205188523513  0.9863601885808606  1.0000
  H   H658      1.0  0.7371581715376786  0.12628592741167832  0.9991580290389106  1.0000
  H   H659      1.0  0.7226757111785702  0.09951694918103415  0.03774559579276837  1.0000
  H   H660      1.0  0.7261579264162131  0.14004233525002885  0.05194985781293138  1.0000
  N   N40       1.0  0.3158012453021281  0.8056258415313255  0.4278381558284148  1.0000
  C   C445      1.0  0.3234172008118827  0.8096814790504927  0.38117018638711303  1.0000
  C   C446      1.0  0.3237027396347298  0.8334285657536645  0.453006088604938  1.0000
  C   C447      1.0  0.32832605379062624  0.7769771269424142  0.44596355946766386  1.0000
  C   C448      1.0  0.2877200490724022  0.8023204576434398  0.4313103685152887  1.0000
  H   H661      1.0  0.34450629465571736  0.812061636011358  0.3772833574761302  1.0000
  H   H662      1.0  0.31420597893120283  0.8309749170799906  0.3662327896287108  1.0000
  H   H663      1.0  0.3176778070751875  0.7891133078810227  0.36133498655225016  1.0000
  H   H664      1.0  0.3176108053480695  0.8314433789925932  0.4880807050235998  1.0000
  H   H665      1.0  0.3448754575629514  0.8360612894400496  0.4524834178723436  1.0000
  H   H666      1.0  0.31510546234341746  0.8556191236745313  0.4396547832586009  1.0000
  H   H667      1.0  0.32238666177153946  0.7727309757616393  0.4806967455982455  1.0000
  H   H668      1.0  0.3495442293553065  0.7787728546992962  0.4450295540826966  1.0000
  H   H669      1.0  0.3232202463788704  0.7556344951838432  0.4272714778163834  1.0000
  H   H670      1.0  0.28136693862094914  0.7990373874646726  0.46617392206797276  1.0000
  H   H671      1.0  0.28113063018199097  0.7815475131850668  0.41266183948111423  1.0000
  H   H672      1.0  0.2775830490481011  0.8235055885687654  0.4179629142567717  1.0000
  N   N41       1.0  0.26724140232147525  0.505110156692118  0.8248403294968882  1.0000
  C   C449      1.0  0.2723936582624766  0.5297633583421258  0.8575061556206128  1.0000
  C   C450      1.0  0.24195726430567752  0.49117058522644425  0.8342567998006305  1.0000
  C   C451      1.0  0.2872246527629591  0.4801632445006567  0.8272866712848983  1.0000
  C   C452      1.0  0.267354188349086  0.5192327621944557  0.7801849726337308  1.0000
  H   H673      1.0  0.29139663430129825  0.540693388888996  0.8516477926147134  1.0000
  H   H674      1.0  0.27232274946135904  0.5200088908795311  0.8916354264021986  1.0000
  H   H675      1.0  0.257700923033275  0.5489923728656976  0.8565850577117794  1.0000
  H   H676      1.0  0.23737437967398345  0.4727848520262513  0.8098456525473777  1.0000
  H   H677      1.0  0.2412768821495696  0.4797664294633172  0.8674087184408354  1.0000
  H   H678      1.0  0.22640207700854248  0.5093100957728411  0.8332315709834157  1.0000
  H   H679      1.0  0.2841506550554547  0.4614856500040857  0.8025070722279379  1.0000
  H   H680      1.0  0.28728252143730754  0.4683448921848841  0.8601386832151646  1.0000
  H   H681      1.0  0.30664929872274005  0.4898429606090688  0.82123966593734  1.0000
  H   H682      1.0  0.2523141441248514  0.5379134615591644  0.7767088626260855  1.0000
  H   H683      1.0  0.2636363552973871  0.5012293645554491  0.7547095897937325  1.0000
  H   H684      1.0  0.2860673830208567  0.5301646298637053  0.7718561300059958  1.0000
  N   N42       1.0  0.3166118768145298  0.8458117392126627  0.9931723714296088  1.0000
  C   C453      1.0  0.31438895393848226  0.8715172178001314  0.9601673477000151  1.0000
  C   C454      1.0  0.2925046323656019  0.827946803296183  0.9956740357389863  1.0000
  C   C455      1.0  0.3218106088325385  0.8594124267329041  0.036641382191028526  1.0000
  C   C456      1.0  0.33784852964721773  0.8243242968043579  0.9802610129603087  1.0000
  H   H685      1.0  0.2988176923815549  0.8885255362113331  0.9690863959483016  1.0000
  H   H686      1.0  0.31027710217733495  0.86216692402656  0.9269895863247788  1.0000
  H   H687      1.0  0.3325235047027816  0.8850453995566505  0.957073296391425  1.0000
  H   H688      1.0  0.2878410625953274  0.8172644866323919  0.9635632914855251  1.0000
  H   H689      1.0  0.2936811114432602  0.8082991449615159  0.020233200431157616  1.0000
  H   H690      1.0  0.2759755673483401  0.8431964026101081  0.005714041034634354  1.0000
  H   H691      1.0  0.3243004110721776  0.8406337697908629  0.062143599781427916  1.0000
  H   H692      1.0  0.3058878994372439  0.8751474085041009  0.04794542926947942  1.0000
  H   H693      1.0  0.33952857929350755  0.8737101116540116  0.03580220210102847  1.0000
  H   H694      1.0  0.3347005035175354  0.8139651533828721  0.947354845038202  1.0000
  H   H695      1.0  0.33989595712967724  0.8043434695569506  0.0041055405341938744  1.0000
  H   H696      1.0  0.35641156093674575  0.8369538160428819  0.9785411256647218  1.0000
  N   N43       1.0  0.8477242867850547  0.5899751346780336  0.24742672268576557  1.0000
  C   C457      1.0  0.8217140978876334  0.6012371008757073  0.23626479092563957  1.0000
  C   C458      1.0  0.8518093124572026  0.5937134523246232  0.2950580084013872  1.0000
  C   C459      1.0  0.8667593627246197  0.6087310528588894  0.22257773957921964  1.0000
  C   C460      1.0  0.8506308023236376  0.5563573009913001  0.23564671924838804  1.0000
  H   H697      1.0  0.8181004117697745  0.598820772825728  0.2004612524601763  1.0000
  H   H698      1.0  0.8189367954816907  0.6265971817884897  0.2446332708924083  1.0000
  H   H699      1.0  0.8068058099675706  0.5876332963855231  0.2544435998817775  1.0000
  H   H700      1.0  0.8716396066837148  0.5866392109612237  0.3042799374015448  1.0000
  H   H701      1.0  0.8489891380887706  0.6187095150985639  0.3051636516533346  1.0000
  H   H702      1.0  0.8382798475721085  0.5792123428715948  0.3149858685389073  1.0000
  H   H703      1.0  0.8866810392956741  0.6014221466706442  0.23076374861709983  1.0000
  H   H704      1.0  0.8648735148667963  0.634268024112887  0.23018919415572117  1.0000
  H   H705      1.0  0.8646070425868417  0.6060993915451836  0.18642779014680125  1.0000
  H   H706      1.0  0.8700456095683664  0.5470156713626336  0.24356362955005512  1.0000
  H   H707      1.0  0.8478957704757357  0.5527969705726138  0.19977954136293652  1.0000
  H   H708      1.0  0.8364692088017653  0.5413877668870813  0.2534162107591924  1.0000
  N   N44       1.0  0.46307285785741703  0.8432489997446037  0.10324236392944952  1.0000
  C   C461      1.0  0.44475037269192336  0.8675912530572043  0.11902521607444672  1.0000
  C   C462      1.0  0.47773163433693006  0.8556845958887143  0.0650685370638  1.0000
  C   C463      1.0  0.4489112682726317  0.8150243541879613  0.08989202636583249  1.0000
  C   C464      1.0  0.4808513430615131  0.8347574576568644  0.13893136831791408  1.0000
  H   H709      1.0  0.432168135728744  0.8585660928223856  0.14605771519586686  1.0000
  H   H710      1.0  0.43208808584698793  0.8759781992076469  0.09231446783228425  1.0000
  H   H711      1.0  0.4546089176396569  0.8886398364893449  0.1314902459850038  1.0000
  H   H712      1.0  0.48846756092696947  0.8771110293463975  0.07377032141493944  1.0000
  H   H713      1.0  0.4919011483645123  0.8380377906583798  0.05247984880826562  1.0000
  H   H714      1.0  0.46493972274707596  0.8624060610230703  0.037465321875780555  1.0000
  H   H715      1.0  0.46212398829064083  0.7957152955728013  0.07913989030157143  1.0000
  H   H716      1.0  0.43600652666119816  0.8205445776878111  0.06198927496017714  1.0000
  H   H717      1.0  0.43671209484937484  0.8056974818590539  0.11727377051061416  1.0000
  H   H718      1.0  0.4950844529760127  0.8165377011518034  0.1282495474530443  1.0000
  H   H719      1.0  0.4703987174057653  0.8253929185170534  0.168286079479812  1.0000
  H   H720      1.0  0.4918380108576818  0.8556311311040861  0.1496199324687495  1.0000
  N   N45       1.0  0.5537512289788705  0.2330242650953883  0.08113349079808117  1.0000
  C   C465      1.0  0.5420756011740284  0.2031224153629717  0.0960510994638766  1.0000
  C   C466      1.0  0.5629029695128085  0.22972443223297803  0.03527595212356527  1.0000
  C   C467      1.0  0.5756633454849328  0.24043655573191205  0.10933524447225444  1.0000
  C   C468      1.0  0.5344234023151879  0.25876318274660687  0.08360226650826963  1.0000
  H   H721      1.0  0.5560099151096832  0.1830798085687815  0.09393376216961849  1.0000
  H   H722      1.0  0.5253551074359607  0.19706414674075914  0.07556959176888144  1.0000
  H   H723      1.0  0.535100498508874  0.20465582647734037  0.13069676264939858  1.0000
  H   H724      1.0  0.5717189048764851  0.2518592717756832  0.022805585009796125  1.0000
  H   H725      1.0  0.5774222015186098  0.21044192002541987  0.032221172727960434  1.0000
  H   H726      1.0  0.5471363308950964  0.22406946521549106  0.01285177677991145  1.0000
  H   H727      1.0  0.5851054219763447  0.262718985093942  0.09866083879932418  1.0000
  H   H728      1.0  0.5906937883908611  0.22155539589906623  0.10804406853409633  1.0000
  H   H729      1.0  0.5696335276578829  0.24325112591738712  0.14430312545811777  1.0000
  H   H730      1.0  0.5425258458274927  0.28170197653619405  0.07251836159220493  1.0000
  H   H731      1.0  0.526914834981139  0.2618238740094436  0.11772823446955856  1.0000
  H   H732      1.0  0.517684307688802  0.2539455456521916  0.062478614260227376  1.0000
  N   N46       1.0  0.39325396521052114  0.15452050278467677  0.2640750989558613  1.0000
  C   C469      1.0  0.396280383335394  0.15780143190563267  0.3120528038798144  1.0000
  C   C470      1.0  0.4021461958097257  0.18351201366675185  0.2415512812373875  1.0000
  C   C471      1.0  0.36599909397776165  0.14958038434153376  0.2541603034198825  1.0000
  C   C472      1.0  0.40856704872216154  0.12719381085100978  0.24842508352579848  1.0000
  H   H733      1.0  0.3892310272037314  0.13665566214484137  0.3302604262626632  1.0000
  H   H734      1.0  0.38527207056084767  0.17851886202839506  0.3247462432390821  1.0000
  H   H735      1.0  0.41664098890500206  0.16125361456663878  0.3207800879999112  1.0000
  H   H736      1.0  0.4227412559254891  0.18780838289399826  0.24748714621339885  1.0000
  H   H737      1.0  0.39957695361101064  0.18215265957371818  0.20539088695623972  1.0000
  H   H738      1.0  0.3912766243114993  0.20462582007864438  0.25300398340170593  1.0000
  H   H739      1.0  0.3537856843927477  0.1692981095565722  0.2666145883523428  1.0000
  H   H740      1.0  0.35878073441669966  0.12747167875984666  0.2696171518007938  1.0000
  H   H741      1.0  0.3629443900189032  0.14796139337379066  0.21805088283889792  1.0000
  H   H742      1.0  0.4065230079226044  0.12400613428896201  0.21235250897449087  1.0000
  H   H743      1.0  0.4023789761922705  0.1049025665851746  0.26475366205196504  1.0000
  H   H744      1.0  0.4292761332407169  0.1302261203604087  0.25485395965672664  1.0000
  N   N47       1.0  0.5609070757323834  0.04424164876238468  0.64078974718665  1.0000
  C   C473      1.0  0.554544857872174  0.05736774085742824  0.6844937199351405  1.0000
  C   C474      1.0  0.5713869413864064  0.011888273392156146  0.6460774985673372  1.0000
  C   C475      1.0  0.580161964344026  0.06434460799923847  0.6185852588028131  1.0000
  C   C476      1.0  0.5375239638853261  0.04342931787904236  0.6140583166668516  1.0000
  H   H745      1.0  0.54619957640981  0.08158889667902347  0.6815452398818961  1.0000
  H   H746      1.0  0.5718212214746354  0.05880263703900512  0.7054322414862758  1.0000
  H   H747      1.0  0.5403245996099785  0.042575944721102266  0.7024908673363495  1.0000
  H   H748      1.0  0.5762639753521083  0.001185000184861007  0.6137105718926801  1.0000
  H   H749      1.0  0.5892906318878526  0.011642610477121451  0.6655335588658433  1.0000
  H   H750      1.0  0.5574993413055034  0.9961185400566319  0.6630916652392673  1.0000
  H   H751      1.0  0.5850279105308311  0.05559496151137999  0.58511294341187  1.0000
  H   H752      1.0  0.5982933020358334  0.06481028809770373  0.6373064795288476  1.0000
  H   H753      1.0  0.5730677553731227  0.08910010821593883  0.6147870804079334  1.0000
  H   H754      1.0  0.5415616456805878  0.03329020243011582  0.5809989144103915  1.0000
  H   H755      1.0  0.5293250100207986  0.06756582848987125  0.6089830297261472  1.0000
  H   H756      1.0  0.5224151637846727  0.028767057384395223  0.6300191555582965  1.0000
  N   N48       1.0  0.3121364845491439  0.515006544936046  0.5291194977766844  1.0000
  C   C477      1.0  0.33697370414401256  0.5037548276252555  0.5110256047421473  1.0000
  C   C478      1.0  0.2910652702045613  0.49940866805634176  0.5062418000539255  1.0000
  C   C479      1.0  0.30984159494922126  0.5495873058307061  0.5230739175898741  1.0000
  C   C480      1.0  0.3106372594679657  0.5071599829654669  0.576448493472424  1.0000
  H   H757      1.0  0.35324905607143847  0.514932713685782  0.5279277560759884  1.0000
  H   H758      1.0  0.33886752354481997  0.5092883739642271  0.47532606368799135  1.0000
  H   H759      1.0  0.3392132324249841  0.47768283471944945  0.5152270483597877  1.0000
  H   H760      1.0  0.291628890477617  0.5046070836325831  0.4703509065091534  1.0000
  H   H761      1.0  0.292144223958645  0.47328075313881707  0.5106244829201867  1.0000
  H   H762      1.0  0.2720530541060966  0.5073763207650533  0.5192743764054663  1.0000
  H   H763      1.0  0.3253941998910864  0.5621541437325805  0.5401455435173956  1.0000
  H   H764      1.0  0.2913687833196191  0.5588207703431995  0.5367536135155209  1.0000
  H   H765      1.0  0.31085621640457195  0.5565678511532783  0.48777722181298555  1.0000
  H   H766      1.0  0.2916768562303109  0.5139591436954596  0.5907367195600246  1.0000
  H   H767      1.0  0.3256528976144992  0.5194245308358914  0.595094069033364  1.0000
  H   H768      1.0  0.3133522662601121  0.4814622188891029  0.5824335783522868  1.0000
