data_image0
_chemical_formula_structural       FeS2FeS2FeSFeS3FeS2FeS2FeSFeS3FeS2FeS2FeSFeS3FeS2FeS2FeSFeS3FeS2FeS2FeSFeS3FeS2FeS2FeSFeS3FeS2FeS2FeSFeS3FeS2FeS2FeSFeS3FeS2FeS2FeSFeS3FeS2FeS2FeSFeS3FeS2FeS2FeSFeS3FeS2FeS2FeSFeS3FeS2FeS2FeSFeS3FeS2FeS2FeSFeS3FeS2FeS2FeSFeS3FeS2FeS2FeSFeS3FeS2FeS2FeSFeS3FeS2FeS2FeSFeS3FeS2FeS2FeSFeS3FeS2FeS2FeSFeS3FeS2FeS2FeSFeS3FeS2FeS2FeSFeS3FeS2FeS2FeSFeS3FeS2FeS2FeSFeS3C6H4C6H4C6H4C6H4C6H4C6H4C6H4C6H4C6H4C6H4C6H4C6H4C6H4C6H4C6H4C6H4C6H4C6H4C6H4C6H4C6H4C6H4C6H4C6H4C6H4C6H4C6H4C6H4C6H4C6H4C6H4C6H4C6H4C6H4C6H4C6H4C6H4C6H4C6H4C6H4C6H4C6H4C6H4C6H4C6H4C6H4C6H4C6H4NC4H12NC4H12NC4H12NC4H12NC4H12NC4H12NC4H12NC4H12NC4H12NC4H12NC4H12NC4H12NC4H12NC4H12NC4H12NC4H12NC4H12NC4H12NC4H12NC4H12NC4H12NC4H12NC4H12NC4H12NC4H12NC4H12NC4H12NC4H12NC4H12NC4H12NC4H12NC4H12NC4H12NC4H12NC4H12NC4H12NC4H12NC4H12NC4H12NC4H12NC4H12NC4H12NC4H12NC4H12NC4H12NC4H12NC4H12NC4H12
_chemical_formula_sum              "Fe96 S192 C480 H768 N48"
_cell_length_a       49.845986609349325
_cell_length_b       51.8576613078253
_cell_length_c       40.87795040341332
_cell_angle_alpha    90.51663702866269
_cell_angle_beta     89.88543392526586
_cell_angle_gamma    119.0320256404587

_space_group_name_H-M_alt    "P 1"
_space_group_IT_number       1

loop_
  _space_group_symop_operation_xyz
  'x, y, z'

loop_
  _atom_site_type_symbol
  _atom_site_label
  _atom_site_symmetry_multiplicity
  _atom_site_fract_x
  _atom_site_fract_y
  _atom_site_fract_z
  _atom_site_occupancy
  Fe  Fe1       1.0  0.7118705478127811  0.5103824292919557  0.8446967309171789  1.0000
  S   S1        1.0  0.6942275629925087  0.5016065537301473  0.8964803382117267  1.0000
  S   S2        1.0  0.7164580007605037  0.5519317805493195  0.8214846679893199  1.0000
  Fe  Fe2       1.0  0.7184044874334504  0.45521109222796263  0.8422675542680589  1.0000
  S   S3        1.0  0.702616108500721  0.44266374595927505  0.8938167961385632  1.0000
  S   S4        1.0  0.7273143137469882  0.42438248661952743  0.8108736619634925  1.0000
  Fe  Fe3       1.0  0.6663968651965629  0.4543970833217165  0.8807183005931821  1.0000
  S   S5        1.0  0.619739348642499  0.42529976667361863  0.902124856702577  1.0000
  Fe  Fe4       1.0  0.7318454268715323  0.4907604632402238  0.9051505612064543  1.0000
  S   S6        1.0  0.7618836419229823  0.5062116953502224  0.9499743010495162  1.0000
  S   S7        1.0  0.6799890024278571  0.4638818138010755  0.8279898105359077  1.0000
  S   S8        1.0  0.7516307238249514  0.5025487650003702  0.8545391852879226  1.0000
  Fe  Fe5       1.0  0.703675596562473  0.4932215818831964  0.12484298549154332  1.0000
  S   S9        1.0  0.7514477038259483  0.5041632818131053  0.13884025608871378  1.0000
  S   S10       1.0  0.6925516883684625  0.5096647512079107  0.07857690948485081  1.0000
  Fe  Fe6       1.0  0.6753788687830393  0.45459040426141445  0.18343353705217477  1.0000
  S   S11       1.0  0.7207259177790771  0.46267108300884613  0.20283564794750675  1.0000
  S   S12       1.0  0.6347903347491493  0.4207291779183148  0.21130675127623785  1.0000
  Fe  Fe7       1.0  0.7383855058238589  0.5100825836332143  0.18993980060627896  1.0000
  S   S13       1.0  0.7775209314210519  0.543094181730115  0.22193577845454973  1.0000
  Fe  Fe8       1.0  0.7307275591129263  0.45625331928648116  0.1511275762444063  1.0000
  S   S14       1.0  0.7546368431247169  0.4304523866748465  0.13703327875726956  1.0000
  S   S15       1.0  0.6916026691972328  0.5028524455469018  0.17517516899430577  1.0000
  S   S16       1.0  0.6840185648022242  0.44454558507628744  0.132329217610359  1.0000
  Fe  Fe9       1.0  0.7525950810687637  0.25151560999872874  0.8438495352420391  1.0000
  S   S17       1.0  0.7062518718364106  0.21611124046786603  0.8603696602365914  1.0000
  S   S18       1.0  0.7911815240431475  0.2510865898757167  0.8148943754473076  1.0000
  Fe  Fe10      1.0  0.747107549044053  0.29980112354700716  0.8803840287640562  1.0000
  S   S19       1.0  0.7010439587771405  0.2693236922577034  0.9012760398058556  1.0000
  S   S20       1.0  0.771880843435205  0.3484852742388466  0.8914291343535005  1.0000
  Fe  Fe11      1.0  0.7197257588237237  0.23838172191539617  0.9097135291043916  1.0000
  S   S21       1.0  0.7041154944377491  0.20946512963967928  0.9541839073784324  1.0000
  Fe  Fe12      1.0  0.6901570418800619  0.24909383152358752  0.8512244918010516  1.0000
  S   S22       1.0  0.6454665810912935  0.23814901697925014  0.8265939133009629  1.0000
  S   S23       1.0  0.7672397057131071  0.2710284318295614  0.8943004150902556  1.0000
  S   S24       1.0  0.7348726832333995  0.28211109124633504  0.8293339671979256  1.0000
  Fe  Fe13      1.0  0.7131971324584314  0.21926027037267165  0.19401854920873376  1.0000
  S   S25       1.0  0.6970733078508006  0.2100085773528162  0.1418581915384588  1.0000
  S   S26       1.0  0.7170157152939294  0.18202066001423675  0.2184135310529406  1.0000
  Fe  Fe14      1.0  0.7177513209224958  0.27982703933217773  0.19287380371620744  1.0000
  S   S27       1.0  0.7033317699183923  0.27595747129944165  0.1403901787848745  1.0000
  S   S28       1.0  0.7260019786105457  0.31935941576123056  0.22325071023650386  1.0000
  Fe  Fe15      1.0  0.667602215347206  0.2303152986368416  0.1540783582876514  1.0000
  S   S29       1.0  0.6209117343080888  0.21304328473690995  0.13097612931952413  1.0000
  Fe  Fe16      1.0  0.7340004015418132  0.25608082063546167  0.13250686060425845  1.0000
  S   S30       1.0  0.7665451430373796  0.2664318141555584  0.09009398277891084  1.0000
  S   S31       1.0  0.6798647962259894  0.2351977618530624  0.20745186776763444  1.0000
  S   S32       1.0  0.7522153208725278  0.26448861303669424  0.18404574676543706  1.0000
  Fe  Fe17      1.0  0.44621364395928337  0.21207274795283157  0.8436658566484925  1.0000
  S   S33       1.0  0.447304924042038  0.20121290734980773  0.8967981096506692  1.0000
  S   S34       1.0  0.41477914456026216  0.18042221371883319  0.8047197480537116  1.0000
  Fe  Fe18      1.0  0.5032151752456127  0.2721871769113932  0.8499525780387832  1.0000
  S   S35       1.0  0.5089292538642483  0.26697116691220585  0.9032384743591436  1.0000
  S   S36       1.0  0.5373461934310413  0.30969100108746805  0.8194660180874417  1.0000
  Fe  Fe19      1.0  0.4982496966372108  0.22106645583631956  0.8901202918291808  1.0000
  S   S37       1.0  0.5292939323308844  0.2068146324485025  0.9145620461519207  1.0000
  Fe  Fe20      1.0  0.4579273568372123  0.24803151733513318  0.9058285130212833  1.0000
  S   S38       1.0  0.44018459439960644  0.2637565865363583  0.9477324894896786  1.0000
  S   S39       1.0  0.4964522019582597  0.2275991361014645  0.8363400874841329  1.0000
  S   S40       1.0  0.4529038151520376  0.257557171819683  0.8531740112895949  1.0000
  Fe  Fe21      1.0  0.4889850637069808  0.29236572854935405  0.1473453192671385  1.0000
  S   S41       1.0  0.5023998311793066  0.2590312137297494  0.1308936629725504  1.0000
  S   S42       1.0  0.5153177883097765  0.33918123596844985  0.129725808553594  1.0000
  Fe  Fe22      1.0  0.4352484601305343  0.2483507064299014  0.18870422220450397  1.0000
  S   S43       1.0  0.44427052371222475  0.2109317361273399  0.17600766653693709  1.0000
  S   S44       1.0  0.39991869631180027  0.2503277111486332  0.22222254543781272  1.0000
  Fe  Fe23      1.0  0.4940675931951404  0.24415867649973724  0.182990379118593  1.0000
  S   S45       1.0  0.528896082984516  0.2389677968676063  0.21274935019197053  1.0000
  Fe  Fe24      1.0  0.45179972731008927  0.22895839280186847  0.12480046542294197  1.0000
  S   S46       1.0  0.4347026595053263  0.1994073937339067  0.0802734320289331  1.0000
  S   S47       1.0  0.4845071745224043  0.2799790650665135  0.20009936672197837  1.0000
  S   S48       1.0  0.4387901344349739  0.2636905417332321  0.13677252845308707  1.0000
  Fe  Fe25      1.0  0.862979864845644  0.14936270072468222  0.6867808549267822  1.0000
  S   S49       1.0  0.8508829512181024  0.18356821535728512  0.6699451717830955  1.0000
  S   S50       1.0  0.9050431234540915  0.15877766765778747  0.7163774780622948  1.0000
  Fe  Fe26      1.0  0.8099127039159842  0.09903176513342114  0.6502384080452966  1.0000
  S   S51       1.0  0.7934565985030189  0.12894224989354147  0.6299164979094931  1.0000
  S   S52       1.0  0.7903836727819877  0.05264611045489505  0.6301563467966891  1.0000
  Fe  Fe27      1.0  0.8429853254755248  0.16081780543284355  0.6209522647064929  1.0000
  S   S53       1.0  0.8646320716182305  0.1833772767139066  0.5736655184991222  1.0000
  Fe  Fe28      1.0  0.8022635729710555  0.14887917394644717  0.6806961880629764  1.0000
  S   S54       1.0  0.7643822785709051  0.15503401156203628  0.7036969139669884  1.0000
  S   S55       1.0  0.8588101466155834  0.12937224287382687  0.6371667069675  1.0000
  S   S56       1.0  0.8149151847568581  0.11620004349383697  0.7016774719671304  1.0000
  Fe  Fe29      1.0  0.8064862753017862  0.6831618776457489  0.6314432704406857  1.0000
  S   S57       1.0  0.83621915009188  0.7318981717837602  0.6370075494331672  1.0000
  S   S58       1.0  0.7764073638356093  0.6652991889886214  0.5869556310257021  1.0000
  Fe  Fe30      1.0  0.8269795316998367  0.6698968107133659  0.6961314729207478  1.0000
  S   S59       1.0  0.8589475007341518  0.7179325811189375  0.7072321438694517  1.0000
  S   S60       1.0  0.8247379468266287  0.6316888544928989  0.7249410065751025  1.0000
  Fe  Fe31      1.0  0.8202525468162803  0.7248709322626169  0.6890426437995494  1.0000
  S   S61       1.0  0.8078717425154476  0.7556211937373883  0.716675500799419  1.0000
  Fe  Fe32      1.0  0.8722840696702084  0.7212560580395785  0.6543462151092512  1.0000
  S   S62       1.0  0.9185473916816379  0.7470981434248449  0.6304201049869222  1.0000
  S   S63       1.0  0.787170123603009  0.6765309498374152  0.6822801057846765  1.0000
  S   S64       1.0  0.8436856655486253  0.6727827992192449  0.6443450997606376  1.0000
  Fe  Fe33      1.0  0.7216064529238648  0.8948123058633333  0.6894494652707388  1.0000
  S   S65       1.0  0.6707498754948366  0.873297064459958  0.6813113085413347  1.0000
  S   S66       1.0  0.7453088261877713  0.9383293583566022  0.7172876254129341  1.0000
  Fe  Fe34      1.0  0.726635716769682  0.8437167918641012  0.6571344795603605  1.0000
  S   S67       1.0  0.6760426573384025  0.818335553413647  0.6460905206150939  1.0000
  S   S68       1.0  0.759258720380789  0.8289728202986959  0.6362643623929983  1.0000
  Fe  Fe35      1.0  0.6812317414263955  0.8621273034634898  0.6312241090165797  1.0000
  S   S69       1.0  0.6634673088491286  0.8735944096370736  0.5859249560452997  1.0000
  Fe  Fe36      1.0  0.6699690193325978  0.831631367804262  0.6971783448527626  1.0000
  S   S70       1.0  0.6380504162024229  0.7991617257733097  0.7348353580779078  1.0000
  S   S71       1.0  0.7322318496852838  0.886641931332296  0.6383704154051913  1.0000
  S   S72       1.0  0.7204882404279442  0.8538837759327254  0.7091196672112574  1.0000
  Fe  Fe37      1.0  0.0822593779792907  0.8492638899322326  0.689751459337526  1.0000
  S   S73       1.0  0.10247892545848013  0.8189148173349459  0.6882631887507865  1.0000
  S   S74       1.0  0.035850687189768464  0.833552677280129  0.7134044289799516  1.0000
  Fe  Fe38      1.0  0.13662287790421812  0.8990951694432021  0.6551936842807419  1.0000
  S   S75       1.0  0.16128898263379512  0.8728299572650751  0.6508808151848012  1.0000
  S   S76       1.0  0.15636636929233413  0.9420798931640275  0.6272003888165885  1.0000
  Fe  Fe39      1.0  0.11588387096761248  0.8350108424810613  0.6370133992707213  1.0000
  S   S77       1.0  0.11088240599837408  0.8032230621561592  0.5966695904402822  1.0000
  Fe  Fe40      1.0  0.1466171114012067  0.8587191940741693  0.7026495102325412  1.0000
  S   S78       1.0  0.1836681933239198  0.8574391890497859  0.733808917505425  1.0000
  S   S79       1.0  0.09184052338541603  0.8619382255803102  0.6369366272904942  1.0000
  S   S80       1.0  0.12563600666032546  0.8885289662950359  0.7085153348863634  1.0000
  Fe  Fe41      1.0  0.12711600920884783  0.26051134176444873  0.6962111926966  1.0000
  S   S81       1.0  0.160916699490808  0.30854077260835266  0.6896200218915167  1.0000
  S   S82       1.0  0.13987511670581596  0.228746571601574  0.7195860769632548  1.0000
  Fe  Fe42      1.0  0.0746628944307288  0.26520195903348687  0.6640864675648178  1.0000
  S   S83       1.0  0.10455440375772714  0.31341363686746676  0.6545058575678654  1.0000
  S   S84       1.0  0.027183618471026176  0.24613418481423285  0.6422748075074153  1.0000
  Fe  Fe43      1.0  0.14002047196119613  0.30122360857097324  0.6391894565342401  1.0000
  S   S85       1.0  0.16761325294061055  0.3152834259130338  0.5925347856487193  1.0000
  Fe  Fe44      1.0  0.12203980268957035  0.3162192538006137  0.7058029637339946  1.0000
  S   S86       1.0  0.11922357483492202  0.35018386491326814  0.7392657183413331  1.0000
  S   S87       1.0  0.10894600134056176  0.2527347582125127  0.6449235007775885  1.0000
  S   S88       1.0  0.08964592009701505  0.2683950977825712  0.7163252289857226  1.0000
  Fe  Fe45      1.0  0.2845516153798  0.16883859555744948  0.6927459702502856  1.0000
  S   S89       1.0  0.2334085673840476  0.14739242105832998  0.6982961585245663  1.0000
  S   S90       1.0  0.312516423442064  0.19943904795786974  0.734147138154444  1.0000
  Fe  Fe46      1.0  0.2790363371054491  0.14189488950774717  0.6248709092118445  1.0000
  S   S91       1.0  0.22760143776519312  0.11780174480291743  0.6252304874662752  1.0000
  S   S92       1.0  0.30445791643686543  0.1383228585913945  0.5811731965871065  1.0000
  Fe  Fe47      1.0  0.23276215063215802  0.16023295005353924  0.6461897043620001  1.0000
  S   S93       1.0  0.20866214866709562  0.183444022324676  0.6245262767333989  1.0000
  Fe  Fe48      1.0  0.2330516648345416  0.10700536877690045  0.677060112827215  1.0000
  S   S94       1.0  0.20695401776637143  0.06397437165440129  0.7039665010553247  1.0000
  S   S95       1.0  0.2840806718573513  0.18509377444799133  0.642193169061077  1.0000
  S   S96       1.0  0.28435964893583476  0.1276930694259684  0.675129046218731  1.0000
  Fe  Fe49      1.0  0.1273514331738936  0.8885759106318116  0.36731089022723  1.0000
  S   S97       1.0  0.15938814622703174  0.8698092687095422  0.37127602170369206  1.0000
  S   S98       1.0  0.1429147155639148  0.9302912831045803  0.3382281087453168  1.0000
  Fe  Fe50      1.0  0.07516772786850918  0.8362114294757867  0.4018036268421069  1.0000
  S   S99       1.0  0.10334979851694454  0.8135883047109091  0.4084977702532034  1.0000
  S   S100      1.0  0.028204251556517918  0.812934414480711  0.4250451674168802  1.0000
  Fe  Fe51      1.0  0.1411023920438069  0.8584633407421449  0.42253352065731403  1.0000
  S   S101      1.0  0.17271369471385783  0.8696539995895334  0.4658841544635347  1.0000
  Fe  Fe52      1.0  0.11869784854650633  0.8267807063790041  0.35678424702079037  1.0000
  S   S102      1.0  0.1149541195370112  0.7928021464732058  0.3191676060598811  1.0000
  S   S103      1.0  0.1119792947339037  0.8804337163789252  0.41967321694520343  1.0000
  S   S104      1.0  0.08759045450011876  0.8462274338568931  0.34893972590089145  1.0000
  Fe  Fe53      1.0  0.0775037520867202  0.26466691967495865  0.3547366182372871  1.0000
  S   S105      1.0  0.10058471194619191  0.3129183859400995  0.36724183275178396  1.0000
  S   S106      1.0  0.033276328629213286  0.24842578970226487  0.32634503078424176  1.0000
  Fe  Fe54      1.0  0.12789807602522463  0.25624419806053234  0.3872903839057818  1.0000
  S   S107      1.0  0.15503548497261865  0.3040001881141056  0.4019285175109625  1.0000
  S   S108      1.0  0.1417155541264327  0.22424978702725717  0.40849535987287217  1.0000
  Fe  Fe55      1.0  0.10937622743196714  0.29918554415313414  0.4163500276854478  1.0000
  S   S109      1.0  0.09501355918863787  0.31152904020307676  0.46369788331750744  1.0000
  Fe  Fe56      1.0  0.14387274051525065  0.31331657236454546  0.3513529311466261  1.0000
  S   S110      1.0  0.179345533891229  0.3461355342919221  0.31639614122133314  1.0000
  S   S111      1.0  0.0828101870888164  0.25095370809276224  0.4048887639559684  1.0000
  S   S112      1.0  0.12025929842745313  0.2655579289998949  0.33550620570698886  1.0000
  Fe  Fe57      1.0  0.2836639040092822  0.13975958111742873  0.3483549053545947  1.0000
  S   S113      1.0  0.23429814397452964  0.10756443584799731  0.33669572913555185  1.0000
  S   S114      1.0  0.3201052712145733  0.141422047155977  0.31400563406723836  1.0000
  Fe  Fe58      1.0  0.26733678062787264  0.16082179019437848  0.41107032164499563  1.0000
  S   S115      1.0  0.2170394465559352  0.1305703664637081  0.4045176938669648  1.0000
  S   S116      1.0  0.2798158579360512  0.19204198350539758  0.45393576099692906  1.0000
  Fe  Fe59      1.0  0.23033031952959301  0.09638350730885473  0.3901589403452106  1.0000
  S   S117      1.0  0.20645904837673829  0.05229374834344637  0.4158907208707098  1.0000
  Fe  Fe60      1.0  0.2254206669711335  0.1445514090908754  0.3521390246305297  1.0000
  S   S118      1.0  0.19892109508848876  0.16110920669610934  0.32215957775357046  1.0000
  S   S119      1.0  0.28045952228968496  0.1258668079057957  0.40091962192324004  1.0000
  S   S120      1.0  0.2750392798765848  0.17742733967020421  0.3595879809179153  1.0000
  Fe  Fe61      1.0  0.8026708114855403  0.6683994377171217  0.3477301789503794  1.0000
  S   S121      1.0  0.8200354038533066  0.7169545351962731  0.3411591337320055  1.0000
  S   S122      1.0  0.7658324510790109  0.6378242129980507  0.31218379275341257  1.0000
  Fe  Fe62      1.0  0.8339895114485099  0.6782608078902166  0.41422331864558104  1.0000
  S   S123      1.0  0.8532684474619903  0.7272423023452909  0.4129905592236419  1.0000
  S   S124      1.0  0.8446766826476821  0.659438396261869  0.45866013027337044  1.0000
  Fe  Fe63      1.0  0.807179016148432  0.717059196808852  0.393523029493285  1.0000
  S   S125      1.0  0.7830691612279644  0.7403665326376238  0.41503072945877156  1.0000
  Fe  Fe64      1.0  0.8646919991299218  0.7229162080488484  0.3609147335854999  1.0000
  S   S126      1.0  0.9082824753922557  0.7574020684628673  0.3373105803019801  1.0000
  S   S127      1.0  0.7866911475202945  0.6682651469819525  0.3992403378525689  1.0000
  S   S128      1.0  0.8487377850479655  0.6742514185596846  0.3630590424811243  1.0000
  Fe  Fe65      1.0  0.6654137745681136  0.8482674028028557  0.3445927571383648  1.0000
  S   S129      1.0  0.7151560559232609  0.8747662544350854  0.33006243879229324  1.0000
  S   S130      1.0  0.6234834573770661  0.844384732911902  0.3183445603688  1.0000
  Fe  Fe66      1.0  0.6805698243511518  0.8322398555204289  0.41072368121622777  1.0000
  S   S131      1.0  0.7313195584158844  0.8567179331155217  0.4022633803144099  1.0000
  S   S132      1.0  0.6570231367156971  0.8047498594068254  0.45493267487995837  1.0000
  Fe  Fe67      1.0  0.7232313859880835  0.8925018335781038  0.3816504050582815  1.0000
  S   S133      1.0  0.7542319901862802  0.9389046438384405  0.4004946190546501  1.0000
  Fe  Fe68      1.0  0.7197107624438523  0.8371390624521412  0.35167414517498413  1.0000
  S   S134      1.0  0.7454681280463806  0.8169348630117494  0.32612970593106644  1.0000
  S   S135      1.0  0.6732567673156599  0.8693944751513758  0.39449553600504556  1.0000
  S   S136      1.0  0.6694543664029662  0.8093671265731004  0.361801506693875  1.0000
  Fe  Fe69      1.0  0.8663694225546898  0.14238770064896034  0.3726353593924975  1.0000
  S   S137      1.0  0.8507330665348808  0.1755289191257737  0.38333599239514765  1.0000
  S   S138      1.0  0.9116913617961002  0.14588759456970227  0.3876035252665431  1.0000
  Fe  Fe70      1.0  0.8045092465233931  0.09720328992858762  0.3448886592079451  1.0000
  S   S139      1.0  0.783481724028742  0.1264844097547275  0.3527256005562945  1.0000
  S   S140      1.0  0.7786744462065683  0.05240571683733594  0.3203926922198922  1.0000
  Fe  Fe71      1.0  0.828012150244501  0.16274569000829225  0.33382311869041953  1.0000
  S   S141      1.0  0.8319019832507508  0.20010394423478067  0.3023806742352254  1.0000
  Fe  Fe72      1.0  0.8075370058111445  0.1369863458870624  0.40135940004156123  1.0000
  S   S142      1.0  0.7821235457676422  0.13861399894787302  0.4462610736787761  1.0000
  S   S143      1.0  0.8473885498950087  0.13271022500210464  0.32152177566807194  1.0000
  S   S144      1.0  0.8248780813843047  0.10472253839961834  0.39517408404654075  1.0000
  Fe  Fe73      1.0  0.2704606664461541  0.5337322906881783  0.8998901459560111  1.0000
  S   S145      1.0  0.2611011675530272  0.5303973087932781  0.845926587665949  1.0000
  S   S146      1.0  0.31395820561141846  0.5647107197254142  0.9268823203146185  1.0000
  Fe  Fe74      1.0  0.20421832185506544  0.4909885837823134  0.9163940460942324  1.0000
  S   S147      1.0  0.1884398888747431  0.484987262067537  0.8639627817275862  1.0000
  S   S148      1.0  0.1720791556272803  0.46732305363592797  0.9579468524280109  1.0000
  Fe  Fe75      1.0  0.23091831799310855  0.48161540298950956  0.8538217705270732  1.0000
  S   S149      1.0  0.23204329477737778  0.44510404578801155  0.8236511569643228  1.0000
  Fe  Fe76      1.0  0.21942287484565462  0.5338805455431469  0.8602205671551311  1.0000
  S   S150      1.0  0.21015556102227131  0.5648678827901163  0.8301546804109273  1.0000
  S   S151      1.0  0.24479535996439633  0.48472475550473065  0.9067217742549033  1.0000
  S   S152      1.0  0.23070058181340705  0.5403120341988438  0.9136602593043169  1.0000
  Fe  Fe77      1.0  0.19598277764595226  0.47134823821074623  0.19874009654033598  1.0000
  S   S153      1.0  0.23772172822857443  0.4680386238825763  0.18453265948421463  1.0000
  S   S154      1.0  0.16133693628486231  0.44132397895693537  0.23629876759185078  1.0000
  Fe  Fe78      1.0  0.21502502026856424  0.5267204110964628  0.15734371865962596  1.0000
  S   S155      1.0  0.2580639341766229  0.5274091982294146  0.1406410567057363  1.0000
  S   S156      1.0  0.21068281324030594  0.563658270672606  0.13383684561054304  1.0000
  Fe  Fe79      1.0  0.2285469106269434  0.47870380552180475  0.13378059940041753  1.0000
  S   S157      1.0  0.23677226145923938  0.45918000750077975  0.08778502766420525  1.0000
  Fe  Fe80      1.0  0.2629584092757788  0.5170281717082962  0.19241453857018134  1.0000
  S   S158      1.0  0.3059203475370458  0.5413527252866561  0.22249325350125293  1.0000
  S   S159      1.0  0.1846661643854011  0.4782895781787218  0.14714142641340203  1.0000
  S   S160      1.0  0.2220465035741243  0.5200940150411326  0.21003612559704862  1.0000
  Fe  Fe81      1.0  0.19981324200363382  0.7478278592503556  0.8527601425631877  1.0000
  S   S161      1.0  0.24955522192152962  0.7797781592369766  0.863981475508101  1.0000
  S   S162      1.0  0.16161181764823832  0.7497743406820939  0.8244828826073476  1.0000
  Fe  Fe82      1.0  0.2014326414457851  0.6974611604486378  0.889031320675235  1.0000
  S   S163      1.0  0.250717884370199  0.724430304983325  0.9033312158240993  1.0000
  S   S164      1.0  0.17337851405076626  0.6503706893132358  0.905101795191444  1.0000
  Fe  Fe83      1.0  0.2389435003100264  0.7600924652477226  0.914585325036883  1.0000
  S   S165      1.0  0.2590544668977002  0.7860064627948038  0.9612244603380239  1.0000
  Fe  Fe84      1.0  0.25756188623492443  0.7415853999043602  0.8522940207020183  1.0000
  S   S166      1.0  0.2951624449561681  0.7406887594102091  0.8229866923447252  1.0000
  S   S167      1.0  0.18878993044286568  0.7316692770472398  0.9045645850118874  1.0000
  S   S168      1.0  0.20916452377094205  0.7114335718923794  0.836805687587439  1.0000
  Fe  Fe85      1.0  0.22952736775779814  0.7706993087965209  0.20616125170317692  1.0000
  S   S169      1.0  0.25063196190570897  0.7860193947591669  0.15642624357430815  1.0000
  S   S170      1.0  0.23142378757402782  0.8055741318329303  0.24159822878670933  1.0000
  Fe  Fe86      1.0  0.22600358897341724  0.710142240362541  0.19662647290729007  1.0000
  S   S171      1.0  0.24756122884021747  0.7216154888174955  0.14709243501734204  1.0000
  S   S172      1.0  0.21324431611544373  0.6665501153736687  0.22050600843805673  1.0000
  Fe  Fe87      1.0  0.27955725870117726  0.7652871197308839  0.16936620867224972  1.0000
  S   S173      1.0  0.33002201809782683  0.7871113570756372  0.15861097904801832  1.0000
  Fe  Fe88      1.0  0.21636323758783496  0.7406874689629411  0.13902543154908906  1.0000
  S   S174      1.0  0.18864795765289324  0.7268626761554243  0.09242028371989609  1.0000
  S   S175      1.0  0.2606789880241828  0.7526031572059002  0.21990222647331129  1.0000
  S   S176      1.0  0.19241463380763696  0.7266135931977709  0.18769894770589382  1.0000
  Fe  Fe89      1.0  0.49985793185053473  0.7733200138758547  0.8484827791050258  1.0000
  S   S177      1.0  0.49752638725903336  0.7901593077626606  0.8988744427636275  1.0000
  S   S178      1.0  0.5301577931655238  0.8066806110770025  0.8104674753293014  1.0000
  Fe  Fe90      1.0  0.4432733579511006  0.7127345486303883  0.8618320257735957  1.0000
  S   S179      1.0  0.4366933243687672  0.7256832683070569  0.9122907425125829  1.0000
  S   S180      1.0  0.41086851663887575  0.6684179572200262  0.8393238067075125  1.0000
  Fe  Fe91      1.0  0.4467206575284489  0.7685902388529288  0.8899708800032735  1.0000
  S   S181      1.0  0.41906249265651063  0.7911712842099443  0.9026308238465046  1.0000
  Fe  Fe92      1.0  0.48774900715634073  0.7454789787140492  0.9162341116867507  1.0000
  S   S182      1.0  0.5062154409721065  0.7330268783793814  0.9600425851371404  1.0000
  S   S183      1.0  0.44943091389558093  0.7542448737127309  0.8388522025846232  1.0000
  S   S184      1.0  0.49409536597944737  0.7299914766762611  0.8665552344605063  1.0000
  Fe  Fe93      1.0  0.4343503753193991  0.7263811008762773  0.2016726918443118  1.0000
  S   S185      1.0  0.42474200537056067  0.7134426906319  0.14891022725171782  1.0000
  S   S186      1.0  0.3970771329448111  0.727380872119415  0.23152664531360614  1.0000
  Fe  Fe94      1.0  0.4961719669529605  0.7282241369608197  0.20096550407713  1.0000
  S   S187      1.0  0.49052995898177965  0.7135811171799629  0.14825268540575728  1.0000
  S   S188      1.0  0.5406054826658667  0.735945203243263  0.2248329813328989  1.0000
  Fe  Fe95      1.0  0.4741713397347719  0.7463268672941361  0.1408840941218763  1.0000
  S   S189      1.0  0.491022054183277  0.7789098416081719  0.0994807637133866  1.0000
  Fe  Fe96      1.0  0.44168565064423543  0.681802019700725  0.1609107667997523  1.0000
  S   S190      1.0  0.41473728425753364  0.6366162637201511  0.13803168113604078  1.0000
  S   S191      1.0  0.4822469507771378  0.7628885949514306  0.1929664196484019  1.0000
  S   S192      1.0  0.44869543011315305  0.6928384999191006  0.2144492529187356  1.0000
  C   C1        1.0  0.5003296291363979  0.7451430477670247  0.9984376763287314  1.0000
  C   C2        1.0  0.49612156215266495  0.7698459133127881  0.0012915196580991495  1.0000
  C   C3        1.0  0.49317654734799843  0.7800092516878777  0.03240739108230026  1.0000
  C   C4        1.0  0.49344754535911517  0.7649996263328052  0.060692047087148676  1.0000
  C   C5        1.0  0.4968461085351863  0.7398446107072073  0.05769817354048809  1.0000
  C   C6        1.0  0.5007196917999578  0.7302090340702321  0.026698623049383308  1.0000
  H   H1        1.0  0.4959102717692733  0.7815551933571643  0.9796185897916184  1.0000
  H   H2        1.0  0.4906146945196391  0.7995094007451915  0.03456883339426986  1.0000
  H   H3        1.0  0.49708382831279424  0.7280909040721489  0.07924391765662869  1.0000
  H   H4        1.0  0.5039770510036592  0.7111025657848663  0.024655453005530292  1.0000
  C   C7        1.0  0.3482572225886189  0.769533473756212  0.17779315163855197  1.0000
  C   C8        1.0  0.37805402956769246  0.7763267203116491  0.16863350480185887  1.0000
  C   C9        1.0  0.3931145181882392  0.7630962608297306  0.18468452845969896  1.0000
  C   C10       1.0  0.3787716030403025  0.7439046921891581  0.21069227671668045  1.0000
  C   C11       1.0  0.34916823212280373  0.7373875379522382  0.22004370704825305  1.0000
  C   C12       1.0  0.3336505871962747  0.7495459771225269  0.20306720402290016  1.0000
  H   H5        1.0  0.38947362597268076  0.7917048987303784  0.1490333451523748  1.0000
  H   H6        1.0  0.41604087066625184  0.7682148632599816  0.1773704879989889  1.0000
  H   H7        1.0  0.3380292102339783  0.7225478151860557  0.24015451505324345  1.0000
  H   H8        1.0  0.31057035417642614  0.7437053347521921  0.20998484329990105  1.0000
  C   C13       1.0  0.38449127478128486  0.776989248745154  0.88066521090852  1.0000
  C   C14       1.0  0.36465438315764154  0.7885968390637423  0.8860339702752932  1.0000
  C   C15       1.0  0.3367382501375827  0.7771008541084174  0.8689221856403454  1.0000
  C   C16       1.0  0.32942094804297956  0.7549815345301737  0.8452818299916969  1.0000
  C   C17       1.0  0.3496097706289516  0.7439395995927526  0.8393953468056964  1.0000
  C   C18       1.0  0.37666369928277743  0.7543382107659097  0.8576810659755427  1.0000
  H   H9        1.0  0.37079981387219874  0.8063900669212927  0.9034786467530762  1.0000
  H   H10       1.0  0.32124752604379514  0.78584524919101  0.8733218679660045  1.0000
  H   H11       1.0  0.344140909909495  0.7271137527742474  0.8208885711338904  1.0000
  H   H12       1.0  0.391354902225667  0.7447579891673994  0.8538578936352816  1.0000
  C   C19       1.0  0.23938016771460854  0.7693305935409318  0.9975757433681952  1.0000
  C   C20       1.0  0.2520379782236259  0.7825088095922301  0.027884799555631057  1.0000
  C   C21       1.0  0.23701038508632902  0.7692951433035008  0.05718730687714846  1.0000
  C   C22       1.0  0.2088561104029038  0.7432044542761884  0.0562547646405409  1.0000
  C   C23       1.0  0.19627964699950867  0.7299890585371553  0.02597874954513313  1.0000
  C   C24       1.0  0.2116911103185815  0.742796131905265  0.9967526608634247  1.0000
  H   H13       1.0  0.2734589570444749  0.8030268693348767  0.028718566472220708  1.0000
  H   H14       1.0  0.24684325512849345  0.7796824836319315  0.08042004483305243  1.0000
  H   H15       1.0  0.17455947561665075  0.7097866652722031  0.025072533458451177  1.0000
  H   H16       1.0  0.20190482775411248  0.7322723250821622  0.9736192323258027  1.0000
  C   C25       1.0  0.3852357671937223  0.6098823928602591  0.1620493132775539  1.0000
  C   C26       1.0  0.3624129022724784  0.5842032962509671  0.1470203021338234  1.0000
  C   C27       1.0  0.33824718736181414  0.5628329649226723  0.16555787187367887  1.0000
  C   C28       1.0  0.3370006179863943  0.5669240481705572  0.19927537422762454  1.0000
  C   C29       1.0  0.36014134933509073  0.5922728244028181  0.21444470020773768  1.0000
  C   C30       1.0  0.38403219362947427  0.6138756161003182  0.19580294383492944  1.0000
  H   H17       1.0  0.36347095788867106  0.580848847014304  0.12099483369038067  1.0000
  H   H18       1.0  0.32096729081127134  0.5429364259637461  0.15383836637811948  1.0000
  H   H19       1.0  0.35940733172076406  0.5954432308252696  0.240560387780119  1.0000
  H   H20       1.0  0.4017405309161258  0.633357116058178  0.20766422656833097  1.0000
  C   C31       1.0  0.21329423903779696  0.5924550855646027  0.1589056423493735  1.0000
  C   C32       1.0  0.2082868000005882  0.5890642976326488  0.19264571511763479  1.0000
  C   C33       1.0  0.20867176219873504  0.6120687232085076  0.21151558707165624  1.0000
  C   C34       1.0  0.21457257722774503  0.6386474526758534  0.1968093174503119  1.0000
  C   C35       1.0  0.22056505947027027  0.642215231449184  0.16327723622647408  1.0000
  C   C36       1.0  0.21962935705842976  0.6191318792118814  0.14434374646611695  1.0000
  H   H21       1.0  0.20312771224089596  0.5684263586137602  0.20402513599806013  1.0000
  H   H22       1.0  0.20398670618891637  0.6091158663844942  0.23748039595335815  1.0000
  H   H23       1.0  0.2252183865920195  0.6624444067967908  0.15169055017683705  1.0000
  H   H24       1.0  0.2236806393673926  0.6218810139199986  0.11826962030382147  1.0000
  C   C37       1.0  0.3409299753845493  0.5933910021154681  0.9025531246838487  1.0000
  C   C38       1.0  0.34317284318518204  0.5891328807469469  0.8690645729364443  1.0000
  C   C39       1.0  0.364877649373003  0.6122656185908302  0.8499947036238404  1.0000
  C   C40       1.0  0.38418322352052203  0.6398876468229673  0.8641858794436147  1.0000
  C   C41       1.0  0.3818227991166036  0.6441569924176923  0.8976730653072549  1.0000
  C   C42       1.0  0.3604990137230559  0.6208685354205322  0.916887531583591  1.0000
  H   H25       1.0  0.3285518750239437  0.5678374760132674  0.8579162554187406  1.0000
  H   H26       1.0  0.3667180747248088  0.6087014420686493  0.8241385291361105  1.0000
  H   H27       1.0  0.3964030134155377  0.6652900362243068  0.9088637610358838  1.0000
  H   H28       1.0  0.3588408236444079  0.6242772735135553  0.9428000151840098  1.0000
  C   C43       1.0  0.1993954476270758  0.5879910473341017  0.8514497410127703  1.0000
  C   C44       1.0  0.20123950998922044  0.6125970738325383  0.8355159629154697  1.0000
  C   C45       1.0  0.19398092719119442  0.6321335135109035  0.8521794067792596  1.0000
  C   C46       1.0  0.1837016587914383  0.626579716632026  0.8845150950998268  1.0000
  C   C47       1.0  0.18109061464248494  0.6015614829096236  0.900258763828609  1.0000
  C   C48       1.0  0.18937871670201264  0.5825063103674714  0.8839057900861517  1.0000
  H   H29       1.0  0.20842383629047143  0.6166724584460805  0.8102368392026901  1.0000
  H   H30       1.0  0.19572945668936922  0.6511052654267893  0.8396738642164697  1.0000
  H   H31       1.0  0.1729533667126518  0.5970609488613665  0.925217280188542  1.0000
  H   H32       1.0  0.18741807162215146  0.5632982662767488  0.8961936276529102  1.0000
  C   C49       1.0  0.18960552813471637  0.46426195263865305  0.993994734030319  1.0000
  C   C50       1.0  0.177573845004573  0.46576995844545527  0.02453414899947637  1.0000
  C   C51       1.0  0.19168972145977076  0.46399592369888304  0.05353795674164854  1.0000
  C   C52       1.0  0.21733013493349151  0.459751961564903  0.052100490020841515  1.0000
  C   C53       1.0  0.22862980156036547  0.45714141909936473  0.02155072751867415  1.0000
  C   C54       1.0  0.21516547857407375  0.45990608883202727  0.992604483555779  1.0000
  H   H33       1.0  0.15764444443017553  0.46889319951088765  0.02579492925708582  1.0000
  H   H34       1.0  0.18262583460090595  0.4658027016985782  0.07693891580490399  1.0000
  H   H35       1.0  0.24831825114062428  0.45363907686041466  0.020296119463390605  1.0000
  H   H36       1.0  0.2243994552931402  0.45827831432338084  0.9692920440628355  1.0000
  C   C55       1.0  0.5626179775048697  0.7656667559469591  0.2517857818915362  1.0000
  C   C56       1.0  0.5899547090280647  0.7684096857307171  0.2648026077591438  1.0000
  C   C57       1.0  0.6087244245228591  0.7923015299162901  0.2854265385709343  1.0000
  C   C58       1.0  0.6003833874778228  0.8137947818678359  0.29296030286161184  1.0000
  C   C59       1.0  0.5729979335214525  0.811033362268818  0.28003603953195416  1.0000
  C   C60       1.0  0.5540896465589842  0.7869973695877034  0.25962414026166597  1.0000
  H   H37       1.0  0.5967110566422271  0.7520020820434778  0.258824940008951  1.0000
  H   H38       1.0  0.6298011640342597  0.7942440115857436  0.29516379648498425  1.0000
  H   H39       1.0  0.5663904918829289  0.8275802128252131  0.2858104043434217  1.0000
  H   H40       1.0  0.5329814267973926  0.7850187025215636  0.24996299731259797  1.0000
  C   C61       1.0  0.758599696473668  0.9696211114424204  0.37818515200475167  1.0000
  C   C62       1.0  0.7705628533740011  0.9970734416446633  0.39413841235782354  1.0000
  C   C63       1.0  0.7756730367520881  0.022343713348951244  0.37685730309473364  1.0000
  C   C64       1.0  0.7696800640348299  0.020527533704571832  0.3432819281209611  1.0000
  C   C65       1.0  0.7574462490699745  0.9930231834125839  0.3273600779230217  1.0000
  C   C66       1.0  0.751719406609734  0.9675677988188871  0.344793072315463  1.0000
  H   H41       1.0  0.7756225057226089  0.9986905969614945  0.42003393475481643  1.0000
  H   H42       1.0  0.7841651429515406  0.043156631230412135  0.38954697365366736  1.0000
  H   H43       1.0  0.7525510147091473  0.9914072431592699  0.30141445637458275  1.0000
  H   H44       1.0  0.7424872554245419  0.9464864540008148  0.33229236530425227  1.0000
  C   C67       1.0  0.7712724140125484  0.7601677203828605  0.3896129309228478  1.0000
  C   C68       1.0  0.7754873938300876  0.7609944782422552  0.35574179533897876  1.0000
  C   C69       1.0  0.7671148199548963  0.7781672773644196  0.33628548927841284  1.0000
  C   C70       1.0  0.7541400690902531  0.7942417497770008  0.3506147981209941  1.0000
  C   C71       1.0  0.7489679556101767  0.7925295683216129  0.38433940187790955  1.0000
  C   C72       1.0  0.7576560294292253  0.7756485847514426  0.4037954453928773  1.0000
  H   H45       1.0  0.7853027695287548  0.7485789372199775  0.34457839536658935  1.0000
  H   H46       1.0  0.7707590642437969  0.7791538318762347  0.3101157333365794  1.0000
  H   H47       1.0  0.7385613529840342  0.8044609465266823  0.39550991178784317  1.0000
  H   H48       1.0  0.754000940292603  0.7747867469364863  0.4299566092608313  1.0000
  C   C73       1.0  0.17379130972315834  0.37235426029120045  0.29437127084740283  1.0000
  C   C74       1.0  0.19031766878205042  0.38391699987552363  0.2653675527069759  1.0000
  C   C75       1.0  0.1866402876303996  0.4049842410543248  0.24729731852077114  1.0000
  C   C76       1.0  0.16662207790009634  0.4149111216690719  0.2582842728869407  1.0000
  C   C77       1.0  0.15009922119606287  0.4033569335348625  0.28730875012954554  1.0000
  C   C78       1.0  0.15372123860044176  0.38222115525579886  0.3053475976868184  1.0000
  H   H49       1.0  0.20584179968793098  0.37632968259391536  0.2566661333133516  1.0000
  H   H50       1.0  0.1989879039379713  0.41323521361415966  0.22463730568931015  1.0000
  H   H51       1.0  0.13461664079387342  0.41099223989167105  0.29601555441587946  1.0000
  H   H52       1.0  0.1413250894639746  0.3738821037233776  0.3279844700658722  1.0000
  C   C79       1.0  0.9996330432592748  0.21945106438389267  0.3430691038890299  1.0000
  C   C80       1.0  0.9709300479473999  0.21511742263959585  0.33262795998261047  1.0000
  C   C81       1.0  0.9437595304860474  0.19261575477184772  0.34616364178156034  1.0000
  C   C82       1.0  0.9452113624623942  0.1741028401471637  0.36991556989437446  1.0000
  C   C83       1.0  0.9739093120860262  0.17830106268378507  0.38020541792225215  1.0000
  C   C84       1.0  0.0010711785780650462  0.20101806752086607  0.36694659755976866  1.0000
  H   H53       1.0  0.969651483591103  0.22930731539414875  0.31416685088264307  1.0000
  H   H54       1.0  0.9217095135828633  0.18954041289041362  0.33811641169535583  1.0000
  H   H55       1.0  0.9751381510699887  0.16396351598340633  0.3985091520381433  1.0000
  H   H56       1.0  0.023078625517995333  0.20392860649742092  0.3747937761429792  1.0000
  C   C85       1.0  0.18065198688746748  0.1770392814091698  0.3452070813149151  1.0000
  C   C86       1.0  0.173158620646438  0.16957462278894253  0.37798642437873203  1.0000
  C   C87       1.0  0.16024353282536888  0.183538804761977  0.3967162191187157  1.0000
  C   C88       1.0  0.15465971837314832  0.20509953574209505  0.3828545882945149  1.0000
  C   C89       1.0  0.16157048926959006  0.21228496407908176  0.3498672940174996  1.0000
  C   C90       1.0  0.17442742419788196  0.1981467143228718  0.3310359489906967  1.0000
  H   H57       1.0  0.17708924350767838  0.15286065486645323  0.388925866600698  1.0000
  H   H58       1.0  0.15477557125270325  0.1777412915256734  0.4221498558383183  1.0000
  H   H59       1.0  0.15746052058354565  0.22900109367185736  0.3390123734340776  1.0000
  H   H60       1.0  0.18005913866794282  0.2039568088381259  0.3056316052858618  1.0000
  C   C91       1.0  0.1476858255215134  0.7959802716296892  0.2986790709168064  1.0000
  C   C92       1.0  0.14389893219400962  0.7759277247556107  0.27343635731105576  1.0000
  C   C93       1.0  0.1694051960830514  0.778297336230774  0.2560608092596207  1.0000
  C   C94       1.0  0.19888466348377298  0.8008994030047714  0.26371286712748077  1.0000
  C   C95       1.0  0.202684713598482  0.8208896676519603  0.2890643135797648  1.0000
  C   C96       1.0  0.17721101099381142  0.8183526888901347  0.30662833985239674  1.0000
  H   H61       1.0  0.1211402227342443  0.7585171785408713  0.2671893332265346  1.0000
  H   H62       1.0  0.16622966471175973  0.7628141743028601  0.23656559768903432  1.0000
  H   H63       1.0  0.2254597873565542  0.8382692343686173  0.2953034420832579  1.0000
  H   H64       1.0  0.1804463365860608  0.8335335331869451  0.3264499863088007  1.0000
  C   C97       1.0  0.994987965846167  0.7986910433751088  0.4005890558685987  1.0000
  C   C98       1.0  0.9960083194399608  0.8076153388111288  0.36823097823575696  1.0000
  C   C99       1.0  0.9692263756571814  0.7948556458411342  0.3489920785147227  1.0000
  C   C100      1.0  0.9413953183391119  0.7731299168770881  0.3620116744468225  1.0000
  C   C101      1.0  0.9403823814754635  0.7643234928450662  0.3944182738707327  1.0000
  C   C102      1.0  0.9670722346510292  0.777254624116884  0.4137167528021857  1.0000
  H   H65       1.0  0.017389576372668608  0.8243779604039833  0.3580579549096267  1.0000
  H   H66       1.0  0.9701001684496837  0.80178290071209  0.323935532005479  1.0000
  H   H67       1.0  0.9191385724589639  0.7473651906848789  0.4045400559295848  1.0000
  H   H68       1.0  0.9662435411680832  0.7702495484733929  0.4387187521381238  1.0000
  C   C103      1.0  0.16104238260487433  0.9641533816121479  0.3599083470700022  1.0000
  C   C104      1.0  0.16410486662811766  0.9649354225416723  0.3939552516630158  1.0000
  C   C105      1.0  0.17813255327037425  0.9921288210161333  0.4107518772377419  1.0000
  C   C106      1.0  0.18951669137356825  0.018738949539048453  0.3936329317126236  1.0000
  C   C107      1.0  0.18679570869164722  0.018000854060926382  0.3595432691046979  1.0000
  C   C108      1.0  0.17247860836430534  0.9907541177886864  0.3427533740705223  1.0000
  H   H69       1.0  0.1555806640113131  0.9446140750352348  0.4073643967030682  1.0000
  H   H70       1.0  0.180199751096452  0.9925323357132033  0.4370874080488163  1.0000
  H   H71       1.0  0.19542268928738696  0.03837935087485704  0.3461745631478958  1.0000
  H   H72       1.0  0.17016276205471495  0.9903190922037567  0.3164301032417297  1.0000
  C   C109      1.0  0.2994274200186111  0.15530085984966782  0.5464558439094976  1.0000
  C   C110      1.0  0.2801864919180696  0.16790273515707052  0.5476117800850866  1.0000
  C   C111      1.0  0.27487888354644535  0.17983402866228032  0.5192530175349597  1.0000
  C   C112      1.0  0.2880983364947181  0.17846485835039552  0.4894691206206544  1.0000
  C   C113      1.0  0.30744302897329423  0.16597728792712485  0.488277942685985  1.0000
  C   C114      1.0  0.31343073146758904  0.15477811062452268  0.5168569886545925  1.0000
  H   H73       1.0  0.26917707410758435  0.16829402672101895  0.5702818659647773  1.0000
  H   H74       1.0  0.25992891422566505  0.1894983304301408  0.5202896053541175  1.0000
  H   H75       1.0  0.3179738459456252  0.16516358550770938  0.46539211544654746  1.0000
  H   H76       1.0  0.3285405583312308  0.14528027581945296  0.5158936150181451  1.0000
  C   C115      1.0  0.1510939367626723  0.37671784322456914  0.762010208445033  1.0000
  C   C116      1.0  0.14848469723879537  0.3990468215465303  0.7790988723549861  1.0000
  C   C117      1.0  0.1732436489881871  0.4204493626933065  0.797577453948015  1.0000
  C   C118      1.0  0.20075544246652383  0.4194830979834909  0.7994981789117245  1.0000
  C   C119      1.0  0.2032714447192684  0.39700405977263503  0.7826541437598243  1.0000
  C   C120      1.0  0.17861922127613855  0.3757735792986457  0.7638788117732231  1.0000
  H   H77       1.0  0.12734942202410174  0.4000545325518452  0.7776532079342825  1.0000
  H   H78       1.0  0.17109834490241124  0.43781766367441166  0.8100570979621347  1.0000
  H   H79       1.0  0.2244819549556541  0.39610744954066845  0.7839460499088661  1.0000
  H   H80       1.0  0.18092767664187284  0.3587053098018145  0.7508539761616355  1.0000
  C   C121      1.0  0.14732706343548166  0.3144799750969028  0.556935587988088  1.0000
  C   C122      1.0  0.11703501173978542  0.30915997671793694  0.5586144998900066  1.0000
  C   C123      1.0  0.10120849328011168  0.308348955268985  0.5298700573409728  1.0000
  C   C124      1.0  0.11526848881538015  0.31205566252926886  0.499228863919072  1.0000
  C   C125      1.0  0.14529339534099805  0.31661907887984614  0.4974676790585331  1.0000
  C   C126      1.0  0.16141152430209924  0.31822022508464487  0.5262867792486927  1.0000
  H   H81       1.0  0.10589286296686341  0.3060535108358863  0.5820714034703616  1.0000
  H   H82       1.0  0.07801609535076082  0.30485819561633626  0.5314468909799472  1.0000
  H   H83       1.0  0.15642424297530755  0.3198133042493244  0.4739909876400562  1.0000
  H   H84       1.0  0.184882331798059  0.3224850148310716  0.5248310203953809  1.0000
  C   C127      1.0  0.15774435479331383  0.21529277350544074  0.6925853907127417  1.0000
  C   C128      1.0  0.16853900890360365  0.22856461895106717  0.6622302783900503  1.0000
  C   C129      1.0  0.18388737348483639  0.21837287310982653  0.6414429813341224  1.0000
  C   C130      1.0  0.18858607765442525  0.19496128577644267  0.6508886985399978  1.0000
  C   C131      1.0  0.17774921252742593  0.18160522764084316  0.6811701914221362  1.0000
  C   C132      1.0  0.16238191869509394  0.19180707897713228  0.702029049437685  1.0000
  H   H85       1.0  0.1656777466094255  0.2471216699172013  0.6551201646960672  1.0000
  H   H86       1.0  0.19275095734757353  0.22906104141699216  0.6183002783905778  1.0000
  H   H87       1.0  0.18091779846283534  0.16323949213566677  0.6883673051587664  1.0000
  H   H88       1.0  0.15397177380762225  0.18145026033154812  0.7254673028351546  1.0000
  C   C133      1.0  0.17684868431547576  0.8278221415029213  0.7599032169806593  1.0000
  C   C134      1.0  0.2018186286767454  0.8278890998167784  0.7758900496939561  1.0000
  C   C135      1.0  0.19752358319921037  0.8041824515571764  0.7958261710344641  1.0000
  C   C136      1.0  0.16814403764455602  0.7801973786688827  0.7999356777281859  1.0000
  C   C137      1.0  0.14317637865906763  0.7800925454809996  0.7838958627053819  1.0000
  C   C138      1.0  0.14746318699192884  0.8038256799716926  0.764029905190282  1.0000
  H   H89       1.0  0.22461761893204182  0.846398290064208  0.7728730037401985  1.0000
  H   H90       1.0  0.21691077633658346  0.8045373653265403  0.8081016161191996  1.0000
  H   H91       1.0  0.12034737956522173  0.7617059476573246  0.7870987128789868  1.0000
  H   H92       1.0  0.12799880525024024  0.8036420877567698  0.7521543917319402  1.0000
  C   C139      1.0  0.12879133450432423  0.8208221021648563  0.5602046944869243  1.0000
  C   C140      1.0  0.15753788646707204  0.8461943269158916  0.5608447314903856  1.0000
  C   C141      1.0  0.17160199818436955  0.8600485577562862  0.5315247557717114  1.0000
  C   C142      1.0  0.15643494375608707  0.8493634064456416  0.501580043673714  1.0000
  C   C143      1.0  0.12772971402790065  0.8239019897920288  0.5009248885430022  1.0000
  C   C144      1.0  0.11416224499478479  0.8093851675425265  0.5301681389732773  1.0000
  H   H93       1.0  0.169134746770342  0.8550235781500439  0.583848728440248  1.0000
  H   H94       1.0  0.19392969224743312  0.8795924710997785  0.5321277723978546  1.0000
  H   H95       1.0  0.11588839383906131  0.8154507838335482  0.4779801406450376  1.0000
  H   H96       1.0  0.0919632878532529  0.7896844087676371  0.5295822857828008  1.0000
  C   C145      1.0  0.17085280399056957  0.9758025595606141  0.648954442268862  1.0000
  C   C146      1.0  0.16782755417405415  0.9765288341878117  0.6829082841408586  1.0000
  C   C147      1.0  0.17901852215902023  0.003717474161913704  0.6994716386410016  1.0000
  C   C148      1.0  0.19346485136159916  0.030339933743857336  0.6822596249662082  1.0000
  C   C149      1.0  0.19677972366722843  0.029664499005919644  0.6483160555890883  1.0000
  C   C150      1.0  0.1853769974626886  0.00244718452294701  0.6317134230549729  1.0000
  H   H97       1.0  0.15663699062065797  0.9561480333239522  0.6963963508151645  1.0000
  H   H98       1.0  0.1763077522109824  0.004058838799278375  0.7257053320117384  1.0000
  H   H99       1.0  0.20792342810848183  0.05006799901099125  0.6348842720461138  1.0000
  H   H100      1.0  0.18782386403676526  0.0020198647134621606  0.6054680506922687  1.0000
  C   C151      1.0  0.6075654447564065  0.8011500168685376  0.7548453692848512  1.0000
  C   C152      1.0  0.5980204816837024  0.8213302256763122  0.7455661174426742  1.0000
  C   C153      1.0  0.5742236060836667  0.8227374048967675  0.7627790679900409  1.0000
  C   C154      1.0  0.5594984085954035  0.8037168666381787  0.7890676708928922  1.0000
  C   C155      1.0  0.5688587635787969  0.7833685834201056  0.7981123408474011  1.0000
  C   C156      1.0  0.5928282073011993  0.7821668296702494  0.7811021335137524  1.0000
  H   H101      1.0  0.6086857850811066  0.8355195364370065  0.7248848612294404  1.0000
  H   H102      1.0  0.5669182652903699  0.8383454169416407  0.7554108055001402  1.0000
  H   H103      1.0  0.5577282329975525  0.7686161926331637  0.8182776762868618  1.0000
  H   H104      1.0  0.5999850344378709  0.7663891403125215  0.7883026198053964  1.0000
  C   C157      1.0  0.6611600549076181  0.8542984675450453  0.5495336944296212  1.0000
  C   C158      1.0  0.6460731027213017  0.8234684645657993  0.5487323552220973  1.0000
  C   C159      1.0  0.6444316320041542  0.8084391690273464  0.5193847007098645  1.0000
  C   C160      1.0  0.6580707155358415  0.8241710961375921  0.490833030323325  1.0000
  C   C161      1.0  0.6728852312088145  0.854987936377474  0.49152353824429873  1.0000
  C   C162      1.0  0.6741157854144358  0.8699954327477181  0.5207556818370465  1.0000
  H   H105      1.0  0.6356153130847175  0.8112492773782569  0.5707600010619821  1.0000
  H   H106      1.0  0.6328169063964375  0.7845780235069898  0.5189297381293059  1.0000
  H   H107      1.0  0.6835441880126677  0.8673244682193251  0.46963611840303904  1.0000
  H   H108      1.0  0.6855511850066389  0.8938573101445091  0.5212160226987071  1.0000
  C   C163      1.0  0.7954859606285789  0.663558919698633  0.5515088161188746  1.0000
  C   C164      1.0  0.7891677791159476  0.6723861493495129  0.5215287319370436  1.0000
  C   C165      1.0  0.8042606167543896  0.6712620661796643  0.4929561063718156  1.0000
  C   C166      1.0  0.824957600212908  0.6603317943823299  0.49404049991222265  1.0000
  C   C167      1.0  0.8308792317202222  0.6510064171037899  0.5239453950601659  1.0000
  C   C168      1.0  0.8165526953250499  0.653048474326393  0.5527476192369208  1.0000
  H   H109      1.0  0.7728351572531337  0.6804643474476324  0.5204569896579114  1.0000
  H   H110      1.0  0.7996860198661863  0.678705401417852  0.47010255307019805  1.0000
  H   H111      1.0  0.8466715563251168  0.6422940975250253  0.52483834614856  1.0000
  H   H112      1.0  0.8212948752338732  0.6458874518567657  0.5757226657761222  1.0000
  C   C169      1.0  0.9511990804017415  0.769533168484644  0.654283518024643  1.0000
  C   C170      1.0  0.9794408414519717  0.7861957586619472  0.6386194924168562  1.0000
  C   C171      1.0  0.005682606103851517  0.8052739643191021  0.6567139097070684  1.0000
  C   C172      1.0  0.0037521890227798726  0.8081520176800662  0.6905515736132931  1.0000
  C   C173      1.0  0.9755414433218113  0.791207019622518  0.7063030740683073  1.0000
  C   C174      1.0  0.9493710925577432  0.7716920397615129  0.6882460353373387  1.0000
  H   H113      1.0  0.9811108440929979  0.784417598731685  0.6124040610214357  1.0000
  H   H114      1.0  0.02729960491612337  0.8180616448118756  0.6443899540801902  1.0000
  H   H115      1.0  0.9740729303765671  0.7930304511949733  0.7325582242179621  1.0000
  H   H116      1.0  0.9279003668647156  0.7582465500562976  0.7005667150550294  1.0000
  C   C175      1.0  0.7930778348270258  0.7748843209976737  0.6941420466544235  1.0000
  C   C176      1.0  0.7790744787016626  0.7890865693271623  0.7106372053369587  1.0000
  C   C177      1.0  0.7679199594410904  0.8052509763373704  0.693191914368172  1.0000
  C   C178      1.0  0.7713535373655771  0.8077940066433235  0.6592076192551181  1.0000
  C   C179      1.0  0.7856367352604249  0.7938523162935055  0.6428125868260082  1.0000
  C   C180      1.0  0.7961832956447031  0.7772431236638827  0.6601449352009989  1.0000
  H   H117      1.0  0.7765837180933026  0.7873802378217809  0.7369498549401688  1.0000
  H   H118      1.0  0.7569933404763768  0.8159746076863824  0.7060585649979559  1.0000
  H   H119      1.0  0.7884128419353285  0.7957564183630572  0.6165524924917701  1.0000
  H   H120      1.0  0.8068583513461184  0.7664718896867833  0.6471270870442559  1.0000
  C   C181      1.0  0.8413816058938397  0.17100429154023594  0.5385484653017598  1.0000
  C   C182      1.0  0.8547454868564769  0.17107911960659228  0.5083201237174602  1.0000
  C   C183      1.0  0.836661593805523  0.161077025871378  0.4799065159467351  1.0000
  C   C184      1.0  0.8052465461902193  0.1516835902338453  0.48148628518565934  1.0000
  C   C185      1.0  0.7919085147723013  0.15198932147728436  0.511636405801013  1.0000
  C   C186      1.0  0.809881654983448  0.16131642637188748  0.5402183248410957  1.0000
  H   H121      1.0  0.8791101981953341  0.17859923866734578  0.5069716791183277  1.0000
  H   H122      1.0  0.8471034510138367  0.16079200714624006  0.45679658857940586  1.0000
  H   H123      1.0  0.7676373991112406  0.14492678744231047  0.5129314540962957  1.0000
  H   H124      1.0  0.7995569438432143  0.16165846184462512  0.5634151105275085  1.0000
  C   C187      1.0  0.7571480373922351  0.970207412658335  0.6933345087288788  1.0000
  C   C188      1.0  0.7703525995371192  0.9982014285423768  0.7083656871187634  1.0000
  C   C189      1.0  0.7800865761051808  0.02378063264921826  0.6894251729559745  1.0000
  C   C190      1.0  0.7770367293967284  0.021411174611624784  0.6553420805735658  1.0000
  C   C191      1.0  0.7638625686660776  0.9934703535681255  0.6404403736563391  1.0000
  C   C192      1.0  0.7537364809037802  0.9679785317005193  0.6593466170198781  1.0000
  H   H125      1.0  0.7728235359488864  6.966405629182937e-05  0.7346901509651167  1.0000
  H   H126      1.0  0.7898550886355984  0.045231462626134755  0.7011284442439226  1.0000
  H   H127      1.0  0.7613360655559372  0.9914175507877879  0.6141218396426273  1.0000
  H   H128      1.0  0.7433157928422373  0.9465978811282395  0.647507090562069  1.0000
  C   C193      1.0  0.9392255371361399  0.18279346054204101  0.6959838861795405  1.0000
  C   C194      1.0  0.9380842517085809  0.19371384007436895  0.6652003558519913  1.0000
  C   C195      1.0  0.9653061978453481  0.21265721072570973  0.6488850144762447  1.0000
  C   C196      1.0  0.9938971922038686  0.22097168667718556  0.6632266176249565  1.0000
  C   C197      1.0  0.9951792870553321  0.21003202749803412  0.6940321856968338  1.0000
  C   C198      1.0  0.9678266750286502  0.190922879201993  0.710374414925669  1.0000
  H   H129      1.0  0.9162046253086646  0.18772752381290006  0.6539082488791088  1.0000
  H   H130      1.0  0.9641306132005615  0.22108541894964204  0.625104565850965  1.0000
  H   H131      1.0  0.01715977662607826  0.2162072825344352  0.7052018467513033  1.0000
  H   H132      1.0  0.9688217207947116  0.18247972743209717  0.7341844568936664  1.0000
  C   C199      1.0  0.3795642052197202  0.22075441949200683  0.2492786538934259  1.0000
  C   C200      1.0  0.36037594932292544  0.2229885986988289  0.273035183623956  1.0000
  C   C201      1.0  0.3430264937689361  0.19932846890919628  0.2941074293605672  1.0000
  C   C202      1.0  0.34433334148240474  0.17304101583624085  0.2911277993441112  1.0000
  C   C203      1.0  0.36386838094310786  0.17101928983978978  0.26770660408790087  1.0000
  C   C204      1.0  0.3814735215818698  0.19478626151078185  0.24691396319704093  1.0000
  H   H133      1.0  0.35897702308195906  0.2431040674973566  0.27516921602753813  1.0000
  H   H134      1.0  0.3284940141055992  0.20137048000596786  0.31240590933888607  1.0000
  H   H135      1.0  0.36512730729043136  0.15082966301081308  0.2653142102487893  1.0000
  H   H136      1.0  0.3962292762269313  0.19282521880024645  0.22880374388706556  1.0000
  C   C205      1.0  0.43689754491650007  0.24535343483929062  0.9846659014035339  1.0000
  C   C206      1.0  0.4288282562641768  0.21549125735996316  0.9847285119098877  1.0000
  C   C207      1.0  0.4266758206096025  0.20119396663526326  0.014393334614763555  1.0000
  C   C208      1.0  0.43352024093372754  0.21689086638873326  0.04404213335311001  1.0000
  C   C209      1.0  0.4414192928793306  0.2467282159436429  0.04401898146570255  1.0000
  C   C210      1.0  0.44269472256614456  0.26081638866831375  0.014410025515162905  1.0000
  H   H137      1.0  0.4236852360833837  0.20326229445375274  0.9619706223890322  1.0000
  H   H138      1.0  0.4202812919775534  0.17805103925300406  0.014294799884993159  1.0000
  H   H139      1.0  0.4469410599205839  0.25909837552065973  0.06669106371825467  1.0000
  H   H140      1.0  0.4488499481098489  0.2839051772427875  0.014482290051418545  1.0000
  C   C211      1.0  0.3865003380147096  0.1861111712143068  0.785517882185698  1.0000
  C   C212      1.0  0.3730594787718953  0.17078021196908474  0.7563612449245339  1.0000
  C   C213      1.0  0.35052690555566185  0.1748638462000497  0.7402589222154653  1.0000
  C   C214      1.0  0.3411668172475947  0.19421446661009184  0.7533437855378504  1.0000
  C   C215      1.0  0.3546753503278129  0.2096264508147799  0.7824406502320964  1.0000
  C   C216      1.0  0.3772321294439562  0.20554258709295167  0.7985552612688231  1.0000
  H   H141      1.0  0.38025870530518796  0.155804671788713  0.7460943299672748  1.0000
  H   H142      1.0  0.34061035437013193  0.1632180349586006  0.7176049542649534  1.0000
  H   H143      1.0  0.347479296886676  0.2245698660915267  0.792779384369149  1.0000
  H   H144      1.0  0.38725973230172045  0.21724350754215077  0.8211898855573565  1.0000
  C   C217      1.0  0.5947144500189118  0.21900243278980994  0.1541488610900589  1.0000
  C   C218      1.0  0.5682127449497769  0.21632634004388931  0.13915758528802108  1.0000
  C   C219      1.0  0.5475220319242341  0.22194606291549981  0.15710264987246045  1.0000
  C   C220      1.0  0.5532266844962671  0.23003135247487283  0.19015264761461712  1.0000
  C   C221      1.0  0.5793749646741153  0.23209813572807564  0.2052683520307221  1.0000
  C   C222      1.0  0.60013352956327  0.22669918450464763  0.18726350312089907  1.0000
  H   H145      1.0  0.5637601399368637  0.20992665931957985  0.11367400669295323  1.0000
  H   H146      1.0  0.5270107165074571  0.21964034335481467  0.14552819856790347  1.0000
  H   H147      1.0  0.5836703777392082  0.23804340689654443  0.23091497776057981  1.0000
  H   H148      1.0  0.6201528635743244  0.22823275816574728  0.19913332033103656  1.0000
  C   C223      1.0  0.8001814310236408  0.19480621036373913  0.2785264354691085  1.0000
  C   C224      1.0  0.79922209232283  0.21942908282765425  0.26587035449435803  1.0000
  C   C225      1.0  0.7737583027277068  0.21591393233870337  0.24759031892108752  1.0000
  C   C226      1.0  0.7492366512386065  0.18767577459801973  0.2416145686266797  1.0000
  C   C227      1.0  0.7503502757622152  0.16306375365344125  0.25404172176043316  1.0000
  C   C228      1.0  0.7757207573511123  0.16658588452382223  0.27245196789561044  1.0000
  H   H149      1.0  0.8181106351825598  0.2413343284119673  0.27049805989745995  1.0000
  H   H150      1.0  0.7730482730888959  0.23504367759850062  0.23831073630284105  1.0000
  H   H151      1.0  0.731479253675373  0.1411412008332368  0.24940169154580913  1.0000
  H   H152      1.0  0.7763652602764308  0.14744953427299595  0.2818404761200924  1.0000
  C   C229      1.0  0.7213177744042523  0.2265092873711985  0.9915537149465256  1.0000
  C   C230      1.0  0.7054828408308083  0.2147506079058844  0.020758168122699594  1.0000
  C   C231      1.0  0.7188753212450328  0.22749592315118225  0.05098060065349627  1.0000
  C   C232      1.0  0.7485815959651136  0.25151439716333635  0.05224933085422832  1.0000
  C   C233      1.0  0.7645442933194295  0.2631576283425689  0.023027238577859377  1.0000
  C   C234      1.0  0.7507643340277264  0.2509638901050416  0.9926755404334693  1.0000
  H   H153      1.0  0.6826867261275281  0.19589157836524926  0.020050565427722322  1.0000
  H   H154      1.0  0.7062598098845282  0.21846021203981056  0.07323296561013783  1.0000
  H   H155      1.0  0.7875042867203507  0.2817799246240264  0.023848319588891664  1.0000
  H   H156      1.0  0.7631740328990069  0.26009402916643387  0.9702465311676589  1.0000
  C   C235      1.0  0.7832811848808846  0.2238110587915567  0.7845629963077992  1.0000
  C   C236      1.0  0.7532140192178064  0.20407320429273867  0.7749465838433457  1.0000
  C   C237      1.0  0.7477690918120489  0.1830680757770442  0.750158537675766  1.0000
  C   C238      1.0  0.7722691992203545  0.18150213664216616  0.7350002104243308  1.0000
  C   C239      1.0  0.8023316373228336  0.20110400436063222  0.7448132964508246  1.0000
  C   C240      1.0  0.8077964478489927  0.22226235730126404  0.7694280277663227  1.0000
  H   H157      1.0  0.7341831084460055  0.20514124383232135  0.7863594050955741  1.0000
  H   H158      1.0  0.7244781163443361  0.167992185179837  0.7426169744692012  1.0000
  H   H159      1.0  0.8213333237480425  0.20005541055517448  0.7332985786165308  1.0000
  H   H160      1.0  0.8311019972781633  0.23742550099605858  0.7767855676667464  1.0000
  C   C241      1.0  0.6136413242856319  0.23032699969629186  0.8514406677438667  1.0000
  C   C242      1.0  0.6165095100958629  0.23434966352332737  0.8854000329248104  1.0000
  C   C243      1.0  0.5905544854585264  0.22716006443626685  0.9047227719945107  1.0000
  C   C244      1.0  0.5616429002444788  0.21609659022309752  0.8901294651334263  1.0000
  C   C245      1.0  0.5587941870133459  0.21234533453363036  0.8561726617891559  1.0000
  C   C246      1.0  0.5847302160414555  0.21947069719138834  0.8368799438071841  1.0000
  H   H161      1.0  0.6385778921120834  0.24281050785281955  0.8969026191394592  1.0000
  H   H162      1.0  0.5929010160647666  0.23037405840570097  0.9309631888980726  1.0000
  H   H163      1.0  0.5364582786608528  0.20313362078212246  0.8447917283268762  1.0000
  H   H164      1.0  0.5822837369628029  0.2161641460586513  0.8106350125847251  1.0000
  C   C247      1.0  0.6029154559318987  0.3977799130087341  0.18703383333313647  1.0000
  C   C248      1.0  0.5828389959030492  0.36919206766462787  0.19769651488418505  1.0000
  C   C249      1.0  0.5570285199411433  0.35047806491313277  0.17898525889860506  1.0000
  C   C250      1.0  0.5500930699682781  0.3608438702481579  0.15054740993809154  1.0000
  C   C251      1.0  0.5702391788337574  0.38941628352845403  0.1397243593589399  1.0000
  C   C252      1.0  0.5969717805726675  0.40770905478827046  0.15764177737242038  1.0000
  H   H165      1.0  0.5872631373120453  0.36149223656059803  0.220499650131852  1.0000
  H   H166      1.0  0.5421022787210793  0.3283386016753091  0.1871732317387126  1.0000
  H   H167      1.0  0.5650100516521231  0.3975341604537483  0.11769293099797437  1.0000
  H   H168      1.0  0.612385412337526  0.4298392499003652  0.1493811690119419  1.0000
  C   C253      1.0  0.7350377064070309  0.35056642753740763  0.19957021766587202  1.0000
  C   C254      1.0  0.7286751243889609  0.37231479374507026  0.2118127508672467  1.0000
  C   C255      1.0  0.7338232032212645  0.3964627750416126  0.19242645597644045  1.0000
  C   C256      1.0  0.7465633166205184  0.3996344127218057  0.1612160390307339  1.0000
  C   C257      1.0  0.7536425460158901  0.3782365468674013  0.14930844075028213  1.0000
  C   C258      1.0  0.7475001391570605  0.3535242580088833  0.16826020756937424  1.0000
  H   H169      1.0  0.7190564033190464  0.37010642113687725  0.23605141316760972  1.0000
  H   H170      1.0  0.7280048312274984  0.41256409967398155  0.20183751204209824  1.0000
  H   H171      1.0  0.7635606819993359  0.38055488151406935  0.1252092178565102  1.0000
  H   H172      1.0  0.7527965855263646  0.3369749154706363  0.15877935851600747  1.0000
  C   C259      1.0  0.7737266592906208  0.5690758935014016  0.24711412594940188  1.0000
  C   C260      1.0  0.798297119575597  0.5878952600473242  0.26750946076569027  1.0000
  C   C261      1.0  0.7961823752804221  0.6089717171185552  0.28773076320411434  1.0000
  C   C262      1.0  0.7694657536702262  0.6114411776501562  0.2875673295725856  1.0000
  C   C263      1.0  0.7449039081014136  0.5926244722127603  0.26718435558167153  1.0000
  C   C264      1.0  0.7469718869125564  0.5714716208012118  0.2470740692685786  1.0000
  H   H173      1.0  0.819062045986663  0.586176005219533  0.2676684105041336  1.0000
  H   H174      1.0  0.8152213049634431  0.6233311933411348  0.303322356815528  1.0000
  H   H175      1.0  0.7241696407402188  0.5943981047375214  0.26687631613685586  1.0000
  H   H176      1.0  0.7279405050991269  0.5571274739203105  0.23144495978958782  1.0000
  C   C265      1.0  0.7401813363905189  0.4037386726955887  0.8332757970642007  1.0000
  C   C266      1.0  0.7364526056494565  0.3771392226649315  0.8202094241393275  1.0000
  C   C267      1.0  0.7455393919178703  0.35977542872730894  0.8382175411588878  1.0000
  C   C268      1.0  0.7591836071467829  0.3693260182166304  0.8690097435093871  1.0000
  C   C269      1.0  0.763366455189135  0.3961731756009296  0.881838315250878  1.0000
  C   C270      1.0  0.7535078006289151  0.4131788345512871  0.8642013574070103  1.0000
  H   H177      1.0  0.7262485201519426  0.3698337466740278  0.7962333126782192  1.0000
  H   H178      1.0  0.7423641606106749  0.3392960425252252  0.8279372627656074  1.0000
  H   H179      1.0  0.7739923105372079  0.40373065078817894  0.9056034797962185  1.0000
  H   H180      1.0  0.7567263272025139  0.4338371334929189  0.8743172786080542  1.0000
  C   C271      1.0  0.5967412021196442  0.39349267722549364  0.8787339975015055  1.0000
  C   C272      1.0  0.5698545081816122  0.37090691496982925  0.8923369890928347  1.0000
  C   C273      1.0  0.5514104480140146  0.34515303459890995  0.8742170933895203  1.0000
  C   C274      1.0  0.5596102520248538  0.3420479954498905  0.84228136155969  1.0000
  C   C275      1.0  0.5862206677460315  0.36481006635460655  0.8284776200976326  1.0000
  C   C276      1.0  0.6049791711031155  0.3903286595745361  0.8468155284663138  1.0000
  H   H181      1.0  0.5631725039170128  0.373330243896875  0.9168783015828711  1.0000
  H   H182      1.0  0.5305406760886069  0.32800557437022915  0.8847940918219506  1.0000
  H   H183      1.0  0.5924460018468899  0.3626638673743584  0.8036342558018753  1.0000
  H   H184      1.0  0.6255537560235773  0.4076770495209693  0.8360613317147432  1.0000
  C   C277      1.0  0.7432881951624986  0.5080666743833342  0.985830931945554  1.0000
  C   C278      1.0  0.7222761145423753  0.5186436928788868  0.9849964790162966  1.0000
  C   C279      1.0  0.7075966919413856  0.5199455315537517  0.013834333893259611  1.0000
  C   C280      1.0  0.7132634608652821  0.5100396508428832  0.04347825727813678  1.0000
  C   C281      1.0  0.7342344976743163  0.4994164954393863  0.04429972872812972  1.0000
  C   C282      1.0  0.74954385726292  0.4988426733916718  0.015613693464117562  1.0000
  H   H185      1.0  0.7176200161242191  0.5261982295056146  0.9622761350359198  1.0000
  H   H186      1.0  0.6915678391902021  0.5283950164224461  0.013149710552060824  1.0000
  H   H187      1.0  0.7385930685061168  0.4915164573750648  0.066975889499726  1.0000
  H   H188      1.0  0.7657959048458773  0.49065752585701716  0.016404240239138224  1.0000
  C   C283      1.0  0.7462566787023659  0.5734510662070509  0.7940663015150248  1.0000
  C   C284      1.0  0.7492077229302192  0.600316357105216  0.7831652262232592  1.0000
  C   C285      1.0  0.773232976505506  0.6185041132356263  0.7620942046524978  1.0000
  C   C286      1.0  0.7945049963494304  0.6098997001392302  0.7518036858449354  1.0000
  C   C287      1.0  0.7915438798457403  0.5830268332239105  0.7626817190069213  1.0000
  C   C288      1.0  0.7674143999244196  0.5647638160986126  0.7835951514828018  1.0000
  H   H189      1.0  0.7329006226044528  0.6071690424066106  0.7911956625082455  1.0000
  H   H190      1.0  0.7753597949626465  0.6392208835007721  0.7539717602543156  1.0000
  H   H191      1.0  0.8079087243312647  0.5762173854307672  0.7547583811325239  1.0000
  H   H192      1.0  0.7652377425209276  0.5440198405069689  0.7916674675215227  1.0000
  N   N1        1.0  0.329395770342465  0.7667992994109067  0.9825647493100887  1.0000
  C   C289      1.0  0.3316641887082984  0.7935914315644624  0.967489702419676  1.0000
  C   C290      1.0  0.2970992088341954  0.7465462542837421  0.9913157792100113  1.0000
  C   C291      1.0  0.3486286544229676  0.775124410453627  0.012404677989010349  1.0000
  C   C292      1.0  0.34016901166527314  0.7519975546543842  0.9590497823653246  1.0000
  H   H193      1.0  0.32274167964828754  0.8048122691728905  0.9841397622179195  1.0000
  H   H194      1.0  0.3178633626764083  0.7881785417375298  0.9445291705063309  1.0000
  H   H195      1.0  0.3557859155608021  0.8097393022756728  0.9612725195632345  1.0000
  H   H196      1.0  0.2941800342760742  0.7256052519163693  0.001717241159685745  1.0000
  H   H197      1.0  0.28859487431507264  0.7567334365050365  0.009794799256149567  1.0000
  H   H198      1.0  0.28168208618009055  0.7409153162163138  0.9696523946495721  1.0000
  H   H199      1.0  0.3472740921859538  0.7554217176962785  0.02460707521167871  1.0000
  H   H200      1.0  0.3412154350608632  0.7865711701916712  0.030545974950984656  1.0000
  H   H201      1.0  0.3732112730120961  0.7902635337766066  0.006670396347814078  1.0000
  H   H202      1.0  0.36454058511576504  0.7666677179129097  0.9520045414318372  1.0000
  H   H203      1.0  0.32621185036763645  0.7456075099316944  0.9361603819198314  1.0000
  H   H204      1.0  0.33873944229410186  0.731640972982035  0.969500548974352  1.0000
  N   N2        1.0  0.27996452206125877  0.5513631152735526  0.029422996990906735  1.0000
  C   C293      1.0  0.2492247827390062  0.5370304027377126  0.04463487042244047  1.0000
  C   C294      1.0  0.3035582897455193  0.5658546243566567  0.05515319832652039  1.0000
  C   C295      1.0  0.28193660542584076  0.5735154258213676  0.00562948078716996  1.0000
  C   C296      1.0  0.28510823228087795  0.5289428781506994  0.012236149385016937  1.0000
  H   H205      1.0  0.2308195614301535  0.525297624478198  0.026063838100343295  1.0000
  H   H206      1.0  0.244283064550759  0.5532629617289866  0.05754381999499867  1.0000
  H   H207      1.0  0.2471605266380218  0.5205077393898997  0.06308813733276863  1.0000
  H   H208      1.0  0.32708713994916955  0.5770035962470932  0.04461159714202652  1.0000
  H   H209      1.0  0.30020162290036434  0.5827090010974247  0.06886336397064154  1.0000
  H   H210      1.0  0.3026663132810434  0.5495344284525092  0.07331798219761186  1.0000
  H   H211      1.0  0.3048472065787921  0.5847057075381369  0.9936195761425359  1.0000
  H   H212      1.0  0.27793226132984433  0.590711223719791  0.017546482348048675  1.0000
  H   H213      1.0  0.2646075184925288  0.5630501570640603  0.9857132050788039  1.0000
  H   H214      1.0  0.2677005315962354  0.5175901099852077  0.9926261622875601  1.0000
  H   H215      1.0  0.2837736579718464  0.5117918318573463  0.029404434088181983  1.0000
  H   H216      1.0  0.30799630528525757  0.5390411522551273  0.00018699326455462462  1.0000
  N   N3        1.0  0.16799699409918015  0.388528350004138  0.8981870011135221  1.0000
  C   C297      1.0  0.16451813013457167  0.4127516655450164  0.8838387046227246  1.0000
  C   C298      1.0  0.13787116115815914  0.3654719116018537  0.9100053016359969  1.0000
  C   C299      1.0  0.18985230218441793  0.40019974921925816  0.9258679883622773  1.0000
  C   C300      1.0  0.17979193303977634  0.3759578109709234  0.8729903306187309  1.0000
  H   H217      1.0  0.14781580546407147  0.4048701638017281  0.8631987716430978  1.0000
  H   H218      1.0  0.18674729439597568  0.4300257757921592  0.8739998118145285  1.0000
  H   H219      1.0  0.15656467848934252  0.423499296395965  0.9023033447809767  1.0000
  H   H220      1.0  0.13964710820241302  0.34690226419749487  0.9212787509421368  1.0000
  H   H221      1.0  0.1283532878571748  0.37451610942033375  0.9287979053722486  1.0000
  H   H222      1.0  0.12091828162470122  0.35622820100384484  0.889621850042389  1.0000
  H   H223      1.0  0.19306885739387908  0.3825953046964666  0.9375409256912342  1.0000
  H   H224      1.0  0.18174822392680717  0.4102148801730496  0.9450742620436884  1.0000
  H   H225      1.0  0.21281211121652152  0.41770302530206826  0.9176758630228691  1.0000
  H   H226      1.0  0.1819706307948653  0.35705228898505464  0.8825520879626894  1.0000
  H   H227      1.0  0.2029028399071829  0.3927236902391926  0.8642252462083383  1.0000
  H   H228      1.0  0.16453991704785856  0.3681647546090065  0.8510564428665527  1.0000
  N   N4        1.0  0.6759226001331619  0.8950544154407983  0.7860430065612726  1.0000
  C   C301      1.0  0.6510217208338411  0.878336587124617  0.8096193276377436  1.0000
  C   C302      1.0  0.6884563433292759  0.8761400252160322  0.7739714451180706  1.0000
  C   C303      1.0  0.7006446874888504  0.9215255326350054  0.802217607354366  1.0000
  C   C304      1.0  0.66369078753609  0.9041974916393657  0.7581886516501165  1.0000
  H   H229      1.0  0.6595573771829308  0.8714166724402804  0.8311339636617815  1.0000
  H   H230      1.0  0.6324444469461091  0.8578356535509234  0.7982448797900074  1.0000
  H   H231      1.0  0.64041559858054  0.8915877443175166  0.8187101281540464  1.0000
  H   H232      1.0  0.7080131614116685  0.8883842793339974  0.7570677562905535  1.0000
  H   H233      1.0  0.6968527101209816  0.8677773683219118  0.7942863936184094  1.0000
  H   H234      1.0  0.6708195932566883  0.8566107663022776  0.7603590914941163  1.0000
  H   H235      1.0  0.7196180634923731  0.9345889186768356  0.7847650011293148  1.0000
  H   H236      1.0  0.7107891109324885  0.9154683114686023  0.8230196347940522  1.0000
  H   H237      1.0  0.692052889461096  0.9363260482143553  0.8117566354810463  1.0000
  H   H238      1.0  0.681883881405753  0.9165597763130026  0.7397393316418448  1.0000
  H   H239      1.0  0.6542820828763376  0.9187453779995075  0.7662493601403106  1.0000
  H   H240      1.0  0.6449721368606508  0.884793641583646  0.7454014024863956  1.0000
  N   N5        1.0  0.9000021932499341  0.8163149558019293  0.7106072385743297  1.0000
  C   C305      1.0  0.9330851352291601  0.8376870877593159  0.7079320461727914  1.0000
  C   C306      1.0  0.882594690848089  0.8322161054148643  0.716856307967678  1.0000
  C   C307      1.0  0.8950413083159103  0.7959546213447084  0.7378905181490335  1.0000
  C   C308      1.0  0.889156829735187  0.7993049444929317  0.6797259395291839  1.0000
  H   H241      1.0  0.9467653494534326  0.8263801195791858  0.7026206247007614  1.0000
  H   H242      1.0  0.9422632391178888  0.8505339198201812  0.7310277934440707  1.0000
  H   H243      1.0  0.9376424737416266  0.8536321520636895  0.6878563252140714  1.0000
  H   H244      1.0  0.8575512064571251  0.8165794382438203  0.7193346988832022  1.0000
  H   H245      1.0  0.8902336366684118  0.8454635944133065  0.739866813743017  1.0000
  H   H246      1.0  0.8852579282944655  0.8473776411252221  0.6965013539873951  1.0000
  H   H247      1.0  0.8703186427999069  0.7792958165708913  0.7403325958129982  1.0000
  H   H248      1.0  0.9025978598978351  0.8079700512376634  0.7616640244280332  1.0000
  H   H249      1.0  0.9079638447391466  0.7836976694144714  0.7341635051082455  1.0000
  H   H250      1.0  0.8641551222886513  0.7834888118671062  0.6807776405592758  1.0000
  H   H251      1.0  0.9011626793349872  0.7863726962559809  0.6745078552532368  1.0000
  H   H252      1.0  0.8929540319881115  0.8139332314580442  0.6584945436940942  1.0000
  N   N6        1.0  0.14307213945349884  0.6407675336033126  0.12382828145523683  1.0000
  C   C309      1.0  0.17275142913255825  0.6544282188911972  0.10642626926339271  1.0000
  C   C310      1.0  0.12111796201824987  0.6136775058792263  0.10618546122921987  1.0000
  C   C311      1.0  0.13099365653396822  0.6617636581610112  0.12517429505069816  1.0000
  C   C312      1.0  0.1475025553014404  0.6332582399058935  0.15747899519101002  1.0000
  H   H253      1.0  0.1704673519522677  0.6611296909767667  0.08120573682006371  1.0000
  H   H254      1.0  0.1824448441052895  0.6391513155627155  0.10452514693662233  1.0000
  H   H255      1.0  0.18990993586861782  0.674769410626445  0.11926144758517368  1.0000
  H   H256      1.0  0.09844538886239906  0.6027177529808073  0.11863228028174005  1.0000
  H   H257      1.0  0.11735156822033943  0.618642987142253  0.08068293072265698  1.0000
  H   H258      1.0  0.12967557679822228  0.5974338034616081  0.10473165089355445  1.0000
  H   H259      1.0  0.10835773753914202  0.6521457381835772  0.13760408709734318  1.0000
  H   H260      1.0  0.1283143195503702  0.6687176932566606  0.10022136731545832  1.0000
  H   H261      1.0  0.14691546268652544  0.6822782437508718  0.13872987011301802  1.0000
  H   H262      1.0  0.15612125917229225  0.6170576809023273  0.1574866260272899  1.0000
  H   H263      1.0  0.12574941202293033  0.623484876183514  0.1716335822963624  1.0000
  H   H264      1.0  0.16449618721005543  0.6531577530839858  0.1712607970066781  1.0000
  N   N7        1.0  0.578878622517995  0.8102114454692397  0.40800220616977023  1.0000
  C   C313      1.0  0.594588576597588  0.8196966273088426  0.4400422262220712  1.0000
  C   C314      1.0  0.5935255028032898  0.796518175568183  0.3882207183245055  1.0000
  C   C315      1.0  0.5812210294746347  0.8360892148767461  0.39055955014804355  1.0000
  C   C316      1.0  0.546236735330333  0.7884913850708902  0.4130495239555796  1.0000
  H   H265      1.0  0.5936340253200645  0.8007842151109646  0.4537282404652839  1.0000
  H   H266      1.0  0.5842662809879794  0.830197313780352  0.45573318871887164  1.0000
  H   H267      1.0  0.6193323887568998  0.8359853700050928  0.43711241354951924  1.0000
  H   H268      1.0  0.5820744149839241  0.788661492220175  0.3639904263326535  1.0000
  H   H269      1.0  0.6177866604635652  0.8126822812559841  0.38314811167170765  1.0000
  H   H270      1.0  0.5934015242452714  0.7775886229344809  0.400994815282904  1.0000
  H   H271      1.0  0.605622416786668  0.8529923202417569  0.38650798592191093  1.0000
  H   H272      1.0  0.5701207880890711  0.8468946082461364  0.4044404952411917  1.0000
  H   H273      1.0  0.5703520857650585  0.829831459477576  0.36587147620845184  1.0000
  H   H274      1.0  0.5338025607785151  0.7809553465617759  0.3892740650956513  1.0000
  H   H275      1.0  0.534436260227015  0.7980339563012291  0.42797361705240455  1.0000
  H   H276      1.0  0.543769569574716  0.768633069190979  0.42595381439954993  1.0000
  N   N8        1.0  0.7522301723074596  0.5806228067788886  0.6553422469966047  1.0000
  C   C317      1.0  0.7263906519313696  0.5512489653972942  0.6470177614893402  1.0000
  C   C318      1.0  0.7577595070793344  0.6010917331554689  0.6280264897702664  1.0000
  C   C319      1.0  0.7801941540034706  0.5782171533298013  0.6612317861574262  1.0000
  C   C320      1.0  0.7446407758055489  0.5920363894835412  0.6851813762894886  1.0000
  H   H277      1.0  0.7218027627067579  0.5352926806231703  0.6671462736217338  1.0000
  H   H278      1.0  0.7312223575340582  0.5420408596412891  0.6244547757515995  1.0000
  H   H279      1.0  0.7049156988625361  0.552344497039466  0.6426787068867387  1.0000
  H   H280      1.0  0.7373670728383438  0.6038724399132263  0.6229362631430793  1.0000
  H   H281      1.0  0.777120352364985  0.6234378040883952  0.6336263437772037  1.0000
  H   H282      1.0  0.7636582958375588  0.5934060680451676  0.6049804752594211  1.0000
  H   H283      1.0  0.8004545110145581  0.6002692910860897  0.6659197869428366  1.0000
  H   H284      1.0  0.7858653726391134  0.5683873644260463  0.6398127637014851  1.0000
  H   H285      1.0  0.7776433246704659  0.5644765554987154  0.6830390283740969  1.0000
  H   H286      1.0  0.7399621493856148  0.5770180469472609  0.7063133214856867  1.0000
  H   H287      1.0  0.724128232828605  0.5949060336711925  0.6815247118252616  1.0000
  H   H288      1.0  0.7639624571623722  0.6138580052497383  0.6924881323040835  1.0000
  N   N9        1.0  0.13736159279875085  0.2273073899895203  0.5526632849709271  1.0000
  C   C321      1.0  0.13915511141778752  0.2150981087365187  0.520398228225071  1.0000
  C   C322      1.0  0.16793320614474738  0.25172056199491183  0.5617776266816826  1.0000
  C   C323      1.0  0.12723544901946246  0.2039990393640989  0.5776661536134776  1.0000
  C   C324      1.0  0.11518490452464306  0.23849132866941802  0.5508435952789617  1.0000
  H   H289      1.0  0.11637313796436626  0.19687804006403714  0.512558497896859  1.0000
  H   H290      1.0  0.15543751731014627  0.20615720668308912  0.5208916149673442  1.0000
  H   H291      1.0  0.1470322768628067  0.23225667187210292  0.5010441580585859  1.0000
  H   H292      1.0  0.16767238467100756  0.26050662925344653  0.586692972205204  1.0000
  H   H293      1.0  0.18559165825715124  0.2444714830715449  0.5619430897343751  1.0000
  H   H294      1.0  0.17562198046798017  0.27053941701651496  0.5446207322819226  1.0000
  H   H295      1.0  0.10432627332225593  0.18506310336124895  0.5716308985205885  1.0000
  H   H296      1.0  0.12544881655952783  0.21251840657657442  0.6022469179605121  1.0000
  H   H297      1.0  0.14369079284914382  0.19533442030205872  0.580023067871284  1.0000
  H   H298      1.0  0.09146579942220287  0.22044011042489772  0.5460038541824969  1.0000
  H   H299      1.0  0.12122360964042064  0.254951227252657  0.5309925213837831  1.0000
  H   H300      1.0  0.11475337442804392  0.24970788416545617  0.5740231673702165  1.0000
  N   N10       1.0  0.4648881463890273  0.349611969620083  0.20989430034397866  1.0000
  C   C325      1.0  0.453937308905208  0.3345608424968185  0.17795213122778553  1.0000
  C   C326      1.0  0.45752473381019854  0.37391120001800304  0.21270754258441693  1.0000
  C   C327      1.0  0.49847468450939497  0.36168280984389506  0.2122806801446634  1.0000
  C   C328      1.0  0.44963130695503495  0.32825183273750963  0.2364973994573445  1.0000
  H   H301      1.0  0.4597361290106529  0.31657977258264364  0.1748619708367906  1.0000
  H   H302      1.0  0.46484337368262957  0.3499206476633876  0.15717031458643124  1.0000
  H   H303      1.0  0.42858788308068896  0.32443199977533027  0.17542598208048354  1.0000
  H   H304      1.0  0.46543314488258053  0.38575276949179743  0.23656141601427347  1.0000
  H   H305      1.0  0.46883532177627435  0.39037570746410316  0.1929615866838153  1.0000
  H   H306      1.0  0.4323563774520025  0.365531452054203  0.21077417937983767  1.0000
  H   H307      1.0  0.5078629099556367  0.3739063248133498  0.23566116024824393  1.0000
  H   H308      1.0  0.5107066345306511  0.3769654197634543  0.19178162227932813  1.0000
  H   H309      1.0  0.5046789902418327  0.3438023795388456  0.21106169129363184  1.0000
  H   H310      1.0  0.45716115883608915  0.3387513741403962  0.26103267236027045  1.0000
  H   H311      1.0  0.4548257883747337  0.3096627188990037  0.23512620793364608  1.0000
  H   H312      1.0  0.42418883362573045  0.31812708161188585  0.235061108270848  1.0000
  N   N11       1.0  0.2520269154795269  0.25007907318764794  0.4190404940336278  1.0000
  C   C329      1.0  0.2646422100072186  0.2508560701271398  0.45196584384491195  1.0000
  C   C330      1.0  0.22306418970289685  0.25119967811178245  0.4220789726617431  1.0000
  C   C331      1.0  0.24610514089167823  0.22256790804903748  0.4019685875777798  1.0000
  C   C332      1.0  0.2743634054032159  0.27566320519196585  0.400041325732001  1.0000
  H   H313      1.0  0.2686791627740385  0.2708859780079792  0.466017730607444  1.0000
  H   H314      1.0  0.2868949382190364  0.2506995327913684  0.45047839315956784  1.0000
  H   H315      1.0  0.24887691741332865  0.23114971439172624  0.4664567666130623  1.0000
  H   H316      1.0  0.22646582778681462  0.2714916532037041  0.435110153131907  1.0000
  H   H317      1.0  0.21313006048029481  0.2509797865518676  0.39763191712122054  1.0000
  H   H318      1.0  0.20544312734779288  0.23190706400566552  0.43574166633269806  1.0000
  H   H319      1.0  0.22974371595371185  0.20269713910940776  0.41582905872558823  1.0000
  H   H320      1.0  0.267578296351718  0.22119677196420115  0.39915568900725784  1.0000
  H   H321      1.0  0.23627143709933507  0.22093835557184133  0.3771156937860908  1.0000
  H   H322      1.0  0.279399895389643  0.29684471515398464  0.4121771435313408  1.0000
  H   H323      1.0  0.26549592112393666  0.2755893008780615  0.37502060433006074  1.0000
  H   H324      1.0  0.296467406580844  0.27539568140323173  0.3972358578846559  1.0000
  N   N12       1.0  0.46517211253872437  0.6470495176195762  0.9264154619784905  1.0000
  C   C333      1.0  0.4609413135586124  0.6201610160649929  0.9430809939673078  1.0000
  C   C334      1.0  0.49828619892219755  0.6684026394383877  0.9241467334867957  1.0000
  C   C335      1.0  0.44961713614867366  0.6603727303857135  0.9453306107192289  1.0000
  C   C336      1.0  0.45182887566927155  0.6393072630611948  0.8931522985244312  1.0000
  H   H325      1.0  0.4724287816951099  0.6095262766909272  0.9295130583967681  1.0000
  H   H326      1.0  0.43616472736863393  0.6035952287972856  0.9451484965764824  1.0000
  H   H327      1.0  0.4706975065818124  0.6253111320852466  0.9682978536034546  1.0000
  H   H328      1.0  0.5109450955444788  0.6590743369263241  0.9104189896414457  1.0000
  H   H329      1.0  0.5022604655048901  0.6888433665329383  0.9114225479818369  1.0000
  H   H330      1.0  0.5089688539321487  0.6754145585416493  0.9488383420007813  1.0000
  H   H331      1.0  0.4597287106857721  0.6673935323450582  0.9702622038564672  1.0000
  H   H332      1.0  0.424686875493762  0.644760562762446  0.9481044740245136  1.0000
  H   H333      1.0  0.45198676400806437  0.6804421362464504  0.9331341405842007  1.0000
  H   H334      1.0  0.45426705164888237  0.6590858347435988  0.8800544474124342  1.0000
  H   H335      1.0  0.42688780630100787  0.6230469705971369  0.8938494842831918  1.0000
  H   H336      1.0  0.46325050095296455  0.6295700578268096  0.8779437136915732  1.0000
  N   N13       1.0  0.7554385317016352  0.19141682915710087  0.3713593366907898  1.0000
  C   C337      1.0  0.7890934224194577  0.20483131522206266  0.36804696211977583  1.0000
  C   C338      1.0  0.7405164909731303  0.17642001891775722  0.3403789892892307  1.0000
  C   C339      1.0  0.7473483314479069  0.21473590642493337  0.3788230678123007  1.0000
  C   C340      1.0  0.7448538590072378  0.16971773071378843  0.3981458957728226  1.0000
  H   H337      1.0  0.8012115053390736  0.21641602225863582  0.3908967052505484  1.0000
  H   H338      1.0  0.7979387021275584  0.22099307497080783  0.34768747797538385  1.0000
  H   H339      1.0  0.7960240909287469  0.18786282235409713  0.3625942488191463  1.0000
  H   H340      1.0  0.7480392073210829  0.19212818127147616  0.31957552948350526  1.0000
  H   H341      1.0  0.7462406207996812  0.1587535992845187  0.33391994255105834  1.0000
  H   H342      1.0  0.715083004675209  0.1659878668519046  0.34188045294009267  1.0000
  H   H343      1.0  0.7220802836572205  0.20542846303678308  0.381300882868833  1.0000
  H   H344      1.0  0.7551569462497609  0.23148394684617346  0.3590511649110109  1.0000
  H   H345      1.0  0.7581693089382667  0.22645425663724747  0.4021114558241218  1.0000
  H   H346      1.0  0.7196480620723696  0.1595108261949998  0.4018821511573856  1.0000
  H   H347      1.0  0.7563631728030333  0.18000231327565944  0.4217683686114622  1.0000
  H   H348      1.0  0.750078943237844  0.1515040680620893  0.3929491735616409  1.0000
  N   N14       1.0  0.7059924320221809  0.6647771860578973  0.3496613039255816  1.0000
  C   C341      1.0  0.7319250781855663  0.6821919856748737  0.3275254008560297  1.0000
  C   C342      1.0  0.7114861838330274  0.6802537312925148  0.38154578156149777  1.0000
  C   C343      1.0  0.7033227033061324  0.6353866156054967  0.35448953408861666  1.0000
  C   C344      1.0  0.6773485734158606  0.661340513055929  0.33500015314426407  1.0000
  H   H349      1.0  0.7291212240473802  0.6707509543538771  0.30353939195597973  1.0000
  H   H350      1.0  0.753873505071547  0.6855132251032978  0.33817110170074516  1.0000
  H   H351      1.0  0.7343506280291554  0.7043145315844025  0.3227547114751412  1.0000
  H   H352      1.0  0.6923036505221141  0.667945248810633  0.3988834019440433  1.0000
  H   H353      1.0  0.7328354865032239  0.6829890125838016  0.393376908994108  1.0000
  H   H354      1.0  0.7142143759728873  0.702760768281343  0.3787884919172758  1.0000
  H   H355      1.0  0.6838561133863682  0.6214247959755  0.37083451274546175  1.0000
  H   H356      1.0  0.7245715390959941  0.6372023312193762  0.36558054831700426  1.0000
  H   H357      1.0  0.6999168957777101  0.6233495146784479  0.33079998164423996  1.0000
  H   H358      1.0  0.6572355096374218  0.6482183620236331  0.3509954331530941  1.0000
  H   H359      1.0  0.6727048344776548  0.6498677061891345  0.3108174124123858  1.0000
  H   H360      1.0  0.6786479743403121  0.683158592646087  0.3310804665351559  1.0000
  N   N15       1.0  0.2612988250544801  0.4769527116067521  0.29225840524033136  1.0000
  C   C345      1.0  0.2705254131971586  0.4645477414655671  0.2644840721410063  1.0000
  C   C346      1.0  0.2890006202609395  0.5010667340789322  0.3077740342226035  1.0000
  C   C347      1.0  0.2442241187126245  0.45357148900177585  0.3164230814787086  1.0000
  C   C348      1.0  0.2414633670253889  0.48871630786746534  0.2802462884285287  1.0000
  H   H361      1.0  0.25024048869864185  0.4463063323790275  0.25215709313668105  1.0000
  H   H362      1.0  0.285670757656277  0.4556117042686323  0.27256248089681523  1.0000
  H   H363      1.0  0.283271047455178  0.48159675258159423  0.24566663950986833  1.0000
  H   H364      1.0  0.2829335834913889  0.5112792616521544  0.3285337456928208  1.0000
  H   H365      1.0  0.30448602324269275  0.4930120589168114  0.31727100346317966  1.0000
  H   H366      1.0  0.3024499141621245  0.5189180865805834  0.2899406348280478  1.0000
  H   H367      1.0  0.22279891629245385  0.43545594000159416  0.3056262910588197  1.0000
  H   H368      1.0  0.23736422213957636  0.4622648463704852  0.33798913882437176  1.0000
  H   H369      1.0  0.2581169765518874  0.44354948266510846  0.32542116550363553  1.0000
  H   H370      1.0  0.22096769771382105  0.47148302651575524  0.26715402699172613  1.0000
  H   H371      1.0  0.2539755776024773  0.5070885086034093  0.26286252089911283  1.0000
  H   H372      1.0  0.23310406790509508  0.49733413093009093  0.30058212089697384  1.0000
  N   N16       1.0  0.5800288782753039  0.8009966112145345  0.14939000730895285  1.0000
  C   C349      1.0  0.605886060132236  0.8051372238221727  0.17054262013349303  1.0000
  C   C350      1.0  0.5912853995675545  0.8227538369684798  0.12269524139306129  1.0000
  C   C351      1.0  0.5575112158783467  0.8050533455259483  0.16915364631982546  1.0000
  C   C352      1.0  0.5651374542194727  0.7708898222330931  0.13523989111578621  1.0000
  H   H373      1.0  0.6173748707712226  0.8274560206173948  0.18212540615153197  1.0000
  H   H374      1.0  0.6234345650417219  0.8022935006206932  0.15652278967655678  1.0000
  H   H375      1.0  0.5978399622250747  0.7887804373845765  0.19078138250937696  1.0000
  H   H376      1.0  0.572021945960418  0.8198892339343716  0.10644784714394886  1.0000
  H   H377      1.0  0.6024247099885306  0.8457359373786271  0.13248179709739968  1.0000
  H   H378      1.0  0.6083040782714916  0.8203352379953858  0.10716661646329124  1.0000
  H   H379      1.0  0.5377108341410967  0.8022481272023421  0.15395222092068148  1.0000
  H   H380      1.0  0.5679195705335413  0.8273508069497865  0.18069191138089527  1.0000
  H   H381      1.0  0.5483197746340291  0.7886887927977846  0.18920943397362427  1.0000
  H   H382      1.0  0.5450568740597816  0.7668121001055633  0.11970551944012883  1.0000
  H   H383      1.0  0.5567545769635014  0.7539209492934112  0.15479911129350718  1.0000
  H   H384      1.0  0.5812445510526404  0.7670784319809683  0.11971274084776158  1.0000
  N   N17       1.0  0.6374164851738289  0.3232365730335532  0.18376772231658545  1.0000
  C   C353      1.0  0.6572091862195895  0.32846292772276453  0.15484062023987522  1.0000
  C   C354      1.0  0.6433035223479278  0.3518339724214886  0.19799617364416588  1.0000
  C   C355      1.0  0.6443546309644398  0.30655898516700475  0.20836549947337177  1.0000
  C   C356      1.0  0.6048334522055153  0.30605133432477283  0.17385253849086948  1.0000
  H   H385      1.0  0.6528242178687084  0.3412024074730472  0.13584423534041665  1.0000
  H   H386      1.0  0.6534210511238991  0.30730796776651936  0.14354100080709414  1.0000
  H   H387      1.0  0.6819340215711029  0.34118832264236937  0.161506788092201  1.0000
  H   H388      1.0  0.6289137875918152  0.3487435805216748  0.21999943169810568  1.0000
  H   H389      1.0  0.6676657136481388  0.36547805899303526  0.20561463665844143  1.0000
  H   H390      1.0  0.6383283841723348  0.3650803393955169  0.18015875990158337  1.0000
  H   H391      1.0  0.6681939192754929  0.3195468117212825  0.21784318862756363  1.0000
  H   H392      1.0  0.6422658737395667  0.28582487239182447  0.19778554726169015  1.0000
  H   H393      1.0  0.6285649656822171  0.3004897889393704  0.22966987874073178  1.0000
  H   H394      1.0  0.599875430895257  0.28472481431925134  0.16212975600315163  1.0000
  H   H395      1.0  0.5984367308766347  0.31837059414530133  0.15617837645167718  1.0000
  H   H396      1.0  0.589174825315694  0.300684970101071  0.1952665521698966  1.0000
  N   N18       1.0  0.2624591859201635  0.14879486048567533  0.23833932150636739  1.0000
  C   C357      1.0  0.2917666028411069  0.1669798554729143  0.2211467162681415  1.0000
  C   C358      1.0  0.23671949506372428  0.14635182284023293  0.21820432366650558  1.0000
  C   C359      1.0  0.2626338382156785  0.16272493046142208  0.270079477170165  1.0000
  C   C360      1.0  0.2586312434303735  0.11907592904973174  0.2440765165764475  1.0000
  H   H397      1.0  0.3115106395301211  0.16835135256267963  0.2351446789254243  1.0000
  H   H398      1.0  0.2962413500741994  0.1899948373038297  0.21765389438141722  1.0000
  H   H399      1.0  0.2921165535666163  0.15758426832501732  0.19667324654171267  1.0000
  H   H400      1.0  0.21429554867389305  0.1329134853866101  0.2306753024685971  1.0000
  H   H401      1.0  0.23899226377246188  0.16845674673727865  0.21358103078378893  1.0000
  H   H402      1.0  0.23568777083140077  0.13578706481355848  0.1940775914079476  1.0000
  H   H403      1.0  0.24033173003514194  0.1502398386462628  0.2829567167353829  1.0000
  H   H404      1.0  0.26692092694865754  0.18572153362524083  0.26712197094598567  1.0000
  H   H405      1.0  0.2806079018606787  0.16341120881915347  0.28661290373943277  1.0000
  H   H406      1.0  0.25829298186271477  0.10776338231784964  0.22071272764696903  1.0000
  H   H407      1.0  0.23697626829518195  0.10487675366237062  0.25745794746766265  1.0000
  H   H408      1.0  0.2778193855184883  0.12025154096042835  0.25917920277026535  1.0000
  N   N19       1.0  0.12503248777032125  0.9100110968344066  0.5323114641335736  1.0000
  C   C361      1.0  0.15529792435521686  0.9160082674905186  0.5449681684144031  1.0000
  C   C362      1.0  0.10827339068423995  0.9162627646243908  0.5582984251242523  1.0000
  C   C363      1.0  0.10721081776453074  0.8787208184377664  0.5221399463814647  1.0000
  C   C364      1.0  0.1294265158552527  0.9290216396999956  0.503822615508322  1.0000
  H   H409      1.0  0.16900365375024243  0.939169971744189  0.5538991597173234  1.0000
  H   H410      1.0  0.1689028798748594  0.9122048817325434  0.5257663568609248  1.0000
  H   H411      1.0  0.15285968831256613  0.9015965630922433  0.5661068000143272  1.0000
  H   H412      1.0  0.08528506585854069  0.9119803352755175  0.5498165039035472  1.0000
  H   H413      1.0  0.10487353776402202  0.902349442746318  0.5801599488949094  1.0000
  H   H414      1.0  0.12123191913268012  0.939618737480751  0.5668827315488126  1.0000
  H   H415      1.0  0.11847870949535272  0.8737177044795693  0.5014000813774392  1.0000
  H   H416      1.0  0.08370877896747532  0.8729780569471135  0.5138356043096571  1.0000
  H   H417      1.0  0.1048967786281616  0.8636490861817638  0.5425362515155371  1.0000
  H   H418      1.0  0.10704887024199326  0.9247778846863336  0.49331343373206354  1.0000
  H   H419      1.0  0.14232423106569198  0.9249314504932438  0.48395264168538915  1.0000
  H   H420      1.0  0.1426021453448617  0.952792243016482  0.5106562158940072  1.0000
  N   N20       1.0  0.2993652068650264  0.6440935865560554  0.8340518557633415  1.0000
  C   C365      1.0  0.2921620109863554  0.6200178793882878  0.8574499685335685  1.0000
  C   C366      1.0  0.2889148542221616  0.6642841854060675  0.847511938266644  1.0000
  C   C367      1.0  0.28349239726595654  0.6314389818322681  0.8026934451512804  1.0000
  C   C368      1.0  0.33284659255507043  0.6605571665211605  0.8284090502983353  1.0000
  H   H421      1.0  0.2984272985799399  0.6036450729983941  0.847390998311857  1.0000
  H   H422      1.0  0.26717766636385704  0.6077262789420694  0.8630683323966325  1.0000
  H   H423      1.0  0.30474808152202765  0.6285176894375569  0.8809644527880691  1.0000
  H   H424      1.0  0.3012422183492056  0.6751313280990462  0.8705363035693993  1.0000
  H   H425      1.0  0.2927861597743649  0.6820428766881489  0.8299285673582519  1.0000
  H   H426      1.0  0.26390990211557713  0.65235737947475  0.8530407570628766  1.0000
  H   H427      1.0  0.2905162473571789  0.6157925394262243  0.7920189025055736  1.0000
  H   H428      1.0  0.2883864464596893  0.6489234058804236  0.7843866276486215  1.0000
  H   H429      1.0  0.258213872319404  0.6188943579366962  0.8060017326829741  1.0000
  H   H430      1.0  0.33912991923802066  0.6788902739879709  0.8109067708445848  1.0000
  H   H431      1.0  0.3414268146589208  0.6460163060295728  0.817994175016774  1.0000
  H   H432      1.0  0.34577478715126214  0.6702734836492166  0.8515183718604513  1.0000
  N   N21       1.0  0.0024415443233480882  0.25625381123538077  0.44576835119239305  1.0000
  C   C369      1.0  0.018181588193727283  0.2737946365869562  0.4166108969714111  1.0000
  C   C370      1.0  0.005649176963181235  0.2763362095996872  0.4732127970449805  1.0000
  C   C371      1.0  0.01646372708391519  0.2379505776874303  0.4550583696455345  1.0000
  C   C372      1.0  0.9695568813735916  0.23695446081941648  0.43821345425513747  1.0000
  H   H433      1.0  0.016742555918378255  0.25940516461087776  0.3956069837130355  1.0000
  H   H434      1.0  0.04297259138548837  0.2888331391251865  0.4215239511988547  1.0000
  H   H435      1.0  0.007985719645501321  0.28761018623200185  0.4086172322760802  1.0000
  H   H436      1.0  0.9940764512074367  0.2638600699441022  0.49566697485633354  1.0000
  H   H437      1.0  0.030262329574358704  0.2911298329157879  0.47953329521307103  1.0000
  H   H438      1.0  0.995507499890082  0.29065243526976287  0.467066482412607  1.0000
  H   H439      1.0  0.00508113454049397  0.2243386951160215  0.47690475422453077  1.0000
  H   H440      1.0  0.041264576920670315  0.25189757817471076  0.4610972146839981  1.0000
  H   H441      1.0  0.014717299815313556  0.22268947515362844  0.43483711024724847  1.0000
  H   H442      1.0  0.9569649761963733  0.22306353470745113  0.45950353800429994  1.0000
  H   H443      1.0  0.9663838455775969  0.2217603024995307  0.41737028356460926  1.0000
  H   H444      1.0  0.9581398314317447  0.2500046249522715  0.43134115047622446  1.0000
  N   N22       1.0  0.6190441941792503  0.15952093142739288  0.9140651200627535  1.0000
  C   C373      1.0  0.6129481386511417  0.16591552318350378  0.8805428203955792  1.0000
  C   C374      1.0  0.6434217278276003  0.15107559041402438  0.9131245593746046  1.0000
  C   C375      1.0  0.5907349332538044  0.135067703157011  0.9277252671886981  1.0000
  C   C376      1.0  0.6290682853655662  0.18604539193233788  0.9349604637807102  1.0000
  H   H445      1.0  0.606080228101138  0.14667361669647  0.8638253908670898  1.0000
  H   H446      1.0  0.6336526019142367  0.1848079102051934  0.8697755216728128  1.0000
  H   H447      1.0  0.5942087502715261  0.17177209451144865  0.8802302399390024  1.0000
  H   H448      1.0  0.6491930977733142  0.14682102781332498  0.9381130265128669  1.0000
  H   H449      1.0  0.6367058745561768  0.13101640117929633  0.897827600627537  1.0000
  H   H450      1.0  0.6650433149933561  0.16902795955627706  0.9028405036189343  1.0000
  H   H451      1.0  0.5825460507764197  0.11463875598737032  0.9126428806886127  1.0000
  H   H452      1.0  0.571857870252701  0.1407511938886113  0.9286649010574434  1.0000
  H   H453      1.0  0.5945783319386534  0.12988044882895014  0.9531010414623575  1.0000
  H   H454      1.0  0.6496126481705303  0.20531725456507988  0.9245925232197352  1.0000
  H   H455      1.0  0.6355766295599512  0.1826241895340589  0.9599658815316272  1.0000
  H   H456      1.0  0.6107365520333947  0.19223076624693392  0.9376205782077947  1.0000
  N   N23       1.0  0.838659175337731  0.34488378660418645  0.830150056951999  1.0000
  C   C377      1.0  0.8603325744911782  0.34074872613736645  0.8089153966801746  1.0000
  C   C378      1.0  0.8091995703838153  0.334260044753003  0.8127068439071394  1.0000
  C   C379      1.0  0.8511674541916889  0.37644831297042963  0.8385365253980226  1.0000
  C   C380      1.0  0.8336777484896235  0.32788880818101285  0.8604959504385508  1.0000
  H   H457      1.0  0.8511039224707014  0.3169602748163121  0.8023555375055824  1.0000
  H   H458      1.0  0.8828141469310723  0.34835567955418784  0.8212971240894525  1.0000
  H   H459      1.0  0.8645068580257955  0.3530927815762925  0.7856553518955908  1.0000
  H   H460      1.0  0.7923632539317419  0.3371366666362827  0.828041343244744  1.0000
  H   H461      1.0  0.8120058770697155  0.34648547132554564  0.7896158364687528  1.0000
  H   H462      1.0  0.798933262619396  0.31041623779754846  0.8061960117122781  1.0000
  H   H463      1.0  0.8349918363248843  0.37989994760514195  0.8545952492231121  1.0000
  H   H464      1.0  0.8549806252997443  0.3899714290982525  0.8162666060011862  1.0000
  H   H465      1.0  0.8733501415373836  0.3852809266441842  0.8518994231167465  1.0000
  H   H466      1.0  0.8173646493988899  0.3304388147864829  0.877104921024295  1.0000
  H   H467      1.0  0.8554002899106182  0.3352360668214143  0.8743323210964208  1.0000
  H   H468      1.0  0.8240304368761935  0.30390748598479667  0.8551077891437413  1.0000
  N   N24       1.0  0.8694953367535454  0.054707251471821115  0.3606185979748766  1.0000
  C   C381      1.0  0.8615525190183877  0.0725111580404176  0.33873115013883287  1.0000
  C   C382      1.0  0.9025885301108587  0.06441256275862643  0.3575661377668289  1.0000
  C   C383      1.0  0.8512578168917656  0.023193612297853584  0.35136089505041107  1.0000
  C   C384      1.0  0.8625944904540562  0.05891359702592305  0.394817654053646  1.0000
  H   H469      1.0  0.8370859237065242  0.06665749987901433  0.34138951267555095  1.0000
  H   H470      1.0  0.8652199214833393  0.06907843628999978  0.31255462745976975  1.0000
  H   H471      1.0  0.8755970888376988  0.09648101896985138  0.34428384516043764  1.0000
  H   H472      1.0  0.909487170219967  0.05141943124070676  0.37363900622119606  1.0000
  H   H473      1.0  0.9087030480727785  0.061946244425624485  0.331961875780837  1.0000
  H   H474      1.0  0.916772803031915  0.08814688621979976  0.3646026695073793  1.0000
  H   H475      1.0  0.8560296393046054  0.008903003717221747  0.36780126100579624  1.0000
  H   H476      1.0  0.8560682583982676  0.019128981166367885  0.3257958916192333  1.0000
  H   H477      1.0  0.826168674509585  0.01548017677228586  0.35278000041620905  1.0000
  H   H478      1.0  0.868647658244045  0.04609414760695549  0.4121104302507463  1.0000
  H   H479      1.0  0.8377731365451396  0.05157935968360607  0.39805792105556465  1.0000
  H   H480      1.0  0.8755264875660828  0.08257526573030027  0.4023709659471924  1.0000
  N   N25       1.0  0.8231747579405766  0.4922511770069682  0.19933860509861137  1.0000
  C   C385      1.0  0.7942903003943823  0.4758061539029785  0.21769928067362299  1.0000
  C   C386      1.0  0.8464884909224414  0.5151916598044266  0.22086060737326946  1.0000
  C   C387      1.0  0.8178347829737534  0.5063943133127148  0.17071673620113084  1.0000
  C   C388      1.0  0.8337993969257417  0.4715563584414371  0.1880533258420454  1.0000
  H   H481      1.0  0.7762641431571962  0.45846974171856886  0.20204305621641364  1.0000
  H   H482      1.0  0.7854363513921522  0.4906598217577494  0.22651874596832774  1.0000
  H   H483      1.0  0.7972597066338842  0.46464629668346796  0.23940076393529275  1.0000
  H   H484      1.0  0.8686235290696048  0.5281640446767866  0.2078367935644479  1.0000
  H   H485      1.0  0.8387180627498435  0.5309767433226522  0.22954886203819017  1.0000
  H   H486      1.0  0.8509081612216112  0.5053405314655938  0.24288338332035445  1.0000
  H   H487      1.0  0.8391771938037359  0.5193164880481612  0.15641644057105045  1.0000
  H   H488      1.0  0.8091571255605928  0.5217121787310406  0.1782817244101506  1.0000
  H   H489      1.0  0.8005431249097836  0.48968011846423787  0.15379131871065255  1.0000
  H   H490      1.0  0.8554656981923455  0.48307182221202016  0.1738761003345384  1.0000
  H   H491      1.0  0.8163673729393007  0.4540188182490131  0.1717944190449767  1.0000
  H   H492      1.0  0.8377907514761295  0.46022798533539977  0.2089609014895492  1.0000
  N   N26       1.0  0.5212681555927918  0.22769436402907925  0.02310494975407873  1.0000
  C   C389      1.0  0.4938049625400291  0.19996193226244252  0.01328369247459271  1.0000
  C   C390      1.0  0.5428014472757666  0.2388086976152609  0.9952712381394979  1.0000
  C   C391      1.0  0.536201861663388  0.22206885028243614  0.05130156367108762  1.0000
  C   C392      1.0  0.5120927599165666  0.24988713754765954  0.03254105035127624  1.0000
  H   H493      1.0  0.4998224380270973  0.18267167754234281  0.00604528073655386  1.0000
  H   H494      1.0  0.4820599610055408  0.2033971097390375  0.9919372847937837  1.0000
  H   H495      1.0  0.47686116132208833  0.19104115236164865  0.03361476405031202  1.0000
  H   H496      1.0  0.5321252156640576  0.2435117509245369  0.9737998934495568  1.0000
  H   H497      1.0  0.5640360430331355  0.259497913916605  0.0017861242104180164  1.0000
  H   H498      1.0  0.5496212837565724  0.2223138595770255  0.9869197133776456  1.0000
  H   H499      1.0  0.5202734916490944  0.21344838012257575  0.07256779103282515  1.0000
  H   H500      1.0  0.5568546834579111  0.24255849202475369  0.05967231967872348  1.0000
  H   H501      1.0  0.5435726648397287  0.20549986319179955  0.04512510860932618  1.0000
  H   H502      1.0  0.5322592931712765  0.2714334644118479  0.03908542803067617  1.0000
  H   H503      1.0  0.49668678233052216  0.24260351233518582  0.05421843567892334  1.0000
  H   H504      1.0  0.49949097102128337  0.2537517129614296  0.012353209471980042  1.0000
  N   N27       1.0  0.4708219553707909  0.8473755309007368  0.8254650200315706  1.0000
  C   C393      1.0  0.45001527059511676  0.8581312328139277  0.8375821307331199  1.0000
  C   C394      1.0  0.4916515481265192  0.8675942389024858  0.8004114568894473  1.0000
  C   C395      1.0  0.4524407777178974  0.8176969146976937  0.8108577506060395  1.0000
  C   C396      1.0  0.48918048593439806  0.8459132379260598  0.8530201996241382  1.0000
  H   H505      1.0  0.46302091077001384  0.8804920730684229  0.8488148547457736  1.0000
  H   H506      1.0  0.43414090628537205  0.8431646774517423  0.856621048373627  1.0000
  H   H507      1.0  0.43555395564636706  0.8592391237411983  0.8175150382660401  1.0000
  H   H508      1.0  0.5075334049490169  0.8597786250964836  0.7909812775394405  1.0000
  H   H509      1.0  0.4786368246943732  0.8691539536970257  0.779123508221546  1.0000
  H   H510      1.0  0.5059907840358295  0.8902301082623983  0.8105358340420542  1.0000
  H   H511      1.0  0.46740810875842664  0.8086652406802911  0.8019133346020655  1.0000
  H   H512      1.0  0.43855210264998934  0.8179669798489171  0.7897258748905485  1.0000
  H   H513      1.0  0.43613956833722717  0.801997786851111  0.8290033226008101  1.0000
  H   H514      1.0  0.5049374325804261  0.8375992626115274  0.8448768263091001  1.0000
  H   H515      1.0  0.47427867128877405  0.830814159467157  0.8723732541447534  1.0000
  H   H516      1.0  0.5034081231693468  0.8679082134850297  0.8646402695077204  1.0000
  N   N28       1.0  0.02126495938550832  0.7387052460003369  0.3578016451876824  1.0000
  C   C397      1.0  0.046580414258048375  0.7370985539356437  0.37476586147237884  1.0000
  C   C398      1.0  0.995574334055872  0.7309419991519737  0.38079404393991795  1.0000
  C   C399      1.0  0.010714139599409256  0.717985841914917  0.3296829706632714  1.0000
  C   C400      1.0  0.032286493175986086  0.7689922765362756  0.34592762898261914  1.0000
  H   H517      1.0  0.0667951156834552  0.7438244772434105  0.35840907093442514  1.0000
  H   H518      1.0  0.03938753430437081  0.7143912687616923  0.3834095162946345  1.0000
  H   H519      1.0  0.05459170706861505  0.7520302775818158  0.3965307490703793  1.0000
  H   H520      1.0  0.9763406253757755  0.7326261953491975  0.3689990272242278  1.0000
  H   H521      1.0  0.9862853730208482  0.7080617363217424  0.38998969750586293  1.0000
  H   H522      1.0  0.0030306488351994343  0.7460727116879545  0.4024534916748069  1.0000
  H   H523      1.0  0.02969083336695899  0.7234478600765006  0.31191686919895256  1.0000
  H   H524      1.0  0.991658527248778  0.7187611490641167  0.316324062744306  1.0000
  H   H525      1.0  0.0022164606316159574  0.6948542012742166  0.33768693402771915  1.0000
  H   H526      1.0  0.051719288365154714  0.7757248545474906  0.32855278812680255  1.0000
  H   H527      1.0  0.040452601835284874  0.7851429673360513  0.3665679008505193  1.0000
  H   H528      1.0  0.013818237304592529  0.7710928859234673  0.33301619033196095  1.0000
  N   N29       1.0  0.3166665227856293  0.6453742783869387  0.18941850541165273  1.0000
  C   C401      1.0  0.29922211001065235  0.6141515882863849  0.17881986099150537  1.0000
  C   C402      1.0  0.3432576546844415  0.6615537171678145  0.16757904406240923  1.0000
  C   C403      1.0  0.3277763144056248  0.6470695373460834  0.22329208399694275  1.0000
  C   C404      1.0  0.2964475440165713  0.6587939883553442  0.18808487690972814  1.0000
  H   H529      1.0  0.27935584114501605  0.6011669032850755  0.19520899311466375  1.0000
  H   H530      1.0  0.313907327857872  0.60347875887829  0.1789313646918377  1.0000
  H   H531      1.0  0.2899117046718862  0.6119749817272012  0.1536083466420667  1.0000
  H   H532      1.0  0.3570121535799197  0.6851454793020542  0.17520001002666802  1.0000
  H   H533      1.0  0.35904292899188917  0.6519977656165443  0.16799020777691875  1.0000
  H   H534      1.0  0.33594403771989056  0.6610201035832429  0.14179741409445523  1.0000
  H   H535      1.0  0.3407313166369217  0.6703572604161545  0.23213774193173156  1.0000
  H   H536      1.0  0.343602061252047  0.6376741595377002  0.22503790682543057  1.0000
  H   H537      1.0  0.3084725817539972  0.6347977245942944  0.2405151494943192  1.0000
  H   H538      1.0  0.3089264251196951  0.6824876473454167  0.19524194046708035  1.0000
  H   H539      1.0  0.2765775545735901  0.6475820511870409  0.20493788233537277  1.0000
  H   H540      1.0  0.28715426567752134  0.6574222918053947  0.16302649432834582  1.0000
  N   N30       1.0  0.23562192982461097  0.07032756573060207  0.5125803101499299  1.0000
  C   C405      1.0  0.26584271609873544  0.07257276813125246  0.5191465032711458  1.0000
  C   C406      1.0  0.21435449235360624  0.04043516996499497  0.499988121533836  1.0000
  C   C407      1.0  0.2389922074884671  0.09236974888973341  0.48790269693122656  1.0000
  C   C408      1.0  0.22337520147288714  0.07594121732757673  0.5432060638045969  1.0000
  H   H541      1.0  0.2641346369427671  0.05617907534236012  0.5375651052738056  1.0000
  H   H542      1.0  0.28239102807995514  0.09469810734754294  0.52899802375429  1.0000
  H   H543      1.0  0.2760592673738679  0.06898187357178928  0.49647512462190807  1.0000
  H   H544      1.0  0.21074350224264835  0.02322348593261653  0.5181623391765006  1.0000
  H   H545      1.0  0.19159468234769733  0.038205810518068005  0.4936743513089492  1.0000
  H   H546      1.0  0.22339609268769484  0.03554768867310519  0.4771569889060469  1.0000
  H   H547      1.0  0.2163732197880648  0.08976304120438611  0.48027744196590194  1.0000
  H   H548      1.0  0.2504775196539206  0.09037955190833023  0.46538017425125305  1.0000
  H   H549      1.0  0.2528069771584162  0.11517886250318891  0.4974787405371847  1.0000
  H   H550      1.0  0.20075701834041537  0.07479186848039833  0.5391098324210405  1.0000
  H   H551      1.0  0.23920363886279716  0.09830146862213164  0.553373624066626  1.0000
  H   H552      1.0  0.22048446641140695  0.05974911145124127  0.5624632479339077  1.0000
  N   N31       1.0  0.4636903744533013  0.264846874636184  0.7434734136640185  1.0000
  C   C409      1.0  0.4837497000892399  0.2943160879914616  0.7578992302356965  1.0000
  C   C410      1.0  0.47111688633801974  0.26479348031920097  0.7084674696134935  1.0000
  C   C411      1.0  0.43126648075682295  0.25762775704716073  0.746915231425844  1.0000
  C   C412      1.0  0.4686324222342217  0.24258984200995495  0.7607437081352871  1.0000
  H   H553      1.0  0.47918490335186265  0.29491372712893954  0.7845356772326181  1.0000
  H   H554      1.0  0.48042382129339883  0.3117310441609975  0.7459216430560878  1.0000
  H   H555      1.0  0.508450603747271  0.3006063303386671  0.7555878940350207  1.0000
  H   H556      1.0  0.456222771309926  0.24285254254964087  0.6968911406757251  1.0000
  H   H557      1.0  0.46785747694373797  0.2814861585452358  0.6946823628197094  1.0000
  H   H558      1.0  0.495392809796004  0.2699174186066801  0.705154926336093  1.0000
  H   H559      1.0  0.41540703303190774  0.23521984818268257  0.7369808810956874  1.0000
  H   H560      1.0  0.4264733946763143  0.273661246013299  0.7338040212856355  1.0000
  H   H561      1.0  0.425169011187021  0.2579228284065521  0.773097974409973  1.0000
  H   H562      1.0  0.4543762289842804  0.22006661873106767  0.7502063024243733  1.0000
  H   H563      1.0  0.4622107132278151  0.24137138140827813  0.7869259472354396  1.0000
  H   H564      1.0  0.49310813649119023  0.2478718480933909  0.759918651019485  1.0000
  N   N32       1.0  0.021653582522014107  0.3071045259750349  0.708113333962927  1.0000
  C   C413      1.0  0.9902240084939955  0.2887117063792762  0.6951708039679553  1.0000
  C   C414      1.0  0.03202012102053427  0.2880315653961464  0.7240869104994772  1.0000
  C   C415      1.0  0.02198429942655246  0.3286128931043101  0.7322873179982764  1.0000
  C   C416      1.0  0.04260598089101756  0.32305423266500494  0.680913907466405  1.0000
  H   H565      1.0  0.9813846471781419  0.30235441816051  0.6833656846897882  1.0000
  H   H566      1.0  0.973882914885776  0.27557950623944943  0.7148007305404878  1.0000
  H   H567      1.0  0.9895721781783082  0.27272620193459973  0.6763598497335286  1.0000
  H   H568      1.0  0.016367788205765336  0.2749700523737063  0.744189684858227  1.0000
  H   H569      1.0  0.03284490535338279  0.2721144180924348  0.7063125583235641  1.0000
  H   H570      1.0  0.05548686636400981  0.3012343566858842  0.734611278484431  1.0000
  H   H571      1.0  0.014401556035291483  0.3434998497302816  0.7211063735215469  1.0000
  H   H572      1.0  0.045562774981489876  0.34272347245059553  0.7423196929527679  1.0000
  H   H573      1.0  0.006549966303926345  0.3173022192806893  0.7532511539357895  1.0000
  H   H574      1.0  0.06669659834189778  0.3366651479578358  0.689741160368132  1.0000
  H   H575      1.0  0.035841296150190605  0.3380360783214012  0.6685193584420704  1.0000
  H   H576      1.0  0.042574389587525595  0.3074203277627916  0.6620027089088782  1.0000
  N   N33       1.0  0.7797849296684979  0.19827276312824108  0.13644071775995997  1.0000
  C   C417      1.0  0.7827553892178946  0.17637415523742084  0.1568242847144581  1.0000
  C   C418      1.0  0.7482423455963463  0.18508647888149266  0.12325518706363776  1.0000
  C   C419      1.0  0.8018064395346103  0.20745358545072337  0.10903352191132926  1.0000
  C   C420      1.0  0.7861795658002431  0.22432640459483505  0.1567466963927078  1.0000
  H   H577      1.0  0.8061766233709637  0.18564815770452942  0.1675301932656589  1.0000
  H   H578      1.0  0.7779997335603867  0.15629431355179277  0.1424214421553745  1.0000
  H   H579      1.0  0.7662605102523821  0.1692287733550631  0.17767306533623203  1.0000
  H   H580      1.0  0.7309951639175516  0.17759385301588473  0.14335129284556228  1.0000
  H   H581      1.0  0.745053653453421  0.20127164790571767  0.1082513368926577  1.0000
  H   H582      1.0  0.7426768080959135  0.16560430326063308  0.10737237546952169  1.0000
  H   H583      1.0  0.7997458616614621  0.2239573299390511  0.09336084432891117  1.0000
  H   H584      1.0  0.797676031899694  0.1883796044216054  0.09307334484936788  1.0000
  H   H585      1.0  0.8258893584546929  0.2178196386612442  0.11805283925799802  1.0000
  H   H586      1.0  0.8094210480973856  0.23443651781886057  0.16799884097579698  1.0000
  H   H587      1.0  0.7693092456309718  0.21830791632035068  0.17696106805402834  1.0000
  H   H588      1.0  0.784845957271034  0.24163673474620587  0.1420457090062916  1.0000
  N   N34       1.0  0.33251558707073503  0.8384858235771565  0.24112257807274978  1.0000
  C   C421      1.0  0.31799440789949984  0.8373678699998058  0.20927612110753546  1.0000
  C   C422      1.0  0.3573272836977513  0.8688649072602843  0.24751429293714292  1.0000
  C   C423      1.0  0.3454652446276874  0.8181711032414432  0.24027740764452676  1.0000
  C   C424      1.0  0.30922502667652063  0.829494526756335  0.2672919125544881  1.0000
  H   H589      1.0  0.3074894063320977  0.8520284954326415  0.2090164713262291  1.0000
  H   H590      1.0  0.2994018877816949  0.8147293571135734  0.2037027230618543  1.0000
  H   H591      1.0  0.334742075098948  0.8437620763212956  0.18878982916181652  1.0000
  H   H592      1.0  0.37522238041307693  0.8761983536192929  0.22812597682953892  1.0000
  H   H593      1.0  0.34832465292945014  0.8847583539857821  0.2481756722723712  1.0000
  H   H594      1.0  0.36882077238829636  0.8705352880777437  0.27137297929161597  1.0000
  H   H595      1.0  0.3272686460605718  0.7950247737828754  0.2358384974274854  1.0000
  H   H596      1.0  0.357038545997696  0.8186222893356025  0.26367809169734335  1.0000
  H   H597      1.0  0.36251339874102684  0.8237611690386859  0.22018673815357062  1.0000
  H   H598      1.0  0.3192804062963325  0.8301979620225998  0.29176534517309805  1.0000
  H   H599      1.0  0.2902001619871586  0.8065999815897318  0.26321007602979907  1.0000
  H   H600      1.0  0.29844545684421964  0.8439380734151847  0.2681895516728037  1.0000
  N   N35       1.0  0.8824294088898952  0.07251808058996291  0.6912929557777588  1.0000
  C   C425      1.0  0.8651590808683618  0.0811060576404464  0.7142522607676275  1.0000
  C   C426      1.0  0.8918072632643042  0.053062482566165026  0.7081537490534945  1.0000
  C   C427      1.0  0.9099901635728199  0.09928573680604703  0.6798983382377236  1.0000
  C   C428      1.0  0.8626721236643151  0.056638134365712134  0.6629823034418635  1.0000
  H   H601      1.0  0.8579794918762415  0.09589238248299811  0.7022449663700248  1.0000
  H   H602      1.0  0.8793885271928789  0.093517511981762  0.7357863264577655  1.0000
  H   H603      1.0  0.8440767029566216  0.06159642309630632  0.7233218848846739  1.0000
  H   H604      1.0  0.9048923913042943  0.04611276103222664  0.691537267740865  1.0000
  H   H605      1.0  0.9066681328395735  0.06442059308928368  0.7296944837800287  1.0000
  H   H606      1.0  0.8714766544456624  0.03270874318389752  0.7171035979436116  1.0000
  H   H607      1.0  0.9238644269335203  0.0938138376742781  0.6627369003697007  1.0000
  H   H608      1.0  0.9250370880970534  0.11220622225655034  0.7007514370544805  1.0000
  H   H609      1.0  0.9037148916480382  0.11443688603040873  0.6669956701888692  1.0000
  H   H610      1.0  0.8749796433791842  0.050129064805537075  0.6448218127453152  1.0000
  H   H611      1.0  0.8546682650024028  0.07049130602041334  0.6500698343310606  1.0000
  H   H612      1.0  0.8417295908588647  0.03622607930462896  0.6706764756177186  1.0000
  N   N36       1.0  0.7320670282191908  0.8173286290851661  0.541022826503255  1.0000
  C   C429      1.0  0.7127410526821805  0.8249662443023814  0.5620011993035088  1.0000
  C   C430      1.0  0.7310206653167702  0.7900809514213765  0.5531689366495831  1.0000
  C   C431      1.0  0.7640088261007026  0.8417727377265811  0.5419979379415508  1.0000
  C   C432      1.0  0.7204265006746436  0.8125615895085264  0.5070206375151676  1.0000
  H   H613      1.0  0.7121556017256551  0.8448719809166528  0.5529861451002444  1.0000
  H   H614      1.0  0.721433910842481  0.8298664908255556  0.5875315010469718  1.0000
  H   H615      1.0  0.6887894795780549  0.8065190475713585  0.5631595006566069  1.0000
  H   H616      1.0  0.7455343451632545  0.7837270547232849  0.5380989120230586  1.0000
  H   H617      1.0  0.7393570894155782  0.7928537452365293  0.5789077393417943  1.0000
  H   H618      1.0  0.7071898186986963  0.7712374140300907  0.5528109651731078  1.0000
  H   H619      1.0  0.7654214483517425  0.8627093098612286  0.5333804642656846  1.0000
  H   H620      1.0  0.7793040330083495  0.836908090234692  0.5263357934596264  1.0000
  H   H621      1.0  0.7733983521817775  0.8458156566757035  0.567397908555783  1.0000
  H   H622      1.0  0.734329866782863  0.8066647699885985  0.49036326985308115  1.0000
  H   H623      1.0  0.7207846855383576  0.8326670417801022  0.4970804993713142  1.0000
  H   H624      1.0  0.6962269126899593  0.7944371853603552  0.5054711522470156  1.0000
  N   N37       1.0  0.08077103439723966  0.31219507905470995  0.25662065965235936  1.0000
  C   C433      1.0  0.07148464266801995  0.32483066776123665  0.2841189646521679  1.0000
  C   C434      1.0  0.09888789244926938  0.3356200204642168  0.23286537966215698  1.0000
  C   C435      1.0  0.05305564485635143  0.28871306600692626  0.2404300997599325  1.0000
  C   C436      1.0  0.09961664247422782  0.29952637752541805  0.2691717370767826  1.0000
  H   H625      1.0  0.05781258554593967  0.30772657364548095  0.3025188172326337  1.0000
  H   H626      1.0  0.057266862974350734  0.33464629661817563  0.27556903300684876  1.0000
  H   H627      1.0  0.09176378498097063  0.34246068678206043  0.2970734099132649  1.0000
  H   H628      1.0  0.12033302923520348  0.35324294260785566  0.24417165083344478  1.0000
  H   H629      1.0  0.10580920506643206  0.3267862291159402  0.21147451897554465  1.0000
  H   H630      1.0  0.08578841302701484  0.34635065453484604  0.22351879170779607  1.0000
  H   H631      1.0  0.038292191540942946  0.2974609201497988  0.2305625499398699  1.0000
  H   H632      1.0  0.038864048114007184  0.27080241372725894  0.2579079368048891  1.0000
  H   H633      1.0  0.059148421997134305  0.2783947874303755  0.21979721457123885  1.0000
  H   H634      1.0  0.08635752510082528  0.28121876225442827  0.28641787993365947  1.0000
  H   H635      1.0  0.12019612728205241  0.31632226668016966  0.28256274068768833  1.0000
  H   H636      1.0  0.10782894439285882  0.2905255839404912  0.24907785635312854  1.0000
  N   N38       1.0  0.6372907780821624  0.4301385014487193  0.0026653353070023034  1.0000
  C   C437      1.0  0.6428227196801574  0.43085709872516603  0.03828827887278896  1.0000
  C   C438      1.0  0.629805168758897  0.4535957591551265  0.9942609782798753  1.0000
  C   C439      1.0  0.6113743709870489  0.40113684809908867  0.9932337042609559  1.0000
  C   C440      1.0  0.6651591354886169  0.435014549822511  0.9847837821803705  1.0000
  H   H637      1.0  0.6224359963046036  0.42763778593238677  0.0526430165258982  1.0000
  H   H638      1.0  0.6623306952280171  0.45241533601207945  0.0461642798146058  1.0000
  H   H639      1.0  0.648580706175478  0.41349616885466045  0.045578232235274685  1.0000
  H   H640      1.0  0.6260430689581336  0.45401428954266804  0.9674310660297012  1.0000
  H   H641      1.0  0.6086662956277856  0.4504443118101512  0.00693545899667436  1.0000
  H   H642      1.0  0.6486530140750313  0.47572433904854  0.0015023171501622468  1.0000
  H   H643      1.0  0.6162780630125899  0.3829123790946426  0.9989928977923  1.0000
  H   H644      1.0  0.6065702823477453  0.3999986324042222  0.9664914245328194  1.0000
  H   H645      1.0  0.5899462595869348  0.3967607312185222  0.006237256997226881  1.0000
  H   H646      1.0  0.6619959249285708  0.4351726404255845  0.9578282443362088  1.0000
  H   H647      1.0  0.671420236303143  0.417617900494418  0.9901603113790846  1.0000
  H   H648      1.0  0.6851984099532891  0.4565281816496895  0.991637141878189  1.0000
  N   N39       1.0  0.9042994728790557  0.7394848571580783  0.530589806681942  1.0000
  C   C441      1.0  0.8997760503999602  0.7377224556933349  0.4947316954641738  1.0000
  C   C442      1.0  0.9104249639151589  0.7156501984116195  0.5412093933651321  1.0000
  C   C443      1.0  0.8763107554707049  0.7361479993736293  0.5469412586085439  1.0000
  C   C444      1.0  0.9306796178458232  0.7683663023032288  0.5395040568868326  1.0000
  H   H649      1.0  0.8798139437600914  0.716333739342505  0.4872666412625049  1.0000
  H   H650      1.0  0.9201687058668817  0.7395491201495371  0.48154031282555554  1.0000
  H   H651      1.0  0.8952776955446081  0.7554659005889341  0.48578704056906247  1.0000
  H   H652      1.0  0.9132800356818445  0.7159427365000302  0.5682787755733706  1.0000
  H   H653      1.0  0.8912597094685256  0.6935841697218743  0.5343071070440137  1.0000
  H   H654      1.0  0.931678892067047  0.7177161962462156  0.5298761917479569  1.0000
  H   H655      1.0  0.8786781520551848  0.7368165170763497  0.5740611116524786  1.0000
  H   H656      1.0  0.855947949172735  0.7147229907128801  0.5404374548860245  1.0000
  H   H657      1.0  0.8710434551690948  0.7538656423147861  0.5398673992042923  1.0000
  H   H658      1.0  0.9348247637482074  0.7703050808939245  0.5663991289470677  1.0000
  H   H659      1.0  0.9267807198316352  0.7868818256799481  0.5321432261017977  1.0000
  H   H660      1.0  0.9521718411145828  0.771584023731114  0.5275627253263845  1.0000
  N   N40       1.0  0.6415174945759934  0.3256122302495406  0.8521785613771544  1.0000
  C   C445      1.0  0.6546753819712765  0.34864488508338065  0.8268847837788531  1.0000
  C   C446      1.0  0.6644469920232556  0.31666593558111605  0.8615660032779034  1.0000
  C   C447      1.0  0.6137504069305484  0.29975277429768876  0.8391144613401417  1.0000
  C   C448      1.0  0.6332223161241353  0.3374667273023863  0.8811794952704931  1.0000
  H   H661      1.0  0.6749886779152144  0.36888180647116353  0.8363509922833855  1.0000
  H   H662      1.0  0.6378181372004222  0.35541972784375864  0.8185402762118826  1.0000
  H   H663      1.0  0.6622376345309524  0.34092707448692083  0.8050369237954087  1.0000
  H   H664      1.0  0.6553553692081451  0.29932371052313694  0.8806311590796676  1.0000
  H   H665      1.0  0.6711248836732616  0.307456512022492  0.8402612729290373  1.0000
  H   H666      1.0  0.6857764104925111  0.33570059365551796  0.8713927075740923  1.0000
  H   H667      1.0  0.6027281331482773  0.28230107418615225  0.8579052812950402  1.0000
  H   H668      1.0  0.619290476047803  0.28964714784334705  0.8177980983094415  1.0000
  H   H669      1.0  0.5962264337786458  0.3058420070666415  0.8310195482208677  1.0000
  H   H670      1.0  0.6535403193869492  0.35737599494947764  0.8912876597702817  1.0000
  H   H671      1.0  0.623543631096934  0.3208022258499219  0.900932836576178  1.0000
  H   H672      1.0  0.6156400038570581  0.34402475297106133  0.8749933076100471  1.0000
  N   N41       1.0  0.27600259064802724  0.09367582974061839  0.7733368609111693  1.0000
  C   C449      1.0  0.2873002852965751  0.08612565170070274  0.7432469960728487  1.0000
  C   C450      1.0  0.3005506035641829  0.10524430918688354  0.7983964028254796  1.0000
  C   C451      1.0  0.24899667315083626  0.06694147442683973  0.7856776842118177  1.0000
  C   C452      1.0  0.2671196292124453  0.11637709961367548  0.7659502904457955  1.0000
  H   H673      1.0  0.26928825934627365  0.0773045722292991  0.7238192661827287  1.0000
  H   H674      1.0  0.2940811256145202  0.06895529402986211  0.7478749970935712  1.0000
  H   H675      1.0  0.3076624316310276  0.10576140476156093  0.7331709578303806  1.0000
  H   H676      1.0  0.3211335293287519  0.12560836606548254  0.7899253123914439  1.0000
  H   H677      1.0  0.29279177323676275  0.11100772205728182  0.8215322062712487  1.0000
  H   H678      1.0  0.3081342144421423  0.08886227290032833  0.8043433829229156  1.0000
  H   H679      1.0  0.23961027882664807  0.07177720786661257  0.8082055195887985  1.0000
  H   H680      1.0  0.2547938978544904  0.04928804320646285  0.791489983444356  1.0000
  H   H681      1.0  0.23014690806928503  0.05764512132895461  0.7671546246584312  1.0000
  H   H682      1.0  0.2589479095183704  0.12298169085268396  0.7881737221840688  1.0000
  H   H683      1.0  0.24831516719385502  0.10825232340874424  0.747520124459925  1.0000
  H   H684      1.0  0.28670448277729776  0.13661289903536833  0.7558879527382681  1.0000
  N   N42       1.0  0.7916408975412658  0.5923212114395072  0.8940317242522262  1.0000
  C   C453      1.0  0.8033434506554603  0.5751763568600087  0.9120002524155644  1.0000
  C   C454      1.0  0.8036265974381792  0.6218291819568184  0.9092500380561194  1.0000
  C   C455      1.0  0.757786181806581  0.5767449562301677  0.8953105563435364  1.0000
  C   C456      1.0  0.8016158783821019  0.5953857974224426  0.8595238222827485  1.0000
  H   H685      1.0  0.7947808022235613  0.5527853619447394  0.9010482490999216  1.0000
  H   H686      1.0  0.795696196434272  0.5718285091908883  0.9380085165243397  1.0000
  H   H687      1.0  0.828833024505383  0.5862457798502101  0.9118461973338025  1.0000
  H   H688      1.0  0.8291509407333904  0.6342243250955969  0.9087457022762383  1.0000
  H   H689      1.0  0.7951274858165541  0.6352400221352605  0.8961982488626368  1.0000
  H   H690      1.0  0.796316299927801  0.6201655525291161  0.9352719203343233  1.0000
  H   H691      1.0  0.7479600910348998  0.589033282302658  0.8822338810721391  1.0000
  H   H692      1.0  0.7491830203470641  0.5731105849111792  0.9209319880984771  1.0000
  H   H693      1.0  0.7481947481120739  0.5548125978150279  0.8832232057119475  1.0000
  H   H694      1.0  0.7925778995908987  0.6076253252151378  0.8450237586465282  1.0000
  H   H695      1.0  0.7930511652016533  0.5734124865448857  0.8475042327857988  1.0000
  H   H696      1.0  0.8270494288553595  0.6073013420611821  0.8573751637660433  1.0000
  N   N43       1.0  0.17801132290585586  0.7940863114623029  0.6616742064399707  1.0000
  C   C457      1.0  0.19134595312624159  0.8238346735208396  0.6473644721094732  1.0000
  C   C458      1.0  0.17392678684390078  0.7724270390607096  0.6357485618434017  1.0000
  C   C459      1.0  0.14788316449180494  0.7862673576035741  0.6761498920624605  1.0000
  C   C460      1.0  0.19872045278938769  0.7939536115878203  0.6874477462890306  1.0000
  H   H697      1.0  0.19508487968348528  0.8407677537661817  0.666448565071371  1.0000
  H   H698      1.0  0.175904001189558  0.824851454252131  0.6283454324897605  1.0000
  H   H699      1.0  0.21391371823799457  0.830419099194719  0.6357274190201596  1.0000
  H   H700      1.0  0.1636850955451231  0.7496957224776929  0.645672390180539  1.0000
  H   H701      1.0  0.15834955851694033  0.7722513664585813  0.6160478196282515  1.0000
  H   H702      1.0  0.19618775886653295  0.7776636413590058  0.6241342217027218  1.0000
  H   H703      1.0  0.13146355473108615  0.7856861787547492  0.6573050856440673  1.0000
  H   H704      1.0  0.15013393788600485  0.8026598838248818  0.6951484624782728  1.0000
  H   H705      1.0  0.13734730962235264  0.7643236499819687  0.6880640252828134  1.0000
  H   H706      1.0  0.18902724186774245  0.7721039737269295  0.6995325844304193  1.0000
  H   H707      1.0  0.2025035078600778  0.8105425188121584  0.706975847060976  1.0000
  H   H708      1.0  0.22161675237171038  0.7994319815933115  0.6774161799914281  1.0000
  N   N44       1.0  0.7673504002183461  0.0653175286365585  0.5369542749002112  1.0000
  C   C461      1.0  0.7522511935377  0.0759119246310541  0.5605394345416455  1.0000
  C   C462      1.0  0.7587071533839675  0.06847594056928921  0.5032348711156458  1.0000
  C   C463      1.0  0.7574191661148146  0.033907296047824775  0.5431653140122011  1.0000
  C   C464      1.0  0.8010118836136583  0.08295962540910491  0.5409277117488019  1.0000
  H   H709      1.0  0.7598210125001328  0.09975118832028414  0.5571151252703177  1.0000
  H   H710      1.0  0.7578238174122742  0.07323443398637824  0.5862524695785796  1.0000
  H   H711      1.0  0.7268457554193076  0.06352971433422716  0.5579648223852556  1.0000
  H   H712      1.0  0.7335118726570431  0.055145037249790196  0.4992111394350471  1.0000
  H   H713      1.0  0.7652940482403542  0.09176978604330444  0.49784017733250635  1.0000
  H   H714      1.0  0.7702439646596555  0.06134515975633853  0.48473451630943576  1.0000
  H   H715      1.0  0.7637157123686472  0.030698132234555853  0.568323217238019  1.0000
  H   H716      1.0  0.768248304775836  0.025109855744466447  0.5257472678887564  1.0000
  H   H717      1.0  0.7320860328579604  0.02000677941008172  0.5408178122262697  1.0000
  H   H718      1.0  0.8132631667589854  0.07535166030532943  0.5239805395531851  1.0000
  H   H719      1.0  0.8082265660597041  0.08161930333913173  0.5663542191628912  1.0000
  H   H720      1.0  0.809328760170779  0.10668735811172951  0.5358878549994465  1.0000
  N   N45       1.0  0.10480860656360758  0.6590559475113023  0.8512151552302925  1.0000
  C   C465      1.0  0.1159402994432166  0.6792089824984044  0.8797918329336061  1.0000
  C   C466      1.0  0.08895555534574795  0.6282137442578369  0.8626237885470449  1.0000
  C   C467      1.0  0.13108764995366218  0.663746732508116  0.8305076153264876  1.0000
  C   C468      1.0  0.08351074737745234  0.6652262921486171  0.8319809984386101  1.0000
  H   H721      1.0  0.13209753258338863  0.6751805396460181  0.8948889352640701  1.0000
  H   H722      1.0  0.09677062380298329  0.6764268659067835  0.8959606018256336  1.0000
  H   H723      1.0  0.12822958400405904  0.7027103523182542  0.8720528546587286  1.0000
  H   H724      1.0  0.08035061836417934  0.6123330273088472  0.8417210173266957  1.0000
  H   H725      1.0  0.10480369558868063  0.6231984810708002  0.877151418861867  1.0000
  H   H726      1.0  0.06908516389028896  0.6238498419110841  0.878533511193329  1.0000
  H   H727      1.0  0.12363993170743903  0.648872986377877  0.808729026740823  1.0000
  H   H728      1.0  0.14770632449709464  0.6594348794915275  0.8443394557113646  1.0000
  H   H729      1.0  0.14362933946935685  0.6868425090120684  0.8214992324695319  1.0000
  H   H730      1.0  0.06342645142401881  0.6620622818355739  0.8468424997549364  1.0000
  H   H731      1.0  0.07475809118902377  0.6505842232518066  0.8100559284765505  1.0000
  H   H732      1.0  0.09517919311465795  0.6885015050194394  0.8232360480170596  1.0000
  N   N46       1.0  0.26114404165594235  0.24333415073722908  0.7244469347907933  1.0000
  C   C469      1.0  0.24344695320707505  0.2157906117650408  0.7429750507151992  1.0000
  C   C470      1.0  0.24230400938616412  0.2579582626094855  0.7198636726875001  1.0000
  C   C471      1.0  0.2695121442006758  0.2363479513752063  0.692143064027458  1.0000
  C   C472      1.0  0.2893656805748129  0.26316918193879674  0.7427894129397519  1.0000
  H   H733      1.0  0.23657252975089146  0.22016459576240732  0.7674256678442793  1.0000
  H   H734      1.0  0.2570328447164427  0.2042147790404895  0.7468498554772308  1.0000
  H   H735      1.0  0.22211256429033951  0.2002019796848729  0.7297739289321645  1.0000
  H   H736      1.0  0.25510798131880824  0.2791413541365006  0.7065678618539076  1.0000
  H   H737      1.0  0.22132212932989836  0.2438499649594367  0.7053107673399062  1.0000
  H   H738      1.0  0.23460991299065453  0.26271211527965876  0.7436549153376417  1.0000
  H   H739      1.0  0.2821236302490834  0.256441757233227  0.6770259865383759  1.0000
  H   H740      1.0  0.2488463706673848  0.22064555733609348  0.6780055114465147  1.0000
  H   H741      1.0  0.28440895414002687  0.22601450830485412  0.6946970789810047  1.0000
  H   H742      1.0  0.2839194345504539  0.2689825325472181  0.767270418077602  1.0000
  H   H743      1.0  0.30347058429216595  0.28406515432359675  0.7293816021826406  1.0000
  H   H744      1.0  0.30395103271537605  0.252590708578817  0.7467522724445451  1.0000
  N   N47       1.0  0.8700661144447479  0.8133648399079281  0.3435968471349559  1.0000
  C   C473      1.0  0.903703988893687  0.8318389465607696  0.3405497698166311  1.0000
  C   C474      1.0  0.8579396117229561  0.794114083560625  0.31435452673407555  1.0000
  C   C475      1.0  0.8556600945770885  0.8323984704695335  0.34633634474136343  1.0000
  C   C476      1.0  0.8630258528189549  0.7950211586285031  0.37316449903165094  1.0000
  H   H745      1.0  0.9137704197798331  0.8464220268807954  0.3623395738579869  1.0000
  H   H746      1.0  0.9099574671794273  0.8460651089980831  0.31854316612034794  1.0000
  H   H747      1.0  0.9151114685446888  0.8179610966821581  0.3382550102785293  1.0000
  H   H748      1.0  0.8325999583537114  0.7800326848204716  0.31559343849828725  1.0000
  H   H749      1.0  0.8632141733409524  0.8072081879264283  0.2915294896344069  1.0000
  H   H750      1.0  0.8680317964308513  0.7791513048787562  0.3118021490510154  1.0000
  H   H751      1.0  0.8645047881679098  0.8474524312184362  0.3679345837790575  1.0000
  H   H752      1.0  0.8303067976812852  0.8190739236302355  0.349235683505767  1.0000
  H   H753      1.0  0.8599745322900959  0.8461962955653191  0.32419248024520086  1.0000
  H   H754      1.0  0.8379140264343252  0.7803023941371607  0.3760089346369444  1.0000
  H   H755      1.0  0.8713595588186847  0.8087513024870246  0.3957829778140867  1.0000
  H   H756      1.0  0.8740014099126617  0.7807898467966721  0.3721005386990482  1.0000
  N   N48       1.0  0.1757424878567285  0.8934568608756914  0.2689977819164051  1.0000
  C   C477      1.0  0.17354638630084018  0.9182467369316959  0.25410100444650036  1.0000
  C   C478      1.0  0.19765592333949386  0.9046659348449619  0.29666047752296076  1.0000
  C   C479      1.0  0.1864913585454309  0.879520378660377  0.24432356115742995  1.0000
  C   C480      1.0  0.14520169423383117  0.8714029648695755  0.28100910995335016  1.0000
  H   H757      1.0  0.1656214827558957  0.9292606156712542  0.27229420378784036  1.0000
  H   H758      1.0  0.15694257114091412  0.9106141461801388  0.23337748820866028  1.0000
  H   H759      1.0  0.19616388573260427  0.9353537074068721  0.24473347555902708  1.0000
  H   H760      1.0  0.19991918195315236  0.8865851931510246  0.30854958944437927  1.0000
  H   H761      1.0  0.2209157908836871  0.9215217435355997  0.2885769781382426  1.0000
  H   H762      1.0  0.19010833040485464  0.9152245160278448  0.31579606646028097  1.0000
  H   H763      1.0  0.20967623333622437  0.8953656411687008  0.23499068551208338  1.0000
  H   H764      1.0  0.1705951550323032  0.8709857481109152  0.22299799816983693  1.0000
  H   H765      1.0  0.1879456970387481  0.8604578019223881  0.2547399663128564  1.0000
  H   H766      1.0  0.1460905179968396  0.8527443400837731  0.2931841501418771  1.0000
  H   H767      1.0  0.12817043679036427  0.8619546209541981  0.2607705368090065  1.0000
  H   H768      1.0  0.13613465891706486  0.8813408050096211  0.29913638085826444  1.0000
