data_image0
_chemical_formula_structural       FeS2FeS2FeSFeS3FeS2FeS2FeSFeS3FeS2FeS2FeSFeS3FeS2FeS2FeSFeS3FeS2FeS2FeSFeS3FeS2FeS2FeSFeS3FeS2FeS2FeSFeS3FeS2FeS2FeSFeS3FeS2FeS2FeSFeS3FeS2FeS2FeSFeS3FeS2FeS2FeSFeS3FeS2FeS2FeSFeS3FeS2FeS2FeSFeS3FeS2FeS2FeSFeS3FeS2FeS2FeSFeS3FeS2FeS2FeSFeS3C6H4C6H4C6H4C6H4C6H4C6H4C6H4C6H4C6H4C6H4C6H4C6H4C6H4C6H4C6H4C6H4C6H4C6H4C6H4C6H4C6H4C6H4C6H4C6H4C6H4C6H4C6H4C6H4C6H4C6H4C6H4C6H4NC4H12NC4H12NC4H12NC4H12NC4H12NC4H12NC4H12NC4H12NC4H12NC4H12NC4H12NC4H12NC4H12NC4H12NC4H12NC4H12NC4H12NC4H12NC4H12NC4H12NC4H12NC4H12NC4H12NC4H12NC4H12NC4H12NC4H12NC4H12NC4H12NC4H12NC4H12NC4H12
_chemical_formula_sum              "Fe64 S128 C320 H512 N32"
_cell_length_a       41.57688804913573
_cell_length_b       40.16451261639842
_cell_length_c       46.0647715733078
_cell_angle_alpha    89.73236441995947
_cell_angle_beta     90.23267341094336
_cell_angle_gamma    114.04673444414745

_space_group_name_H-M_alt    "P 1"
_space_group_IT_number       1

loop_
  _space_group_symop_operation_xyz
  'x, y, z'

loop_
  _atom_site_type_symbol
  _atom_site_label
  _atom_site_symmetry_multiplicity
  _atom_site_fract_x
  _atom_site_fract_y
  _atom_site_fract_z
  _atom_site_occupancy
  Fe  Fe1       1.0  0.6891240813102762  0.3645256095911401  0.3282669544954401  1.0000
  S   S1        1.0  0.6802640554180306  0.39657108701349236  0.3649318020421653  1.0000
  S   S2        1.0  0.7329626020817913  0.3874576102595339  0.29420429003184584  1.0000
  Fe  Fe2       1.0  0.6175015493915815  0.29955297393390096  0.3377975471283286  1.0000
  S   S3        1.0  0.6043521278453082  0.3273348319748465  0.3756462564543047  1.0000
  S   S4        1.0  0.5709169795329451  0.24830826815637028  0.3218121425941256  1.0000
  Fe  Fe3       1.0  0.6249113153085746  0.3780126970582957  0.34807511812884323  1.0000
  S   S5        1.0  0.594282612206644  0.41388524232127244  0.3494632467072489  1.0000
  Fe  Fe4       1.0  0.6602567160394884  0.3437923071616909  0.3904313044199369  1.0000
  S   S6        1.0  0.680295023308637  0.3479714192007492  0.43768649195986886  1.0000
  S   S7        1.0  0.6345910087640411  0.34965847424746527  0.30960108030052275  1.0000
  S   S8        1.0  0.6725977782874911  0.3122578869431737  0.3543802160586002  1.0000
  Fe  Fe5       1.0  0.3335772226824594  0.7260250405607366  0.32971422647558196  1.0000
  S   S9        1.0  0.35373446776615997  0.6907458464421786  0.3557020565251221  1.0000
  S   S10       1.0  0.37002944673654686  0.7688259462165454  0.29769976480970833  1.0000
  Fe  Fe6       1.0  0.2557077941925493  0.6720627220976999  0.34053316709393505  1.0000
  S   S11       1.0  0.27101295210521154  0.6338899850177507  0.3676056870545566  1.0000
  S   S12       1.0  0.20117032707962204  0.6646072208482638  0.3237603284491213  1.0000
  Fe  Fe7       1.0  0.31103797030199515  0.6851945641949706  0.38853197859568184  1.0000
  S   S13       1.0  0.3304482550816622  0.6934907502688001  0.43630013809828233  1.0000
  Fe  Fe8       1.0  0.31254806048430933  0.6425783110365061  0.33346431602590865  1.0000
  S   S14       1.0  0.3162101986633691  0.596372207024943  0.30700050211118357  1.0000
  S   S15       1.0  0.29315421769157374  0.7233877031242227  0.3632918316946035  1.0000
  S   S16       1.0  0.2948694292141399  0.6778271233801534  0.3056760753787873  1.0000
  Fe  Fe9       1.0  0.4844077014524794  0.5331424211326692  0.17978221810758918  1.0000
  S   S17       1.0  0.4720887607708136  0.4737266573273567  0.1838813202390056  1.0000
  S   S18       1.0  0.49945216047231045  0.5542435231311201  0.1339245430908354  1.0000
  Fe  Fe10      1.0  0.460189881665025  0.5366380600197221  0.2419037571859289  1.0000
  S   S19       1.0  0.4461658380190124  0.4768626415329462  0.25050744894367066  1.0000
  S   S20       1.0  0.45649927620055386  0.5758447602108797  0.27616129698542125  1.0000
  Fe  Fe11      1.0  0.4974251448944804  0.4865688703772028  0.22807353102699596  1.0000
  S   S21       1.0  0.538199915993978  0.46232172432181384  0.2344431579786758  1.0000
  Fe  Fe12      1.0  0.42248536875937065  0.4689035291615097  0.2055392416157179  1.0000
  S   S22       1.0  0.36888905810809147  0.427670198697649  0.19141195594901933  1.0000
  S   S23       1.0  0.5134064480823223  0.5470077781147907  0.22228475407484474  1.0000
  S   S24       1.0  0.43285740727367183  0.5277635904989844  0.19867926197927757  1.0000
  Fe  Fe13      1.0  0.5156106560286802  0.057774277087987325  0.23347510178950096  1.0000
  S   S25       1.0  0.5207963550032629  0.0038269252045008977  0.23444309520853385  1.0000
  S   S26       1.0  0.5613168173533496  0.10532306237189032  0.2546798877182126  1.0000
  Fe  Fe14      1.0  0.44537463325739934  0.024219902947112116  0.20078826163340452  1.0000
  S   S27       1.0  0.44555603004680266  0.9686488661571906  0.19975276731890335  1.0000
  S   S28       1.0  0.396916456171952  0.03061674319565245  0.18428961902047133  1.0000
  Fe  Fe15      1.0  0.46324940590510144  0.9784477349495934  0.2461872071758509  1.0000
  S   S29       1.0  0.43790273752237874  0.9428680910034812  0.2857803633065136  1.0000
  Fe  Fe16      1.0  0.5027637846780546  0.9986407531418637  0.18788327111609246  1.0000
  S   S30       1.0  0.5207732167931292  0.9744364724460173  0.15019064420909053  1.0000
  S   S31       1.0  0.45929968006660926  0.0326803406599638  0.2481468829077493  1.0000
  S   S32       1.0  0.5013704186338401  0.05395416623165957  0.18584034167881563  1.0000
  Fe  Fe17      1.0  0.9383371945129769  0.49545648646017343  0.26493100063339947  1.0000
  S   S33       1.0  0.9723109626081782  0.4647685318804708  0.2582164383349718  1.0000
  S   S34       1.0  0.9000049086811619  0.4765233760878219  0.3031423020084189  1.0000
  Fe  Fe18      1.0  0.9765137612604956  0.5489217068404065  0.21600035934354092  1.0000
  S   S35       1.0  0.01295504983219567  0.5216506141947553  0.2058159041071559  1.0000
  S   S36       1.0  0.9794158362582899  0.6005016618867892  0.19388961857154097  1.0000
  Fe  Fe19      1.0  0.9638700416654817  0.46985277787857294  0.2105075649144318  1.0000
  S   S37       1.0  0.9401021206896615  0.4196626643908966  0.182052875447755  1.0000
  Fe  Fe20      1.0  0.01854835343285375  0.519360539853072  0.2545872371971334  1.0000
  S   S38       1.0  0.06710837782241535  0.524386052787705  0.2813889047373506  1.0000
  S   S39       1.0  0.9269877574741073  0.49739609759666853  0.21750219776985827  1.0000
  S   S40       1.0  0.9850285530252704  0.5498507303443642  0.2644127258878034  1.0000
  Fe  Fe21      1.0  0.6387760486006269  0.33582627686121624  0.6130155664046544  1.0000
  S   S41       1.0  0.6777285957290382  0.3136100145629588  0.6282954987354564  1.0000
  S   S42       1.0  0.6162350856672482  0.33089191157689357  0.5666646837990161  1.0000
  Fe  Fe22      1.0  0.6296867826351868  0.3608954428134412  0.674385843392481  1.0000
  S   S43       1.0  0.6687328899245568  0.3411404819154991  0.6931185832881673  1.0000
  S   S44       1.0  0.607163194756041  0.3807448155769531  0.7123885931315997  1.0000
  Fe  Fe23      1.0  0.7019703302436407  0.36540578666452844  0.654319686222987  1.0000
  S   S45       1.0  0.7619633474966836  0.39472360547590724  0.6549256471526963  1.0000
  Fe  Fe24      1.0  0.6417041684236644  0.29055329900255744  0.6666191204133364  1.0000
  S   S46       1.0  0.6379910196968225  0.2404349811557363  0.6925799408083726  1.0000
  S   S47       1.0  0.6652378539905602  0.38944199179230554  0.6368722650377839  1.0000
  S   S48       1.0  0.6005513031929813  0.3087331044843851  0.6499178355093075  1.0000
  Fe  Fe25      1.0  0.26042979075030787  0.6615429881951597  0.6784047652594523  1.0000
  S   S49       1.0  0.27096353184610855  0.6258727637318259  0.6456924622604188  1.0000
  S   S50       1.0  0.21507666633583314  0.6430228351706624  0.7113951163230492  1.0000
  Fe  Fe26      1.0  0.3291615152866865  0.7277544032673019  0.6638773489066343  1.0000
  S   S51       1.0  0.34464588742079616  0.6957894420246156  0.630675077406435  1.0000
  S   S52       1.0  0.36716426466887225  0.7882852492051825  0.6643115133366966  1.0000
  Fe  Fe27      1.0  0.2887534817510068  0.6743159769369149  0.6152563195860536  1.0000
  S   S53       1.0  0.27103941825155536  0.6680094996554223  0.5672612208355887  1.0000
  Fe  Fe28      1.0  0.3265833512699993  0.6496275051182075  0.662970664271735  1.0000
  S   S54       1.0  0.3552643314743031  0.6116304571074956  0.6640393368124825  1.0000
  S   S55       1.0  0.273601471192633  0.708434528914203  0.6468066091789898  1.0000
  S   S56       1.0  0.3156278803816557  0.6830495362851142  0.6975377204873486  1.0000
  Fe  Fe29      1.0  0.5082893373972647  0.5049542297011487  0.7596935645708077  1.0000
  S   S57       1.0  0.5255059160493715  0.5646753590845556  0.7703061571201221  1.0000
  S   S58       1.0  0.5273466142278178  0.4869342010483329  0.7186191613652986  1.0000
  Fe  Fe30      1.0  0.4607005380096501  0.48117595319580675  0.8132774901991773  1.0000
  S   S59       1.0  0.4744794927644621  0.5384593985495159  0.8277783938863938  1.0000
  S   S60       1.0  0.4263968675402835  0.4301688212940653  0.8378912846080833  1.0000
  Fe  Fe31      1.0  0.46822062270165554  0.5500881980279541  0.7804471366283114  1.0000
  S   S61       1.0  0.43657104840825967  0.584760949355705  0.7739517128847838  1.0000
  Fe  Fe32      1.0  0.5299648948055253  0.5480589557676836  0.816467164810235  1.0000
  S   S62       1.0  0.5783645232004687  0.57247189124708  0.8453754541145296  1.0000
  S   S63       1.0  0.45058087007361275  0.4915619421608994  0.7668206489663302  1.0000
  S   S64       1.0  0.516596945443567  0.4896022510657729  0.8049367095871262  1.0000
  Fe  Fe33      1.0  0.4502465014388364  0.03123097585425443  0.8143720924001607  1.0000
  S   S65       1.0  0.4520571600776589  0.9764887243292082  0.816017847175762  1.0000
  S   S66       1.0  0.4330624368405176  0.05561129186381025  0.852480650917948  1.0000
  Fe  Fe34      1.0  0.4882683510939447  0.05058332713481475  0.756083632512729  1.0000
  S   S67       1.0  0.4931211905948185  0.9964660211436216  0.7531844622133156  1.0000
  S   S68       1.0  0.502201385198976  0.09359467099057514  0.7197788866583164  1.0000
  Fe  Fe35      1.0  0.43698476336386965  0.970565097588341  0.7686999060408701  1.0000
  S   S69       1.0  0.39455761175392073  0.9132239522030753  0.7593159272192079  1.0000
  Fe  Fe36      1.0  0.5076042028092185  0.0049397285527372735  0.8007191036529334  1.0000
  S   S70       1.0  0.5442441006628673  0.9831165015310361  0.822435785176329  1.0000
  S   S71       1.0  0.4305271915980746  0.02386064029596584  0.7683719550292522  1.0000
  S   S72       1.0  0.5074274044590011  0.06078307703814382  0.8023250395251414  1.0000
  Fe  Fe37      1.0  0.9321157973829858  0.4915283239446265  0.763657948435912  1.0000
  S   S73       1.0  0.9692111822512656  0.4656665381437484  0.7517231855894273  1.0000
  S   S74       1.0  0.8719324837195662  0.4671526960817991  0.7578595772466987  1.0000
  Fe  Fe38      1.0  0.9894432410625593  0.5518102927285733  0.7985139902849254  1.0000
  S   S75       1.0  0.02995743443107575  0.529671337714409  0.7900109857762044  1.0000
  S   S76       1.0  0.012448310525666972  0.6055882451392046  0.822279815545486  1.0000
  Fe  Fe39      1.0  0.010526622134850233  0.5228290028819642  0.744367119624495  1.0000
  S   S77       1.0  0.05075937520397967  0.5374080138855628  0.7074517957084011  1.0000
  Fe  Fe40      1.0  0.9868420703528344  0.4747439089812882  0.79832402327087  1.0000
  S   S78       1.0  0.001332801492338831  0.4324377241645214  0.820741526486342  1.0000
  S   S79       1.0  0.9717858018764713  0.548223747625719  0.751947288775335  1.0000
  S   S80       1.0  0.9477495082178817  0.4973216475743205  0.8111888586465453  1.0000
  Fe  Fe41      1.0  0.3275681374222214  0.34400714494361906  0.035995565782057946  1.0000
  S   S81       1.0  0.3010477654390407  0.38101922763256374  0.024719896015188425  1.0000
  S   S82       1.0  0.37113741885596446  0.35697014258982174  0.0693012027641427  1.0000
  Fe  Fe42      1.0  0.29006866217977567  0.29029279659772755  0.9875755247097282  1.0000
  S   S83       1.0  0.26183888117890136  0.32442521740192254  0.9715470887038602  1.0000
  S   S84       1.0  0.27679951845132234  0.23599019035055374  0.965064619123475  1.0000
  Fe  Fe43      1.0  0.31353457187873895  0.37257510831069307  0.9784505682604898  1.0000
  S   S85       1.0  0.336928109313576  0.42399768106056046  0.9509419821987966  1.0000
  Fe  Fe44      1.0  0.2516989632921294  0.3297219003211658  0.018699385976909788  1.0000
  S   S86       1.0  0.19794806906820173  0.3179768849850458  0.038408045052990926  1.0000
  S   S87       1.0  0.34271416328471055  0.338119134208966  0.9900350264539792  1.0000
  S   S88       1.0  0.2774881689246478  0.2933268787902381  0.03444868456631976  1.0000
  Fe  Fe45      1.0  0.9966620160434283  0.3489715296947618  0.04193954910704914  1.0000
  S   S89       1.0  0.9865180256892168  0.2904035246093064  0.03265340925584867  1.0000
  S   S90       1.0  0.023611892126611522  0.38060518591899273  0.08211901716323688  1.0000
  Fe  Fe46      1.0  0.976306822089005  0.36237267627477193  0.9801928550265442  1.0000
  S   S91       1.0  0.9659369154535262  0.30570861774786334  0.9658007107616206  1.0000
  S   S92       1.0  0.9635766790966674  0.40371322566285645  0.9545169807829174  1.0000
  Fe  Fe47      1.0  0.9377951970846489  0.2876275131075544  0.00842450501682901  1.0000
  S   S93       1.0  0.878739763069864  0.25128940183064036  0.009332724222170796  1.0000
  Fe  Fe48      1.0  0.015302715310613965  0.31318423609812346  0.9908282260699598  1.0000
  S   S94       1.0  0.05919698606262943  0.3018736447800778  0.9697976215285512  1.0000
  S   S95       1.0  0.9462379525222181  0.3445945630386604  0.021761158269858694  1.0000
  S   S96       1.0  0.027745245745428325  0.37157493785511675  0.0013173195816220673  1.0000
  Fe  Fe49      1.0  0.6518547387066006  0.03886046542713669  0.9698184833365048  1.0000
  S   S97       1.0  0.6894138105259712  0.013532572475403123  0.9579846645206161  1.0000
  S   S98       1.0  0.6197542316775337  0.058559426142313645  0.9397038730932888  1.0000
  Fe  Fe50      1.0  0.6677841917107811  0.039496829362338275  0.03485660303124586  1.0000
  S   S99       1.0  0.7061128814181793  0.01400125678194724  0.027917424097870742  1.0000
  S   S100      1.0  0.663040539136023  0.056028699279087754  0.08112027008608644  1.0000
  Fe  Fe51      1.0  0.7263063276027618  0.05326299957879226  0.9904495007917506  1.0000
  S   S101      1.0  0.7861831220944533  0.08242542478637828  0.9863738274879522  1.0000
  Fe  Fe52      1.0  0.6663741221762595  0.9767608399663278  0.9965940074401938  1.0000
  S   S102      1.0  0.6422198234040419  0.9147134208182139  0.9995247475137846  1.0000
  S   S103      1.0  0.690392020266454  0.08108043866259312  0.9994483598134691  1.0000
  S   S104      1.0  0.6263438678612652  0.9997358601196645  0.006313985670454603  1.0000
  Fe  Fe53      1.0  0.66407210837545  0.6874868099104329  0.05427451790511073  1.0000
  S   S105      1.0  0.6411503207386098  0.718308205822875  0.02623514157367013  1.0000
  S   S106      1.0  0.6499674480776837  0.6752547068798417  0.10172684893536527  1.0000
  Fe  Fe54      1.0  0.7135934333070028  0.6841996513673919  0.0071135757217168916  1.0000
  S   S107      1.0  0.6936898690622891  0.7136111883090336  0.9748253206335474  1.0000
  S   S108      1.0  0.7562435871438841  0.6670304434139717  0.9913017322  1.0000
  Fe  Fe55      1.0  0.6965501582524438  0.7510924899015569  0.011584023312926961  1.0000
  S   S109      1.0  0.7244616149042383  0.811455606401508  0.0013107313066527126  1.0000
  Fe  Fe56      1.0  0.6398049227509413  0.6784686779580549  0.9914222656632414  1.0000
  S   S110      1.0  0.5904466176188741  0.6580657360728914  0.9634643899949795  1.0000
  S   S111      1.0  0.7201134916015408  0.7240494533592514  0.042850484364347935  1.0000
  S   S112      1.0  0.6589657177810085  0.6452149636672061  0.020609353301633826  1.0000
  Fe  Fe57      1.0  0.3096443133845522  0.9886145995481356  0.030774867339782158  1.0000
  S   S113      1.0  0.26857285083990123  0.005036459278576544  0.04930298495640539  1.0000
  S   S114      1.0  0.3529392950252538  0.9790928593221127  0.054633169689791934  1.0000
  Fe  Fe58      1.0  0.2854851415708499  0.9910964883334732  0.9686288125028051  1.0000
  S   S115      1.0  0.2428051397283321  0.00881786478974167  0.9822939569182106  1.0000
  S   S116      1.0  0.29050447747625857  0.9745658821466672  0.9224088453354011  1.0000
  Fe  Fe59      1.0  0.2832727599809267  0.046523496945365304  0.013142165900295044  1.0000
  S   S117      1.0  0.294092083458431  0.10358643820243633  0.029502266798245413  1.0000
  Fe  Fe60      1.0  0.23126808454252654  0.9659545542908877  0.01709677057847525  1.0000
  S   S118      1.0  0.1738465953761948  0.9314808351754205  0.02832335537333197  1.0000
  S   S119      1.0  0.32696363698935277  0.032271525989684934  0.9964434524377088  1.0000
  S   S120      1.0  0.2713129805015376  0.9459703778399846  0.0016295812778723828  1.0000
  Fe  Fe61      1.0  0.9525481084354136  0.7086864874415569  0.020294069366829426  1.0000
  S   S121      1.0  0.9373520290929752  0.6493372837552974  0.013094317620068852  1.0000
  S   S122      1.0  0.9121766793787107  0.7252091664742418  0.04180949944794876  1.0000
  Fe  Fe62      1.0  0.027105011612172637  0.7295990331687378  0.9979504284700048  1.0000
  S   S123      1.0  0.016948757478857716  0.670931621963755  0.9888644438827145  1.0000
  S   S124      1.0  0.08280365600044642  0.7691733227165526  0.985446482036163  1.0000
  Fe  Fe63      1.0  0.9653438912255422  0.6657318529259969  0.9705623621793221  1.0000
  S   S125      1.0  0.9361861361834324  0.6252813395997681  0.9356385677723503  1.0000
  Fe  Fe64      1.0  0.9897532476207973  0.6582160727723567  0.031929981013846226  1.0000
  S   S126      1.0  0.9899390311710681  0.60944268665739  0.05651668854518649  1.0000
  S   S127      1.0  0.9767007627256741  0.725216187187841  0.9759385494410582  1.0000
  S   S128      1.0  0.003709406344209456  0.7170001543954492  0.04292552114250897  1.0000
  C   C1        1.0  0.14945219912669763  0.8853000179806988  0.018389977082948095  1.0000
  C   C2        1.0  0.16519073043450955  0.8650867695503681  0.004220271297833644  1.0000
  C   C3        1.0  0.14443049753311205  0.8294207859730104  0.994613969246399  1.0000
  C   C4        1.0  0.10790536270298409  0.8132184116898133  0.9997199199135174  1.0000
  C   C5        1.0  0.09233256191234551  0.8330588049643063  0.014647723346171704  1.0000
  C   C6        1.0  0.11301161991984472  0.8689918887358575  0.023778692832142116  1.0000
  H   H1        1.0  0.1932991953563401  0.877026113805147  0.0005422165013402314  1.0000
  H   H2        1.0  0.15674142831624666  0.8141358621149302  0.9833296068407356  1.0000
  H   H3        1.0  0.06427841034437262  0.8209757958788215  0.01868249575304402  1.0000
  H   H4        1.0  0.10062705659871284  0.8843588602748859  0.03485730900654549  1.0000
  C   C7        1.0  0.7986603993845487  0.6811203551733455  0.007043694434063497  1.0000
  C   C8        1.0  0.8244734562363699  0.6734917517668888  0.992441982940192  1.0000
  C   C9        1.0  0.859253067965209  0.6865731547986277  0.003006827332131534  1.0000
  C   C10       1.0  0.868548855082171  0.7075290276660634  0.02828172270747009  1.0000
  C   C11       1.0  0.8426160189361717  0.7146147682939161  0.04322123440803886  1.0000
  C   C12       1.0  0.807737695505856  0.7012420688375711  0.03277734901498516  1.0000
  H   H5        1.0  0.8176827080890248  0.6578246099886513  0.9725688182282038  1.0000
  H   H6        1.0  0.8789484888169568  0.680815428358378  0.9913335169966401  1.0000
  H   H7        1.0  0.8495458637707517  0.730552450193445  0.06294175601439869  1.0000
  H   H8        1.0  0.787972576108041  0.7067736048553713  0.04449796399182911  1.0000
  C   C13       1.0  0.6660229325839676  0.886948029585779  0.0007698988516962046  1.0000
  C   C14       1.0  0.6476732983928515  0.8495015581614861  0.006483103181406768  1.0000
  C   C15       1.0  0.6654410901014552  0.8262701683190246  0.007438114343572888  1.0000
  C   C16       1.0  0.7016601022741397  0.8402163499666606  0.002173099334591866  1.0000
  C   C17       1.0  0.7200160566945626  0.8776432082800724  0.9964389031997601  1.0000
  C   C18       1.0  0.7023264102078455  0.9010178167816598  0.9959247123190299  1.0000
  H   H9        1.0  0.6195780186089849  0.8384236905867681  0.010271453384008478  1.0000
  H   H10       1.0  0.6511093447839386  0.7975813439701197  0.012112087509080325  1.0000
  H   H11       1.0  0.7480472640311406  0.8886592519198294  0.9923307287442898  1.0000
  H   H12       1.0  0.7166969614985245  0.9297937352028579  0.9914298849857164  1.0000
  C   C19       1.0  0.8542221351761007  0.20474762673914101  0.0005021736991519532  1.0000
  C   C20       1.0  0.8174287947992938  0.1919919260654271  0.9977774523760743  1.0000
  C   C21       1.0  0.7964203342317809  0.15497671199227372  0.9921262269391007  1.0000
  C   C22       1.0  0.8118925321064188  0.13003494418669506  0.9898262625488338  1.0000
  C   C23       1.0  0.8487819911442311  0.1429225027632142  0.9919326120994607  1.0000
  C   C24       1.0  0.8699020072135693  0.18011798835704168  0.9971508333936622  1.0000
  H   H13       1.0  0.8050336214772539  0.21084700032359438  0.00017571563034990412  1.0000
  H   H14       1.0  0.768184001781308  0.1456616812629527  0.989892825096943  1.0000
  H   H15       1.0  0.861061059580204  0.12389702324093078  0.9900100957880315  1.0000
  H   H16       1.0  0.8981774843475687  0.18952676898536042  0.9991705952603892  1.0000
  C   C25       1.0  0.15960964353584134  0.31224662834693323  0.018463571495965114  1.0000
  C   C26       1.0  0.12735133767409568  0.3007184491740056  0.033207152910093234  1.0000
  C   C27       1.0  0.09646300780823151  0.2977413516164462  0.018614661607619154  1.0000
  C   C28       1.0  0.09746519897119442  0.30555268220495946  0.9889424695372396  1.0000
  C   C29       1.0  0.12950499752822403  0.3158796129698474  0.9739680614645453  1.0000
  C   C30       1.0  0.1605624642789829  0.31961114796478934  0.9886992646838115  1.0000
  H   H17       1.0  0.126320669917165  0.29441471868466945  0.05614462540444118  1.0000
  H   H18       1.0  0.07178179963142978  0.28901248583277556  0.03022093612515695  1.0000
  H   H19       1.0  0.13042044927625435  0.3216871154163077  0.9509434329123146  1.0000
  H   H20       1.0  0.18524371552225624  0.3285957612598068  0.9770750851244249  1.0000
  C   C31       1.0  0.281787236852502  0.19933746255210397  0.9830752499573872  1.0000
  C   C32       1.0  0.29371625421073955  0.20251164266946448  0.011762716355240732  1.0000
  C   C33       1.0  0.29712564646113804  0.17280076580405013  0.02559437752588387  1.0000
  C   C34       1.0  0.2886870726213553  0.13966732956208458  0.010933711475757502  1.0000
  C   C35       1.0  0.2765364877217738  0.13636250270369524  0.9822841695856179  1.0000
  C   C36       1.0  0.2730622136307711  0.16611983906734173  0.9684416617966712  1.0000
  H   H21       1.0  0.3006162624126245  0.2279423636250067  0.023238321937463665  1.0000
  H   H22       1.0  0.30650493724265154  0.1755987525267782  0.04776441586598321  1.0000
  H   H23       1.0  0.27005725968340094  0.11102864481190648  0.9707596643586562  1.0000
  H   H24       1.0  0.2639086545750238  0.16349234418778472  0.9462051720735065  1.0000
  C   C37       1.0  0.9913838027191114  0.6103276750214285  0.8541264498455551  1.0000
  C   C38       1.0  0.957231762194015  0.585568202803756  0.8609051996008739  1.0000
  C   C39       1.0  0.940494717398059  0.5907713694745256  0.8858306788787429  1.0000
  C   C40       1.0  0.9579881068132187  0.6203564214107944  0.9043530498829382  1.0000
  C   C41       1.0  0.9924078459166874  0.6447533397809768  0.8979096177977309  1.0000
  C   C42       1.0  0.00894194063678011  0.6399025428061675  0.8726837396995456  1.0000
  H   H25       1.0  0.9434209360059304  0.5628426250381368  0.8466419169278843  1.0000
  H   H26       1.0  0.9138479090902653  0.5718244279348974  0.8907414487218198  1.0000
  H   H27       1.0  0.006068509951322243  0.6676054413034479  0.9121237928174681  1.0000
  H   H28       1.0  0.03537595821438777  0.6591502133740962  0.8675424388395913  1.0000
  C   C43       1.0  0.9914423854916614  0.4250434087867867  0.8580967252092176  1.0000
  C   C44       1.0  0.9750689295839114  0.44428607823028254  0.8727687454492099  1.0000
  C   C45       1.0  0.9670369148649813  0.43771779102445546  0.9024064254204819  1.0000
  C   C46       1.0  0.9755126727709458  0.41205987557320406  0.9176563302597711  1.0000
  C   C47       1.0  0.9920650837506174  0.39288484984153105  0.9031006816001703  1.0000
  C   C48       1.0  0.9999456274842116  0.3993438211178755  0.87336093428242  1.0000
  H   H29       1.0  0.9684970635792554  0.46419417901785165  0.8612906595129973  1.0000
  H   H30       1.0  0.954100316642327  0.45252549825695565  0.9134972102739629  1.0000
  H   H31       1.0  0.9987640108754579  0.37308749566105387  0.914707790467223  1.0000
  H   H32       1.0  0.01269349342985495  0.3844143366712139  0.8621759385684893  1.0000
  C   C49       1.0  0.3307630461944934  0.9966704388476938  0.9036667177068203  1.0000
  C   C50       1.0  0.3560383552424674  0.030257617625465975  0.9129829801225331  1.0000
  C   C51       1.0  0.38709128583667984  0.048074076031297465  0.8968890540011556  1.0000
  C   C52       1.0  0.3934676586325585  0.0321781548750959  0.8716908443360868  1.0000
  C   C53       1.0  0.3685617180455419  0.9982387941989996  0.8626573049555327  1.0000
  C   C54       1.0  0.33714373458627694  0.9807327420102021  0.8784619060332651  1.0000
  H   H33       1.0  0.35125389843637145  0.042978073368512636  0.9321516731285897  1.0000
  H   H34       1.0  0.4061548374472051  0.07442839807303156  0.9039070731907813  1.0000
  H   H35       1.0  0.3731790023641083  0.985818061555534  0.8432183368822  1.0000
  H   H36       1.0  0.3176786365334391  0.9548041622058299  0.8710619791752655  1.0000
  C   C55       1.0  0.6011591220213075  0.03789308297074742  0.9063511337865695  1.0000
  C   C56       1.0  0.599964948640494  0.003929307792673865  0.8980863095957264  1.0000
  C   C57       1.0  0.5828329091480535  0.987539462015023  0.8721242565498638  1.0000
  C   C58       1.0  0.5665246118323841  0.0047996058102333355  0.854447307400453  1.0000
  C   C59       1.0  0.5679483452790144  0.038829152882063456  0.8626768458671018  1.0000
  C   C60       1.0  0.5853991851914971  0.055369828680114086  0.8883866614029466  1.0000
  H   H37       1.0  0.612036927495936  0.990238628104714  0.9117696086456203  1.0000
  H   H38       1.0  0.582035168405459  0.9613046977404691  0.8658441128738623  1.0000
  H   H39       1.0  0.5559446902636284  0.05262920582255215  0.8490743904905208  1.0000
  H   H40       1.0  0.5865875707247482  0.0818257063311787  0.8944994597266479  1.0000
  C   C61       1.0  0.5811909259400534  0.5966779660289439  0.8779033734811377  1.0000
  C   C62       1.0  0.6122084183788127  0.6077704359289089  0.8945189707674793  1.0000
  C   C63       1.0  0.6153534737615014  0.6264144521710862  0.9208802252928451  1.0000
  C   C64       1.0  0.5873723450172541  0.6339979353024948  0.9308537775863375  1.0000
  C   C65       1.0  0.5563363257318866  0.6229470075160279  0.9142575880747911  1.0000
  C   C66       1.0  0.5532309029987497  0.6043892099867871  0.8878408990716142  1.0000
  H   H41       1.0  0.6339514093129762  0.6018871417273671  0.8869568632187328  1.0000
  H   H42       1.0  0.6393904697124015  0.6348182602395677  0.9334754255566057  1.0000
  H   H43       1.0  0.5346360817385645  0.6288877286292833  0.9218127572590836  1.0000
  H   H44       1.0  0.5293403365185149  0.5962854951059167  0.8751079754476015  1.0000
  C   C67       1.0  0.4022775573737555  0.429385053946568  0.8695831097989527  1.0000
  C   C68       1.0  0.3846500472801055  0.39609487671166865  0.8841221899111126  1.0000
  C   C69       1.0  0.3649595284671154  0.39416523481455934  0.9093225017923867  1.0000
  C   C70       1.0  0.362478033388454  0.4255369000878136  0.9200141286230583  1.0000
  C   C71       1.0  0.3803344334490004  0.4589406502793197  0.9055892009041551  1.0000
  C   C72       1.0  0.40035985288953424  0.46094245531549494  0.8805595000124441  1.0000
  H   H45       1.0  0.3860421328751316  0.37155572291777395  0.8758020770590841  1.0000
  H   H46       1.0  0.35127788121574693  0.36829497541357364  0.9202389990347614  1.0000
  H   H47       1.0  0.37856276226340807  0.4833136823110646  0.9138444690132919  1.0000
  H   H48       1.0  0.41406430679840694  0.48681073464244856  0.8697556745255378  1.0000
  C   C73       1.0  0.16984857654285096  0.6122789042385822  0.7095788717023844  1.0000
  C   C74       1.0  0.150041109862197  0.6035852622480887  0.7353772746070327  1.0000
  C   C75       1.0  0.11371014689880264  0.5808635252521727  0.7351302865730389  1.0000
  C   C76       1.0  0.09663078903413  0.5662050310040679  0.7090012213653205  1.0000
  C   C77       1.0  0.11654894659269702  0.5742924166389319  0.6832584702225981  1.0000
  C   C78       1.0  0.15290578148231898  0.5972374186784443  0.6834870832867048  1.0000
  H   H49       1.0  0.1629529459007969  0.6148256025237687  0.755704925877337  1.0000
  H   H50       1.0  0.09902151024463862  0.5749022083394137  0.7551775598100017  1.0000
  H   H51       1.0  0.10371805168327754  0.5630843139397765  0.6628955386454817  1.0000
  H   H52       1.0  0.16770482755385036  0.6036401648389286  0.6634425159299184  1.0000
  C   C79       1.0  0.37789641552199965  0.6045333065541854  0.6947704333125304  1.0000
  C   C80       1.0  0.39560926489374393  0.5813271033151097  0.6923269957027505  1.0000
  C   C81       1.0  0.41393057773650044  0.5750961470863679  0.7161820248775409  1.0000
  C   C82       1.0  0.41467086829249533  0.5920100842042869  0.7428219872625621  1.0000
  C   C83       1.0  0.396692458611756  0.6149193909022088  0.7453123414365915  1.0000
  C   C84       1.0  0.37847645892278736  0.6212208520708237  0.7214692560504758  1.0000
  H   H53       1.0  0.39543766623233617  0.5683226179853785  0.6717879939086551  1.0000
  H   H54       1.0  0.4277149361061939  0.5575001509870655  0.713856843376113  1.0000
  H   H55       1.0  0.39705594057079646  0.6281479383112228  0.7657923649497306  1.0000
  H   H56       1.0  0.3650022226914832  0.6391137338691546  0.7237381992572199  1.0000
  C   C85       1.0  0.38768528578394956  0.8791366483668056  0.7324498238107171  1.0000
  C   C86       1.0  0.35988995760219084  0.8445855845442448  0.7362658492556293  1.0000
  C   C87       1.0  0.3535473974235261  0.8163341549318998  0.7159715087515516  1.0000
  C   C88       1.0  0.3747939062882546  0.8223704069095883  0.6913509778643336  1.0000
  C   C89       1.0  0.4027325964631087  0.8568735916351642  0.6875897231798273  1.0000
  C   C90       1.0  0.40929697613155236  0.8850320271270742  0.7080515291520219  1.0000
  H   H57       1.0  0.3430129036436779  0.839640003848459  0.7550600955426492  1.0000
  H   H58       1.0  0.3319273366092063  0.7900579426117016  0.7192128468574484  1.0000
  H   H59       1.0  0.4193317365392206  0.8619512687160673  0.6686213937282495  1.0000
  H   H60       1.0  0.4306877474798894  0.9114327873381205  0.7046856297249133  1.0000
  C   C91       1.0  0.5995729982341083  0.20029664997507185  0.7004299576330846  1.0000
  C   C92       1.0  0.6001448967703791  0.17791558050167774  0.7238728017939271  1.0000
  C   C93       1.0  0.5705045478393658  0.1455057049332433  0.7304790879820223  1.0000
  C   C94       1.0  0.5400331312259088  0.13480072999880513  0.713408093556494  1.0000
  C   C95       1.0  0.5394798852632536  0.15729833526939557  0.6900324835506481  1.0000
  C   C96       1.0  0.5689233899506868  0.18990747512071976  0.6836485503188726  1.0000
  H   H61       1.0  0.6236994820068243  0.1855234699675275  0.7369759752382515  1.0000
  H   H62       1.0  0.5714145324712819  0.12848349461544786  0.7484655879524893  1.0000
  H   H63       1.0  0.5161735917534844  0.14914099340392306  0.6765349315501534  1.0000
  H   H64       1.0  0.5681485563327033  0.2064471818655224  0.6652813592366957  1.0000
  C   C97       1.0  0.5496177873607442  0.4574277084900475  0.7172785319333501  1.0000
  C   C98       1.0  0.5572350918759306  0.44226428358192416  0.7423908787638324  1.0000
  C   C99       1.0  0.5747641976829744  0.4188108367060095  0.7403856407216195  1.0000
  C   C100      1.0  0.584879639572416  0.4102054630303047  0.7133154044190816  1.0000
  C   C101      1.0  0.5774979456260448  0.4254750308325495  0.6881768452971587  1.0000
  C   C102      1.0  0.5599403943333652  0.4489494858954819  0.6901975976144366  1.0000
  H   H65       1.0  0.5495108547843371  0.44855121335994025  0.7633438525260592  1.0000
  H   H66       1.0  0.5804299042955939  0.40725943538652537  0.759991300168902  1.0000
  H   H67       1.0  0.5850473109634641  0.4190936051010766  0.6671809207155239  1.0000
  H   H68       1.0  0.5541164626880033  0.4605092558801892  0.670648750793352  1.0000
  C   C103      1.0  0.7920433555684189  0.4136424317239846  0.6840773096365647  1.0000
  C   C104      1.0  0.780765199991045  0.4137310914471393  0.7126323271996572  1.0000
  C   C105      1.0  0.8056473882226756  0.4300567076502854  0.7348588164651554  1.0000
  C   C106      1.0  0.8420685072628555  0.44599282233379367  0.7289698656298438  1.0000
  C   C107      1.0  0.8533071518082878  0.44522257566446255  0.7004994099513397  1.0000
  C   C108      1.0  0.8284050019838861  0.42926230957647155  0.6782077726908793  1.0000
  H   H69       1.0  0.7529519836887293  0.4015375950524043  0.7175766119033368  1.0000
  H   H70       1.0  0.796713432717995  0.430397739298761  0.7568431303619594  1.0000
  H   H71       1.0  0.8811550903361551  0.45743669512748  0.6955880216363817  1.0000
  H   H72       1.0  0.8374474359750717  0.4293754795888503  0.6561970905635707  1.0000
  C   C109      1.0  0.984162741490287  0.6031876983864398  0.15580988157469766  1.0000
  C   C110      1.0  0.9795595023507269  0.5723760811393859  0.1393922852110986  1.0000
  C   C111      1.0  0.9820657104301951  0.5748532390979396  0.10896655115348337  1.0000
  C   C112      1.0  0.9893015754780563  0.608120723732588  0.09477141207800874  1.0000
  C   C113      1.0  0.9945975046414225  0.6391278930022041  0.11117741033428007  1.0000
  C   C114      1.0  0.991754879540982  0.6365788710960855  0.14162554689329043  1.0000
  H   H73       1.0  0.973739666763166  0.5465404258300388  0.1501241724863554  1.0000
  H   H74       1.0  0.9780939929910558  0.5507833390229359  0.0964115304331319  1.0000
  H   H75       1.0  0.0009168868618383217  0.6650164492679097  0.10041243741387623  1.0000
  H   H76       1.0  0.9957545729841595  0.6605802666141948  0.15428209883160637  1.0000
  C   C115      1.0  0.9636360371482079  0.41091798359364157  0.1533726896912986  1.0000
  C   C116      1.0  0.9451422174181691  0.3842020471193815  0.13277208937077195  1.0000
  C   C117      1.0  0.9631137739696016  0.3753845537341412  0.1103040227454693  1.0000
  C   C118      1.0  0.9998184327038059  0.3927531622453107  0.10866616050894456  1.0000
  C   C119      1.0  0.018316440762619735  0.4195301132178376  0.12922626293414435  1.0000
  C   C120      1.0  0.0002753533293304855  0.4288726854013999  0.1513562846913247  1.0000
  H   H77       1.0  0.9168058009994522  0.37018606012881444  0.13421797757679016  1.0000
  H   H78       1.0  0.948657706096599  0.354631580310585  0.0946470575029294  1.0000
  H   H79       1.0  0.046709668594650644  0.4330466776304449  0.1281074569450194  1.0000
  H   H80       1.0  0.01474678481029068  0.4494056877987202  0.16716534649023274  1.0000
  C   C121      1.0  0.3837481943054596  0.014171512683163856  0.14886069792910808  1.0000
  C   C122      1.0  0.35106039227335367  0.011242575418616995  0.13808972179854026  1.0000
  C   C123      1.0  0.34088310092124013  0.999723425891817  0.1093805473946854  1.0000
  C   C124      1.0  0.3634678168352215  0.9913049268080033  0.09130601353928613  1.0000
  C   C125      1.0  0.3957359673987006  0.9934329416783835  0.10236259652493002  1.0000
  C   C126      1.0  0.4058684104386633  0.004808844357541364  0.13103070623863258  1.0000
  H   H81       1.0  0.33367663287431665  0.018093421757761543  0.1519021045042222  1.0000
  H   H82       1.0  0.31562078186423914  0.997345524851824  0.10118949818692315  1.0000
  H   H83       1.0  0.41323827992448714  0.9867296187513946  0.08855189934579248  1.0000
  H   H84       1.0  0.4311041163789721  0.006899084441682524  0.13911444729456682  1.0000
  C   C127      1.0  0.5588564997102753  0.0015626032890543318  0.13048976939117385  1.0000
  C   C128      1.0  0.588894282240617  0.026439195017942764  0.1444849207098252  1.0000
  C   C129      1.0  0.6204988496483262  0.04381416677775924  0.12893567633316377  1.0000
  C   C130      1.0  0.6221213188617927  0.03683356790011506  0.0992635682334129  1.0000
  C   C131      1.0  0.5916421133415611  0.013340679705373448  0.08498856332211839  1.0000
  C   C132      1.0  0.5602419279832234  0.995398533272537  0.100632998993607  1.0000
  H   H85       1.0  0.5881057680777333  0.031280651440903376  0.16750867685389118  1.0000
  H   H86       1.0  0.6438904871450758  0.062198637324399605  0.14010364250707716  1.0000
  H   H87       1.0  0.5923795236259453  0.008681285156668439  0.061975035301027666  1.0000
  H   H88       1.0  0.5369634282349024  0.9764545185424004  0.08965598627140665  1.0000
  C   C133      1.0  0.6075327657585808  0.6426432823748498  0.11038987542810452  1.0000
  C   C134      1.0  0.5967050350592593  0.6372018584816708  0.13953144233898998  1.0000
  C   C135      1.0  0.5634307743239416  0.6103901182147727  0.14708493193692967  1.0000
  C   C136      1.0  0.5408924625610754  0.588920323823886  0.1254824445737626  1.0000
  C   C137      1.0  0.551546269541408  0.5946677929828457  0.09635255915137247  1.0000
  C   C138      1.0  0.5847768002298925  0.621416469736161  0.08880598411774963  1.0000
  H   H89       1.0  0.6141234564045698  0.6538347875378101  0.15626591843039966  1.0000
  H   H90       1.0  0.5550604687969022  0.6066412434500792  0.16951068526902913  1.0000
  H   H91       1.0  0.5341634596778413  0.5782604591434292  0.07952271785554997  1.0000
  H   H92       1.0  0.5928743497383754  0.625512015648208  0.06630335957563392  1.0000
  C   C139      1.0  0.3678333425247087  0.4044981923869219  0.15877859242463002  1.0000
  C   C140      1.0  0.3969070623792482  0.39794897783312444  0.15013473960050633  1.0000
  C   C141      1.0  0.3967629385879206  0.3818084103050146  0.1231647619465201  1.0000
  C   C142      1.0  0.36788416204419067  0.3727275952389021  0.10433990460749033  1.0000
  C   C143      1.0  0.33838692809721627  0.37849224326054204  0.11313143425367633  1.0000
  C   C144      1.0  0.3382343814451952  0.3940010475257606  0.14047489773756508  1.0000
  H   H93       1.0  0.4193825581582081  0.4049674540218485  0.1643782631616804  1.0000
  H   H94       1.0  0.41946307167262303  0.3769879059568188  0.11661401551659786  1.0000
  H   H95       1.0  0.3158951451234071  0.37134101410601217  0.09879557009329719  1.0000
  H   H96       1.0  0.3155673492478155  0.3987972510452376  0.14713642249014175  1.0000
  C   C145      1.0  0.3130942840437171  0.6861719453237711  0.4724652877786106  1.0000
  C   C146      1.0  0.3367338939754241  0.6958444136002411  0.49614967774770397  1.0000
  C   C147      1.0  0.3245934987268609  0.6906789223260017  0.5251644558406443  1.0000
  C   C148      1.0  0.2883938549869009  0.6756560721889869  0.531062129701604  1.0000
  C   C149      1.0  0.26477246572837915  0.6660378954296026  0.5074134007856513  1.0000
  C   C150      1.0  0.2769402818508027  0.67120450971953  0.47837996452084647  1.0000
  H   H97       1.0  0.36475738485800024  0.7074476021793927  0.49190869706803375  1.0000
  H   H98       1.0  0.34337382361405794  0.6983210327370618  0.5427871722890755  1.0000
  H   H99       1.0  0.236718257731277  0.6544191994971089  0.511512878683343  1.0000
  H   H100      1.0  0.2583232729607985  0.6636254654621238  0.4605594289212594  1.0000
  C   C151      1.0  0.16443893524736677  0.6251148583796767  0.3119311770686278  1.0000
  C   C152      1.0  0.15865520832238297  0.5900113393494202  0.3215142225537724  1.0000
  C   C153      1.0  0.12848426033817956  0.5596774856270281  0.31225436839331144  1.0000
  C   C154      1.0  0.1041403230533102  0.5638622397755482  0.2928246062524027  1.0000
  C   C155      1.0  0.10985249801453423  0.5989369392464593  0.28332568446749584  1.0000
  C   C156      1.0  0.13964261738340805  0.6293383216004342  0.29303981495814974  1.0000
  H   H101      1.0  0.1770679578856751  0.5863676549858662  0.3365090268435342  1.0000
  H   H102      1.0  0.12407908929685124  0.5327235412585221  0.3200751825862148  1.0000
  H   H103      1.0  0.09140752920845506  0.6027137796743779  0.26842478129223124  1.0000
  H   H104      1.0  0.14367390354509865  0.6563750691980689  0.28564829248067247  1.0000
  C   C157      1.0  0.3551459204304618  0.5899212691260916  0.29960887673298653  1.0000
  C   C158      1.0  0.38570211904862  0.6064076027045453  0.3163076177608977  1.0000
  C   C159      1.0  0.4163478995085613  0.601288320330499  0.3092003868150449  1.0000
  C   C160      1.0  0.4167263697264875  0.5795848169235499  0.28540795158749926  1.0000
  C   C161      1.0  0.38598890439548494  0.5627032717511423  0.2689818974934412  1.0000
  C   C162      1.0  0.35536694044639744  0.5677958370271468  0.2761088315511417  1.0000
  H   H105      1.0  0.38559387455031496  0.6226720422399471  0.3349276226799521  1.0000
  H   H106      1.0  0.4399091863021173  0.6141598498374892  0.3222019526145223  1.0000
  H   H107      1.0  0.38587311152197423  0.5458047323459921  0.25071533303554333  1.0000
  H   H108      1.0  0.33181467798116887  0.5545674969658285  0.26321301310664963  1.0000
  C   C163      1.0  0.3876672615912652  0.8172503960445981  0.2947860559204827  1.0000
  C   C164      1.0  0.40798314097370614  0.8339835559394368  0.2702108142518871  1.0000
  C   C165      1.0  0.42341974955156886  0.8722534603356198  0.2670626102811478  1.0000
  C   C166      1.0  0.4187096294330158  0.8943916816525057  0.2885028607872629  1.0000
  C   C167      1.0  0.3981656830027994  0.8777065567166986  0.31297189770215905  1.0000
  C   C168      1.0  0.3826366753530953  0.8393692188299136  0.31609453710201013  1.0000
  H   H109      1.0  0.41205825225251025  0.8172507444213932  0.253540800392327  1.0000
  H   H110      1.0  0.43934278685233297  0.8846038725524538  0.24821703536873535  1.0000
  H   H111      1.0  0.3943603223262039  0.8945026072024634  0.32974973132877505  1.0000
  H   H112      1.0  0.36714811803930286  0.8269651761049249  0.3351336465642945  1.0000
  C   C169      1.0  0.6615575746795076  0.34120294291377495  0.4733551778636399  1.0000
  C   C170      1.0  0.6252418394259232  0.32839898045864824  0.4781916697017166  1.0000
  C   C171      1.0  0.6120174192088289  0.32542191550217864  0.5067874549071614  1.0000
  C   C172      1.0  0.6346906854278098  0.33460950450816174  0.5310885440863792  1.0000
  C   C173      1.0  0.6709636418576118  0.34705546089997097  0.526265529520443  1.0000
  C   C174      1.0  0.6842185170326901  0.35040869840481853  0.4976462504488482  1.0000
  H   H113      1.0  0.6072682175386667  0.32044093682841784  0.45996993835756567  1.0000
  H   H114      1.0  0.5839048328910901  0.31549674877190836  0.5101684398619181  1.0000
  H   H115      1.0  0.6888544531434637  0.35431100495897977  0.5445701848579403  1.0000
  H   H116      1.0  0.7123417778439451  0.3603159578415763  0.49431374062704964  1.0000
  C   C175      1.0  0.5691554024774579  0.2093287840182922  0.3024341623925745  1.0000
  C   C176      1.0  0.5362006425425071  0.18351391652712445  0.2929238246549784  1.0000
  C   C177      1.0  0.5333024591892298  0.15195647630686765  0.27773389005767757  1.0000
  C   C178      1.0  0.5633906884651046  0.1456501106549974  0.2721101651487835  1.0000
  C   C179      1.0  0.5962941277309882  0.17136650052539465  0.2817370719624996  1.0000
  C   C180      1.0  0.5992381883417501  0.2031109508808643  0.296661886716386  1.0000
  H   H117      1.0  0.5127219410833711  0.18794343164393787  0.297320925706666  1.0000
  H   H118      1.0  0.5078187692092914  0.13253792515382026  0.27044390988171435  1.0000
  H   H119      1.0  0.6197507145659604  0.16676295189559456  0.27757421698312185  1.0000
  H   H120      1.0  0.6247456929790114  0.22261507140978662  0.3038624332883014  1.0000
  C   C181      1.0  0.5788691932566662  0.4273768442191058  0.31738298693277783  1.0000
  C   C182      1.0  0.5909548446262883  0.42315083668212994  0.2899406408317968  1.0000
  C   C183      1.0  0.5781587470911901  0.4340078162867219  0.26487439100248894  1.0000
  C   C184      1.0  0.5530604251427848  0.4490790033058513  0.26689277725285665  1.0000
  C   C185      1.0  0.540800656378227  0.45312421502337524  0.2943167562549951  1.0000
  C   C186      1.0  0.5537580427774464  0.44241623369869343  0.31943378634699565  1.0000
  H   H121      1.0  0.6106189103947155  0.41209310519828485  0.28805376563605056  1.0000
  H   H122      1.0  0.5879214089117534  0.43086956754363887  0.24378968536714293  1.0000
  H   H123      1.0  0.5215256336940891  0.46471669798414783  0.29620310070206096  1.0000
  H   H124      1.0  0.5442508905047774  0.44585598512179336  0.3405511497912373  1.0000
  C   C187      1.0  0.7788994735569421  0.4146152235152612  0.2981361385527332  1.0000
  C   C188      1.0  0.7982015146784912  0.4332362208452504  0.2736672755864685  1.0000
  C   C189      1.0  0.8350891979922955  0.4529188201285248  0.2750483274435187  1.0000
  C   C190      1.0  0.8532550319448913  0.45387331811716175  0.3008602302243232  1.0000
  C   C191      1.0  0.8339196194195165  0.4358991963413492  0.32549429246309325  1.0000
  C   C192      1.0  0.796962203325355  0.41640852874886725  0.3241883173824025  1.0000
  H   H125      1.0  0.7844786672742818  0.4323245881652833  0.2534815095496679  1.0000
  H   H126      1.0  0.8494773415263942  0.4675253464337108  0.25620078781419786  1.0000
  H   H127      1.0  0.8476138498928119  0.43664741545822366  0.3456612490996306  1.0000
  H   H128      1.0  0.7825523477035011  0.40219036118159585  0.3431761592488347  1.0000
  N   N1        1.0  0.4807373233511123  0.018202970918418826  0.9196355716709518  1.0000
  C   C193      1.0  0.4487294123555751  0.010930974512950886  0.9370183073616091  1.0000
  C   C194      1.0  0.47101999275056955  0.9960560907404562  0.8928888740604607  1.0000
  C   C195      1.0  0.5058820471344782  0.008542514687621017  0.9367601048156102  1.0000
  C   C196      1.0  0.49727088886017295  0.05730866336018736  0.9118119911614478  1.0000
  H   H129      1.0  0.454947676395119  0.027478898076218616  0.9572250498943121  1.0000
  H   H130      1.0  0.4355083031458994  0.9817040855305599  0.9433883424750628  1.0000
  H   H131      1.0  0.4291250825360134  0.017649121177933713  0.9245478768222293  1.0000
  H   H132      1.0  0.4944074183609226  0.0013447841630651602  0.8789021754377139  1.0000
  H   H133      1.0  0.45879965038120507  0.9663910749427728  0.8978810700022829  1.0000
  H   H134      1.0  0.45172817814438454  0.0023801837898742573  0.8796748915290622  1.0000
  H   H135      1.0  0.5146432677361665  0.025445551581657844  0.9567132342457157  1.0000
  H   H136      1.0  0.5299547179177541  0.012940010166848648  0.9240214552995022  1.0000
  H   H137      1.0  0.49410292336694667  0.9794104398465246  0.9435293923982938  1.0000
  H   H138      1.0  0.5205176633765044  0.06349310759431037  0.8975332075275445  1.0000
  H   H139      1.0  0.5062391586867593  0.07485866176634937  0.9313763661289247  1.0000
  H   H140      1.0  0.478575561270127  0.06585065974843562  0.899829303696176  1.0000
  N   N2        1.0  0.015935591319630182  0.5478586342121694  0.35086489776098895  1.0000
  C   C197      1.0  0.9992369692647315  0.5572142900056039  0.3759754817291101  1.0000
  C   C198      1.0  0.0304284574170941  0.5796027989296846  0.33108173705845784  1.0000
  C   C199      1.0  0.9893274434946343  0.516607023079214  0.3352686045171828  1.0000
  C   C200      1.0  0.044689525360407156  0.5380081249254053  0.36107276974912433  1.0000
  H   H141      1.0  0.9880067448619532  0.5338680670328192  0.391367627071134  1.0000
  H   H142      1.0  0.9772423791983441  0.5644925661832719  0.368894861970392  1.0000
  H   H143      1.0  0.018520663789562297  0.5808558224439867  0.38814507522315095  1.0000
  H   H144      1.0  0.04218425200811127  0.5730783007844643  0.31144221851761494  1.0000
  H   H145      1.0  0.009619257148491211  0.5883405555980529  0.32342487581741164  1.0000
  H   H146      1.0  0.05151482021273024  0.6033864043150753  0.3417061062360562  1.0000
  H   H147      1.0  0.9773944507058947  0.4921932296893469  0.3494986524985758  1.0000
  H   H148      1.0  0.001068504633067624  0.5085665118358246  0.3162943085986122  1.0000
  H   H149      1.0  0.9674109069825649  0.5232066971286089  0.32696536114779823  1.0000
  H   H150      1.0  0.057299948706370785  0.5301406280619918  0.34260829443549856  1.0000
  H   H151      1.0  0.03480868186701058  0.5144434201629646  0.37632678955422944  1.0000
  H   H152      1.0  0.06576033421440819  0.5612322773440135  0.3722921256075295  1.0000
  N   N3        1.0  0.37266495104298974  0.106859141505487  0.08433949527332629  1.0000
  C   C201      1.0  0.37059570842088496  0.08435775858191592  0.05853969882317478  1.0000
  C   C202      1.0  0.3813567434750254  0.14485008072072245  0.07508030397507448  1.0000
  C   C203      1.0  0.4002782114278426  0.10578102244653151  0.10417771576032298  1.0000
  C   C204      1.0  0.3383304060403038  0.0924052610055742  0.09942724466431274  1.0000
  H   H153      1.0  0.3626550084740698  0.055207518621754534  0.06441536024868189  1.0000
  H   H154      1.0  0.3962674589322749  0.09362330121634517  0.04706028082131808  1.0000
  H   H155      1.0  0.3508603217150868  0.08554646760118369  0.04273087030143308  1.0000
  H   H156      1.0  0.36074630956034315  0.14639900409048856  0.06020197795044946  1.0000
  H   H157      1.0  0.38327447007987586  0.16273743183570072  0.09396138152074651  1.0000
  H   H158      1.0  0.4068158476670911  0.15651254650481294  0.0631939763667535  1.0000
  H   H159      1.0  0.39497418424545594  0.0773039436039823  0.11073027310037786  1.0000
  H   H160      1.0  0.401902189888934  0.12144483382012901  0.12439546667802737  1.0000
  H   H161      1.0  0.4266586735780962  0.11724304090545068  0.09371072223284704  1.0000
  H   H162      1.0  0.3307949573028013  0.06380874493215408  0.10665105560780686  1.0000
  H   H163      1.0  0.3168340054080765  0.09245494098671571  0.08495985995644872  1.0000
  H   H164      1.0  0.33881571430192264  0.1088411801633714  0.11891148806056595  1.0000
  N   N4        1.0  0.6055852435835893  0.9179612663173945  0.08213655674498721  1.0000
  C   C205      1.0  0.6108991542448001  0.8838564726142354  0.07967424702116754  1.0000
  C   C206      1.0  0.5794326107606267  0.9179252793749566  0.0602690749793624  1.0000
  C   C207      1.0  0.6393986795675671  0.9494482588774567  0.0769489816950284  1.0000
  C   C208      1.0  0.5927070359436074  0.9206333905864345  0.1115479137086044  1.0000
  H   H165      1.0  0.6308210377618632  0.8830823917837719  0.0955625904225279  1.0000
  H   H166      1.0  0.6204672993975414  0.8810900259648254  0.05761591347225137  1.0000
  H   H167      1.0  0.585976279066164  0.8594575006085134  0.08352577967210961  1.0000
  H   H168      1.0  0.5536941059457254  0.8943048780858768  0.06327786454882522  1.0000
  H   H169      1.0  0.5745271752334453  0.9430742594874534  0.061591090435126006  1.0000
  H   H170      1.0  0.5885967110741009  0.9165534726668259  0.037793244129545434  1.0000
  H   H171      1.0  0.6595852953352772  0.9508852532443203  0.09337785418882771  1.0000
  H   H172      1.0  0.636289164431333  0.9756383723555211  0.07778676204953205  1.0000
  H   H173      1.0  0.6501943827521699  0.947846500220505  0.055209163588097354  1.0000
  H   H174      1.0  0.5895451120775751  0.9466499379044209  0.11439646120477653  1.0000
  H   H175      1.0  0.6113591276572421  0.9198196879358427  0.12863745460725795  1.0000
  H   H176      1.0  0.5666023215181254  0.8980532777197957  0.11591434957990554  1.0000
  N   N5        1.0  0.628509834672905  0.7628972640376591  0.928653685243415  1.0000
  C   C209      1.0  0.6102213722151568  0.7793203290231883  0.9095715240570977  1.0000
  C   C210      1.0  0.630204512112389  0.7308765923683318  0.9141381861498727  1.0000
  C   C211      1.0  0.6089433901343824  0.7512820807741363  0.9562026190854025  1.0000
  C   C212      1.0  0.6645857405417526  0.7900882109481432  0.9347883893709195  1.0000
  H   H177      1.0  0.5828782916671811  0.7594635114595  0.9046274066360919  1.0000
  H   H178      1.0  0.6242597574866118  0.7883920285382078  0.8885479123645966  1.0000
  H   H179      1.0  0.6084885677594657  0.803557878199113  0.9199281863481527  1.0000
  H   H180      1.0  0.6446476825316417  0.7383878239622713  0.8931922489044639  1.0000
  H   H181      1.0  0.6436956287151127  0.7176886065632719  0.928010504508399  1.0000
  H   H182      1.0  0.6033818236554778  0.7095842337960113  0.9095464406553458  1.0000
  H   H183      1.0  0.6222042298334541  0.7390013315774682  0.9711101753309112  1.0000
  H   H184      1.0  0.5818187179927676  0.7300961972396101  0.9525712589738438  1.0000
  H   H185      1.0  0.6068520250110124  0.7746054645788722  0.9677353742170944  1.0000
  H   H186      1.0  0.6788340589104159  0.7788445160606704  0.9497333837459301  1.0000
  H   H187      1.0  0.6642911833037307  0.8148445144952616  0.9453856653959599  1.0000
  H   H188      1.0  0.6804324566307904  0.799062053565211  0.9146057814441517  1.0000
  N   N6        1.0  0.8523463711333594  0.3716135393730702  0.2329788899610199  1.0000
  C   C213      1.0  0.8835812037171706  0.39229907743403686  0.2509875417243333  1.0000
  C   C214      1.0  0.821161865939402  0.35473319668335695  0.2519019254476176  1.0000
  C   C215      1.0  0.8583968692432126  0.3429041618885482  0.21692286349967602  1.0000
  C   C216      1.0  0.8464185039173655  0.3965932293528833  0.21205722722531223  1.0000
  H   H189      1.0  0.9076945182758455  0.40451641950555645  0.23746332185495447  1.0000
  H   H190      1.0  0.8884252993836241  0.3746727247186123  0.26758566846546433  1.0000
  H   H191      1.0  0.8805487621127674  0.4150291017174819  0.26263532010590845  1.0000
  H   H192      1.0  0.796750725104658  0.34004159061824124  0.23905763787750706  1.0000
  H   H193      1.0  0.8243460426190701  0.33497751169812323  0.267423277740145  1.0000
  H   H194      1.0  0.816686122807282  0.375561268581206  0.2651241351010355  1.0000
  H   H195      1.0  0.8352795410925737  0.3265763581089368  0.20322042343282723  1.0000
  H   H196      1.0  0.8636430669850175  0.32393023635914386  0.2319635589711813  1.0000
  H   H197      1.0  0.881608525716624  0.3549205951057411  0.2022360700403515  1.0000
  H   H198      1.0  0.823364595696806  0.38188867718595537  0.19778974822954243  1.0000
  H   H199      1.0  0.8697672475128545  0.41027066254102423  0.19780095094331643  1.0000
  H   H200      1.0  0.8414685002864691  0.41842681278861443  0.22333871605273184  1.0000
  N   N7        1.0  0.41604689546966767  0.7024913128189701  0.26769627801397355  1.0000
  C   C217      1.0  0.37754092265582617  0.6856654202829353  0.2628992259166338  1.0000
  C   C218      1.0  0.4314441684738677  0.7379646470731864  0.25243561572685586  1.0000
  C   C219      1.0  0.43172192623159894  0.6780759488148432  0.25635828127592875  1.0000
  C   C220      1.0  0.42340940752311257  0.7083046393140436  0.29912794834185047  1.0000
  H   H201      1.0  0.364878889402582  0.7034983737623954  0.2709073560680593  1.0000
  H   H202      1.0  0.365009718682796  0.6592125675424059  0.2746197099875451  1.0000
  H   H203      1.0  0.37090232995580563  0.6804029785398296  0.23949374618666672  1.0000
  H   H204      1.0  0.4260298852510867  0.7347869385005881  0.22870847534134078  1.0000
  H   H205      1.0  0.42029293050523514  0.757050338561988  0.2607158058916208  1.0000
  H   H206      1.0  0.46049060769689076  0.7513566546940033  0.25555729234660846  1.0000
  H   H207      1.0  0.4196695156452791  0.6506358446769854  0.26660010285093055  1.0000
  H   H208      1.0  0.4605522248047192  0.6889924670090278  0.26067592000446377  1.0000
  H   H209      1.0  0.42762702648878925  0.6739755431999167  0.23253564895696052  1.0000
  H   H210      1.0  0.4521873032789432  0.7205294480439043  0.3036943446365784  1.0000
  H   H211      1.0  0.4116704720735699  0.6822570094071656  0.31143264935365644  1.0000
  H   H212      1.0  0.4121957243371879  0.7269196370455977  0.3082635737240714  1.0000
  N   N8        1.0  0.4187209326355955  0.4860502898300059  0.08071638419385778  1.0000
  C   C221      1.0  0.43479390568318177  0.5233490130872764  0.06854284708109577  1.0000
  C   C222      1.0  0.3899029426841986  0.46253581608433514  0.06148359937127786  1.0000
  C   C223      1.0  0.40451187951790574  0.4872258534676624  0.10987710356086128  1.0000
  C   C224      1.0  0.44575010563649214  0.4710814046465781  0.0830473631672698  1.0000
  H   H213      1.0  0.44587155240361304  0.5235379676884099  0.04656684447969612  1.0000
  H   H214      1.0  0.45667583300711984  0.5416985844553711  0.08257747430706903  1.0000
  H   H215      1.0  0.41518428981892513  0.5355609034502614  0.06668244004820838  1.0000
  H   H216      1.0  0.37719116629830657  0.4342023441762967  0.07009155169947653  1.0000
  H   H217      1.0  0.3689216653292945  0.47285569245818976  0.0592122654076129  1.0000
  H   H218      1.0  0.3996616924312345  0.46061777805435816  0.03935160778399628  1.0000
  H   H219      1.0  0.3839991079940662  0.4983072505166618  0.10914662518557071  1.0000
  H   H220      1.0  0.4255632923314242  0.5044192867598143  0.12509280500588316  1.0000
  H   H221      1.0  0.39229452049066893  0.45959637149197174  0.11965279181208086  1.0000
  H   H222      1.0  0.4343118386679474  0.44272985588159286  0.0916684058226237  1.0000
  H   H223      1.0  0.4674812515723316  0.4876801332339303  0.09796640398933734  1.0000
  H   H224      1.0  0.45745907399318697  0.47024168948354256  0.061551066669955946  1.0000
  N   N9        1.0  0.8178666927080704  0.7881452655339946  0.977628758306658  1.0000
  C   C225      1.0  0.7985881209316505  0.77461307615533  0.005036106231391946  1.0000
  C   C226      1.0  0.8350776663809031  0.7640100837430455  0.9688051554644267  1.0000
  C   C227      1.0  0.8448061215870228  0.8255806211117107  0.9819639787444224  1.0000
  C   C228      1.0  0.7927519351162762  0.78822418813626  0.9548477764163478  1.0000
  H   H225      1.0  0.784654581636449  0.7916988444823778  0.01214835603903297  1.0000
  H   H226      1.0  0.8166021825188388  0.7744944308107016  0.022931973676792783  1.0000
  H   H227      1.0  0.7784444351519654  0.7462363779672238  0.0024967283353998226  1.0000
  H   H228      1.0  0.850930897214143  0.7739918912240306  0.9487269726219052  1.0000
  H   H229      1.0  0.8529871341781053  0.7618695717524239  0.986101854072911  1.0000
  H   H230      1.0  0.8152766148984263  0.7358180445507532  0.9643971099110016  1.0000
  H   H231      1.0  0.859739522338764  0.8368618894076791  0.9616443251516803  1.0000
  H   H232      1.0  0.8641887114214554  0.826242452107866  0.9989795806120448  1.0000
  H   H233      1.0  0.832569515626971  0.8442871113256152  0.988971556634339  1.0000
  H   H234      1.0  0.806250917120747  0.7982255335783619  0.9337590816566985  1.0000
  H   H235      1.0  0.779072055856812  0.8059448578273785  0.9609968952619171  1.0000
  H   H236      1.0  0.7720079537282017  0.7602608918258421  0.9513147775468991  1.0000
  N   N10       1.0  0.21886541294718959  0.5588768014736005  0.2623083026580769  1.0000
  C   C229      1.0  0.240426274864683  0.5380309058432959  0.268267592981449  1.0000
  C   C230      1.0  0.22140877526315828  0.5688505381200761  0.23121209043319976  1.0000
  C   C231      1.0  0.23198941247742005  0.5924057722511898  0.28001861359955943  1.0000
  C   C232      1.0  0.18171544496966194  0.5363605994216852  0.26970286183876363  1.0000
  H   H237      1.0  0.2307348521939891  0.5119365862248618  0.2560431191442258  1.0000
  H   H238      1.0  0.24038662282693207  0.5314999752580929  0.29181755851872937  1.0000
  H   H239      1.0  0.2684566418159147  0.5539040486312605  0.2621241079765265  1.0000
  H   H240      1.0  0.20551147528528171  0.5847672882457079  0.22609903180928345  1.0000
  H   H241      1.0  0.2491416910385096  0.5859143582333025  0.2249142114259077  1.0000
  H   H242      1.0  0.21165068927232306  0.5442014542780572  0.2171774136884445  1.0000
  H   H243      1.0  0.21630835222549785  0.6089056744154571  0.2763923280025023  1.0000
  H   H244      1.0  0.2599183035553722  0.6099296272640679  0.27479546099709523  1.0000
  H   H245      1.0  0.2309727788944177  0.5861247242758191  0.30366678166930106  1.0000
  H   H246      1.0  0.1646499940142077  0.5510597882922816  0.26479679183370286  1.0000
  H   H247      1.0  0.1787201213771097  0.5291277207684002  0.29319285762882524  1.0000
  H   H248      1.0  0.1710566905622724  0.5104818769990808  0.25716841695480175  1.0000
  N   N11       1.0  0.12256123218120249  0.4011539255582657  0.05243311281158127  1.0000
  C   C233      1.0  0.10752788925421804  0.4287537644249228  0.053295621299513825  1.0000
  C   C234      1.0  0.09740684640402876  0.3668263595827045  0.0656094232453277  1.0000
  C   C235      1.0  0.1559761462100873  0.4144195150915402  0.06895748945164693  1.0000
  C   C236      1.0  0.1293519982794204  0.3945810725531556  0.021958648216963465  1.0000
  H   H249      1.0  0.12579902864253878  0.45520813709840424  0.043849726463738484  1.0000
  H   H250      1.0  0.10129655967035528  0.43378222580157344  0.07593216763430274  1.0000
  H   H251      1.0  0.0823457512155685  0.4195510005591925  0.04094291796340819  1.0000
  H   H252      1.0  0.0899960392430216  0.3712462704548004  0.08801638627237698  1.0000
  H   H253      1.0  0.07253474977533304  0.35485093347186936  0.05279691063678621  1.0000
  H   H254      1.0  0.10861444796244518  0.34609471369939815  0.06704683290958499  1.0000
  H   H255      1.0  0.15172855706552751  0.41944203591933454  0.09208810513639204  1.0000
  H   H256      1.0  0.1756213747233371  0.4403023823359681  0.05965348066120784  1.0000
  H   H257      1.0  0.1679910965132218  0.3941308944409051  0.06863985201492268  1.0000
  H   H258      1.0  0.14248877815707714  0.37544579042968973  0.02062676173304702  1.0000
  H   H259      1.0  0.14676080402131245  0.4202267967291359  0.010865744096031804  1.0000
  H   H260      1.0  0.10446790489099116  0.3823824980312175  0.009171002162601694  1.0000
  N   N12       1.0  0.7073545642902505  0.47100125091750344  0.708879282635885  1.0000
  C   C237      1.0  0.675561730137562  0.4689698660532389  0.6930876331009862  1.0000
  C   C238      1.0  0.733102070045764  0.46808534864692086  0.68807885537245  1.0000
  C   C239      1.0  0.6974251240187509  0.44077504698890807  0.730116706358462  1.0000
  C   C240      1.0  0.723298619124631  0.5061776839060373  0.7243438209862657  1.0000
  H   H261      1.0  0.6555157677822991  0.47093796635499224  0.7081785841413205  1.0000
  H   H262      1.0  0.6626256987512147  0.4426486611446155  0.6813783835495753  1.0000
  H   H263      1.0  0.6818906817318371  0.49125842525846597  0.6767890007445307  1.0000
  H   H264      1.0  0.7224541813812204  0.44135040728124897  0.6766942216707571  1.0000
  H   H265      1.0  0.7404362170725163  0.4897564327335465  0.6711484505141923  1.0000
  H   H266      1.0  0.7578359347896547  0.4705577086328295  0.6991644154699571  1.0000
  H   H267      1.0  0.7206811310061444  0.4415675393610059  0.7426535361239859  1.0000
  H   H268      1.0  0.6854831572519967  0.4138593401582833  0.7191436927349689  1.0000
  H   H269      1.0  0.6774622930277888  0.44166532006003517  0.7458085742697552  1.0000
  H   H270      1.0  0.7311452884607162  0.5296147927843929  0.7089659797801885  1.0000
  H   H271      1.0  0.7473156533425089  0.5086003100268226  0.7365978670912928  1.0000
  H   H272      1.0  0.7045155659186085  0.5092358415035779  0.7401980028937103  1.0000
  N   N13       1.0  0.9818516491032919  0.5541422403274404  0.9747155829346695  1.0000
  C   C241      1.0  0.9526260766700264  0.5632426567927136  0.9846083879311144  1.0000
  C   C242      1.0  0.9690078828731603  0.5142290093242149  0.9710199942224452  1.0000
  C   C243      1.0  0.010436799071789933  0.5666764869041445  0.9965637111438231  1.0000
  C   C244      1.0  0.9953013180509713  0.5725296589954654  0.9466845162807136  1.0000
  H   H273      1.0  0.9307329013332246  0.5548010756076496  0.9684783125335077  1.0000
  H   H274      1.0  0.9615499813516549  0.5931369314357691  0.9876614107417723  1.0000
  H   H275      1.0  0.9418904093016207  0.5501050974665788  0.0058167837516298615  1.0000
  H   H276      1.0  0.9903281873798827  0.5063452246528759  0.9633929492890975  1.0000
  H   H277      1.0  0.9588307336231177  0.49949468703153743  0.9918082195614983  1.0000
  H   H278      1.0  0.947298235001416  0.5038700402833504  0.9547654388575889  1.0000
  H   H279      1.0  0.020723928017791188  0.5967055047088327  0.9998709159165591  1.0000
  H   H280      1.0  0.03293584912075152  0.5601807057243309  0.9900018866081605  1.0000
  H   H281      1.0  0.0010313227455125882  0.5537966844642014  0.01814432010342326  1.0000
  H   H282      1.0  0.017758897246941862  0.5668668517531249  0.9386520007366135  1.0000
  H   H283      1.0  0.004459348566761614  0.6026598116447185  0.948548383982177  1.0000
  H   H284      1.0  0.9744540829072339  0.5633891348252826  0.9296498204009433  1.0000
  N   N14       1.0  0.7538196039917185  0.28768329703226236  0.6757278367134774  1.0000
  C   C245      1.0  0.7787767069537923  0.2774552027831767  0.692543524653484  1.0000
  C   C246      1.0  0.7399261679945317  0.3084384501302193  0.6945087119503672  1.0000
  C   C247      1.0  0.7243270730335544  0.2543728044634913  0.6652896351960904  1.0000
  C   C248      1.0  0.7721970230971598  0.3106104473349901  0.6506639558433381  1.0000
  H   H285      1.0  0.8013589562112764  0.3020545323735433  0.7006622300146003  1.0000
  H   H286      1.0  0.7896971366393454  0.2615844692114928  0.6790819809536434  1.0000
  H   H287      1.0  0.7657083073299764  0.2604075969017154  0.7117394937526903  1.0000
  H   H288      1.0  0.7243171673635472  0.29156528047194774  0.7129288074065284  1.0000
  H   H289      1.0  0.7614579533539927  0.3332481460319312  0.7035219117956208  1.0000
  H   H290      1.0  0.7223249077351299  0.3178012036693867  0.6820051264695679  1.0000
  H   H291      1.0  0.7047426037388195  0.26107513454936626  0.652806641327297  1.0000
  H   H292      1.0  0.7096579941094613  0.23656734226851217  0.6836658772721057  1.0000
  H   H293      1.0  0.7336574985920692  0.23799785674158064  0.6508916475716304  1.0000
  H   H294      1.0  0.7539871166252026  0.3185695779334565  0.6373646824033137  1.0000
  H   H295      1.0  0.7835509412964042  0.2961854756293178  0.6361188034226859  1.0000
  H   H296      1.0  0.7939656823445074  0.3365053576136732  0.6578327965849301  1.0000
  N   N15       1.0  0.5240590270850418  0.048485138211970646  0.33104963688791406  1.0000
  C   C249      1.0  0.533400471802485  0.02600965754487561  0.31020177440800306  1.0000
  C   C250      1.0  0.49697243616021197  0.05898054430655031  0.3180545387640186  1.0000
  C   C251      1.0  0.5557740844778569  0.08170514083194602  0.3380000931011162  1.0000
  C   C252      1.0  0.5099726641112026  0.027159134442334754  0.35781762034570685  1.0000
  H   H297      1.0  0.5531488839957851  0.016784774707038652  0.3194524022391072  1.0000
  H   H298      1.0  0.5450387615961969  0.041672957424191415  0.29008464295347813  1.0000
  H   H299      1.0  0.5098532295427833  0.0012759541417248776  0.3036683118511811  1.0000
  H   H300      1.0  0.4725588077442514  0.03455252330402869  0.31273067895297146  1.0000
  H   H301      1.0  0.48968180475633977  0.07654361645593699  0.33290337531285824  1.0000
  H   H302      1.0  0.50659995594617  0.07464432153766043  0.2975795373300991  1.0000
  H   H303      1.0  0.5496639684776896  0.09972373547157054  0.35327332337073564  1.0000
  H   H304      1.0  0.5671357298157216  0.09812275507649293  0.3180943042088031  1.0000
  H   H305      1.0  0.5767842711905664  0.07490726325638164  0.3479443741468198  1.0000
  H   H306      1.0  0.5023385714715671  0.04316979132118259  0.373952357563291  1.0000
  H   H307      1.0  0.5297591690159213  0.018855005786168055  0.36827855864839676  1.0000
  H   H308      1.0  0.4861678896173828  0.0017797972627695557  0.3530658864212066  1.0000
  N   N16       1.0  0.8950322671168265  0.6387435678407336  0.10091488737436283  1.0000
  C   C253      1.0  0.9037469337333291  0.6070701330086883  0.09566671385980374  1.0000
  C   C254      1.0  0.8698242960038981  0.6398689383986262  0.07859827263109231  1.0000
  C   C255      1.0  0.9274572422730792  0.6727124939146317  0.0994253972532908  1.0000
  C   C256      1.0  0.8791690009313382  0.6354346392239231  0.13002294865878916  1.0000
  H   H309      1.0  0.9211744941411242  0.6042468760870895  0.11303452635784361  1.0000
  H   H310      1.0  0.9177857815532801  0.609699218425223  0.07465053327286086  1.0000
  H   H311      1.0  0.8797368805621588  0.581111232753626  0.09511179853699336  1.0000
  H   H312      1.0  0.8628210819957032  0.6635653334026375  0.08185494526060721  1.0000
  H   H313      1.0  0.8811834794933171  0.642791142178629  0.056399918383705394  1.0000
  H   H314      1.0  0.8449963715504439  0.6147190946173859  0.0788745273837188  1.0000
  H   H315      1.0  0.9217201299983334  0.6973055830334265  0.10209106416902292  1.0000
  H   H316      1.0  0.9406738565800766  0.6755439434136298  0.07806039791057695  1.0000
  H   H317      1.0  0.9467002520010172  0.6734713990122418  0.11653173092414426  1.0000
  H   H318      1.0  0.8724199192836242  0.6590000272545788  0.13471095617103912  1.0000
  H   H319      1.0  0.8976565025585478  0.6345525058644091  0.14733145968425698  1.0000
  H   H320      1.0  0.8546470572354367  0.6100820183329153  0.13197012524640694  1.0000
  N   N17       1.0  0.6326661813163837  0.4279977403823393  0.4414539068199206  1.0000
  C   C257      1.0  0.6100492794270244  0.4483296785927074  0.44308919015763115  1.0000
  C   C258      1.0  0.6465482672471531  0.4254986725806303  0.47062369791513625  1.0000
  C   C259      1.0  0.6623492714420504  0.4470268582311705  0.4215107928148551  1.0000
  C   C260      1.0  0.6116931242560306  0.3909533034924176  0.43039271458429307  1.0000
  H   H321      1.0  0.5992756057528807  0.45052321255842037  0.4212743381990634  1.0000
  H   H322      1.0  0.6249625173745571  0.4765117310428087  0.45127766711133993  1.0000
  H   H323      1.0  0.5872851835936587  0.4345202732706488  0.4578510887260447  1.0000
  H   H324      1.0  0.6646470170369351  0.41131821316488154  0.4697677688301066  1.0000
  H   H325      1.0  0.6616656458215768  0.4529284038957538  0.48007976663018337  1.0000
  H   H326      1.0  0.6250282589366392  0.40979293672938205  0.4860060598911131  1.0000
  H   H327      1.0  0.6803489436631984  0.43272180448298064  0.4204008418856631  1.0000
  H   H328      1.0  0.6783388849975638  0.47543407107855673  0.42868449629063415  1.0000
  H   H329      1.0  0.6528417419084096  0.4482748944585814  0.39901002880355874  1.0000
  H   H330      1.0  0.6282963567485458  0.3753906879682986  0.4278404061827764  1.0000
  H   H331      1.0  0.6000088552121841  0.3917921908146376  0.40876239425324135  1.0000
  H   H332      1.0  0.5897766136837149  0.3751329129338289  0.4453510140575098  1.0000
  N   N18       1.0  0.3416535924400534  0.9112069364108001  0.2312978420403673  1.0000
  C   C261      1.0  0.366562206933739  0.8951887351628828  0.22294243588372695  1.0000
  C   C262      1.0  0.3379065429988636  0.9098757226564574  0.2632432454737598  1.0000
  C   C263      1.0  0.30703986422538343  0.890253018662617  0.2176564033736743  1.0000
  C   C264      1.0  0.3552457805378723  0.9495257867107056  0.22130836835807283  1.0000
  H   H333      1.0  0.3704046368196942  0.8959977727926873  0.19899114242062352  1.0000
  H   H334      1.0  0.3573404759220569  0.8663105875836393  0.23024714229433615  1.0000
  H   H335      1.0  0.39284132401989963  0.9103970993231576  0.23297630258718127  1.0000
  H   H336      1.0  0.3189651072950032  0.9213080261930481  0.27039133190962406  1.0000
  H   H337      1.0  0.3285571076804699  0.8814221624594522  0.2716317678637746  1.0000
  H   H338      1.0  0.3635765582343336  0.9259145382369  0.27409027115456475  1.0000
  H   H339      1.0  0.2875594097118286  0.901602746975622  0.22348887890156535  1.0000
  H   H340      1.0  0.2960599068022183  0.8611505210327659  0.22462395486024792  1.0000
  H   H341      1.0  0.3090881604115882  0.8909026103131137  0.193521069142929  1.0000
  H   H342      1.0  0.3810144393536755  0.96642699381703  0.23161334931043576  1.0000
  H   H343      1.0  0.3368741260635807  0.9624669545600192  0.22654282300935105  1.0000
  H   H344      1.0  0.35936975007329336  0.9517228268158461  0.19735263851062773  1.0000
  N   N19       1.0  0.08124496474763632  0.6639016353614021  0.7572363390046715  1.0000
  C   C265      1.0  0.11780550832326919  0.6678689542435025  0.7526674516679418  1.0000
  C   C266      1.0  0.0718622161232596  0.684773667571876  0.734741399613838  1.0000
  C   C267      1.0  0.07817474610164288  0.6777987176597878  0.786309698725369  1.0000
  C   C268      1.0  0.05697077127960326  0.6250171052880765  0.7552389660723469  1.0000
  H   H345      1.0  0.12105384183206036  0.657659110926941  0.7308906572055466  1.0000
  H   H346      1.0  0.1255910046827473  0.6521959366241256  0.7691897083726715  1.0000
  H   H347      1.0  0.13694966839791167  0.6968506730257006  0.7541335588876448  1.0000
  H   H348      1.0  0.08965845087401103  0.7142781973643744  0.7355562268303245  1.0000
  H   H349      1.0  0.07372354493912825  0.6747115362453381  0.7125769568700654  1.0000
  H   H350      1.0  0.04436420901608762  0.6822496688321731  0.7376167782503221  1.0000
  H   H351      1.0  0.0508194323298119  0.6750951246368132  0.7904950619888843  1.0000
  H   H352      1.0  0.09624157888099272  0.7070035609702124  0.7888600881647847  1.0000
  H   H353      1.0  0.08440336061874754  0.6620854124813818  0.8038260013407283  1.0000
  H   H354      1.0  0.06286134046626546  0.6085515805064025  0.7722561502653589  1.0000
  H   H355      1.0  0.05860014785757306  0.6132047482389185  0.7337353639390366  1.0000
  H   H356      1.0  0.02917131309327381  0.621183469921609  0.758565883497369  1.0000
  N   N20       1.0  0.17515585538142311  0.20970749334498626  0.9979348194942944  1.0000
  C   C269      1.0  0.14016980227650264  0.20424265247503312  0.009354380435219412  1.0000
  C   C270      1.0  0.20024440649938657  0.2167182505247572  0.02231841428242137  1.0000
  C   C271      1.0  0.18756961983208678  0.24128508206211252  0.9779517786813446  1.0000
  C   C272      1.0  0.1728603073909024  0.1768494933954242  0.9821395135111829  1.0000
  H   H357      1.0  0.1205411689780643  0.1990158960417495  0.9915494734130453  1.0000
  H   H358      1.0  0.14139706128436116  0.2288943736786024  0.021231495034670166  1.0000
  H   H359      1.0  0.12998160498556563  0.1807834082880774  0.02470108468643999  1.0000
  H   H360      1.0  0.22698143912676466  0.2211633602070179  0.014404745399948515  1.0000
  H   H361      1.0  0.20266760388016006  0.2413825090363777  0.034751276769506984  1.0000
  H   H362      1.0  0.19190865157949819  0.19338935558025427  0.037787896590006656  1.0000
  H   H363      1.0  0.2133032828076235  0.2454696942746466  0.968065394026734  1.0000
  H   H364      1.0  0.19123152582039876  0.2668244781972886  0.9895082534571834  1.0000
  H   H365      1.0  0.16863639478964  0.23772149612220148  0.959881322575158  1.0000
  H   H366      1.0  0.19913009125540782  0.1804662441148826  0.973445222524825  1.0000
  H   H367      1.0  0.15442113308881877  0.17085602737673966  0.9633950163324227  1.0000
  H   H368      1.0  0.1637160511696525  0.15244841471287154  0.996557756441175  1.0000
  N   N21       1.0  0.513313876673611  0.4813954632265508  0.902468781444497  1.0000
  C   C273      1.0  0.4867395991964387  0.44989160695236746  0.9179285306972836  1.0000
  C   C274      1.0  0.5411790900105969  0.5038662363736478  0.9228626946029233  1.0000
  C   C275      1.0  0.49607941320436105  0.5037757911131048  0.8898596834184624  1.0000
  C   C276      1.0  0.5291508117143376  0.46820723239337636  0.8789252285216635  1.0000
  H   H369      1.0  0.46547611347253776  0.4325076528711937  0.9028809311943121  1.0000
  H   H370      1.0  0.47377549330165314  0.4588213826201002  0.9355242647603778  1.0000
  H   H371      1.0  0.498705544083961  0.43229170889970997  0.9278430237288614  1.0000
  H   H372      1.0  0.5616024538215416  0.5277145150666541  0.9115595802290722  1.0000
  H   H373      1.0  0.5302565146001164  0.5148603528387081  0.9406118964664683  1.0000
  H   H374      1.0  0.5547671160243736  0.4878968573375826  0.9329624778803179  1.0000
  H   H375      1.0  0.5153389979354873  0.52771849965376  0.8780127195484638  1.0000
  H   H376      1.0  0.48350629144044593  0.51411303516418  0.9068048618327882  1.0000
  H   H377      1.0  0.4753323627722846  0.48775470524692327  0.8740931277794175  1.0000
  H   H378      1.0  0.5489276158175833  0.49139639509472877  0.8664980234727474  1.0000
  H   H379      1.0  0.5087186928178146  0.45106402751430447  0.8631843365069874  1.0000
  H   H380      1.0  0.5427347632747577  0.45143567865342626  0.88755359859202  1.0000
  N   N22       1.0  0.18135381465500205  0.9160174446281872  0.9234747852142663  1.0000
  C   C277      1.0  0.15958712728775434  0.8898725245906476  0.9014032665972145  1.0000
  C   C278      1.0  0.20644069112487118  0.9025111105965147  0.936286539282028  1.0000
  C   C279      1.0  0.15833913094361143  0.9196967353059613  0.9464962877640409  1.0000
  C   C280      1.0  0.20111654176092186  0.9519316596524766  0.9097353888367686  1.0000
  H   H381      1.0  0.14031791764377605  0.8991712898223553  0.8912797304103318  1.0000
  H   H382      1.0  0.1443724036500755  0.8624903907867547  0.9112004177720685  1.0000
  H   H383      1.0  0.1762286498546168  0.8863935501343211  0.8838025071268956  1.0000
  H   H384      1.0  0.22250775308480017  0.9210453558266243  0.9536409769931724  1.0000
  H   H385      1.0  0.19262261547915338  0.8749442111812762  0.9460524174562152  1.0000
  H   H386      1.0  0.2253060519726772  0.9009364211268395  0.9198114024107514  1.0000
  H   H387      1.0  0.1739979793883025  0.9379743861042028  0.9642400423783172  1.0000
  H   H388      1.0  0.14205619790113833  0.8928689086637085  0.9566127140649575  1.0000
  H   H389      1.0  0.13997067430505966  0.9311902856556742  0.9379250827545701  1.0000
  H   H390      1.0  0.18321525580706577  0.9630778425230991  0.8996833446611341  1.0000
  H   H391      1.0  0.21928653033157508  0.9503327659234371  0.8926071252188024  1.0000
  H   H392      1.0  0.21784534330887645  0.9721995315217492  0.9258679374830787  1.0000
  N   N23       1.0  0.3277321764724422  0.5953086728773279  0.5717958195595737  1.0000
  C   C281      1.0  0.34900233647959966  0.6335228039950341  0.580073775069249  1.0000
  C   C282      1.0  0.3167207564122796  0.5939625615793657  0.5410924596577862  1.0000
  C   C283      1.0  0.2961817196339495  0.580170577510129  0.5904642578862827  1.0000
  C   C284      1.0  0.349021853907614  0.573783342737747  0.5757624053595413  1.0000
  H   H393      1.0  0.35842846670716416  0.6354227826549953  0.6029516368163214  1.0000
  H   H394      1.0  0.33330433157769823  0.6501821516128453  0.5782313492163623  1.0000
  H   H395      1.0  0.37260018874239936  0.6462922309613184  0.5660019298161828  1.0000
  H   H396      1.0  0.30090970355559543  0.565483842769022  0.5339439077438531  1.0000
  H   H397      1.0  0.30017161173389006  0.609608829466691  0.5376625271830924  1.0000
  H   H398      1.0  0.3398156902585292  0.6059459830213445  0.5263535836582306  1.0000
  H   H399      1.0  0.27953276249095255  0.5512501573125781  0.5850535220632327  1.0000
  H   H400      1.0  0.27947666520310244  0.5957962435094797  0.5879120439427515  1.0000
  H   H401      1.0  0.30360649425563835  0.5811875776515354  0.6138478952465777  1.0000
  H   H402      1.0  0.35765022866660495  0.5745141155956693  0.5988356769437461  1.0000
  H   H403      1.0  0.3731756870997732  0.5846087298701246  0.5621171531807895  1.0000
  H   H404      1.0  0.3338200396423197  0.5446923198064261  0.5698693077182765  1.0000
  N   N24       1.0  0.6020881931465262  0.5332405047654282  0.17266403942800232  1.0000
  C   C285      1.0  0.6173775089850551  0.5074080011929314  0.18172149926922168  1.0000
  C   C286      1.0  0.566148156999294  0.5126963166797366  0.16122363233342463  1.0000
  C   C287      1.0  0.624213764245353  0.557774634798883  0.14978515692100797  1.0000
  C   C288      1.0  0.6004929797602658  0.5549955491944979  0.19798747203600456  1.0000
  H   H405      1.0  0.6185079800216163  0.4901119554507381  0.16329499068874406  1.0000
  H   H406      1.0  0.6013533452762583  0.4887404335182169  0.1991711662057392  1.0000
  H   H407      1.0  0.6445521547946886  0.5219623337126544  0.19039968469202315  1.0000
  H   H408      1.0  0.566264087960725  0.4966853275250668  0.14163181778499756  1.0000
  H   H409      1.0  0.5490233585437986  0.4932325233555244  0.17766160798390715  1.0000
  H   H410      1.0  0.5533262503339862  0.531224109892857  0.15512812028983675  1.0000
  H   H411      1.0  0.6128267738002112  0.5768909898410775  0.14190468810790274  1.0000
  H   H412      1.0  0.6265722704506943  0.5422320105232911  0.1305758823928514  1.0000
  H   H413      1.0  0.6512601964369835  0.5746167340067041  0.15783525869598966  1.0000
  H   H414      1.0  0.6270968916173908  0.5708062230758244  0.2073047735515896  1.0000
  H   H415      1.0  0.5838469807524167  0.5372195938247865  0.21560057003430078  1.0000
  H   H416      1.0  0.5890197345352831  0.574742304907539  0.1920099249378039  1.0000
  N   N25       1.0  0.3323364710918646  0.7887524395873086  0.5750737843335221  1.0000
  C   C289      1.0  0.3185757132375453  0.7821985963616139  0.5450141025978941  1.0000
  C   C290      1.0  0.30273415837776646  0.7801681574242562  0.5955511042055422  1.0000
  C   C291      1.0  0.35707772727709536  0.8273172004181731  0.5785392115710545  1.0000
  C   C292      1.0  0.3509338561823138  0.7650892150120587  0.5813768597432865  1.0000
  H   H417      1.0  0.34012015755752417  0.7879824248044291  0.5289208592021044  1.0000
  H   H418      1.0  0.30431546274413207  0.7995591597113041  0.5394238163092258  1.0000
  H   H419      1.0  0.2997801001423081  0.7532087061225177  0.5419289497773174  1.0000
  H   H420      1.0  0.28320599610014185  0.7514102874664522  0.5930868560464049  1.0000
  H   H421      1.0  0.3121390206951939  0.7838941008734442  0.618525016478905  1.0000
  H   H422      1.0  0.2885078156155689  0.7980437652006026  0.591938024564683  1.0000
  H   H423      1.0  0.36765795261022177  0.8328085014414853  0.601168775891046  1.0000
  H   H424      1.0  0.34399567644056683  0.8460712398773889  0.573993757996842  1.0000
  H   H425      1.0  0.37995568499928367  0.8346844454766069  0.5636182642374995  1.0000
  H   H426      1.0  0.3625230766100659  0.7700313052064032  0.6036147323980229  1.0000
  H   H427      1.0  0.3727779793861101  0.7698989416701397  0.5658075206511586  1.0000
  H   H428      1.0  0.33264486589462977  0.7358236871590808  0.5800548288289631  1.0000
  N   N26       1.0  0.521431343260718  0.3113290973187427  0.2882450487789459  1.0000
  C   C293      1.0  0.5525439467926676  0.3172625415563434  0.2700826484278951  1.0000
  C   C294      1.0  0.5040993696017703  0.33477178752655246  0.2776836770374395  1.0000
  C   C295      1.0  0.5326813131719269  0.3206765969702283  0.31869291695534724  1.0000
  C   C296      1.0  0.4965266490302556  0.27260209391281376  0.28660433076902114  1.0000
  H   H429      1.0  0.5663216057587622  0.3000658526795778  0.2776066184954117  1.0000
  H   H430      1.0  0.5719605467347291  0.3461994711107594  0.2708339626866604  1.0000
  H   H431      1.0  0.5450880119603522  0.31033058918668865  0.2469684302028956  1.0000
  H   H432      1.0  0.48030910596349174  0.3307677080599213  0.2907147166806796  1.0000
  H   H433      1.0  0.52207890745924  0.3642013799304848  0.2791628412805053  1.0000
  H   H434      1.0  0.495793666083195  0.32903621546779604  0.25458734029875213  1.0000
  H   H435      1.0  0.5451903150221427  0.30305206036387217  0.3276324769408012  1.0000
  H   H436      1.0  0.5101338983184098  0.31754620835635855  0.33299033774385906  1.0000
  H   H437      1.0  0.5523349787998398  0.34929600251116727  0.3205658185862029  1.0000
  H   H438      1.0  0.47289547221866035  0.266988955422754  0.30031138648748434  1.0000
  H   H439      1.0  0.5090784404144376  0.25434709135638045  0.2943405889705593  1.0000
  H   H440      1.0  0.48743675644561574  0.2645387584558011  0.26393599977757176  1.0000
  N   N27       1.0  0.540627554007323  0.2674806473697191  0.7296241474099252  1.0000
  C   C297      1.0  0.5775290848376053  0.2736736961973811  0.7237244071818401  1.0000
  C   C298      1.0  0.527264911694222  0.2829355051908959  0.7056058967842204  1.0000
  C   C299      1.0  0.5390227468329516  0.28561727338311854  0.7570871418578133  1.0000
  C   C300      1.0  0.5188806176969997  0.2278483877901127  0.7319911589579177  1.0000
  H   H441      1.0  0.588257076598429  0.2611774157387747  0.7407263820446863  1.0000
  H   H442      1.0  0.5949347941055267  0.3032754501894592  0.7226363697964712  1.0000
  H   H443      1.0  0.5798085868007631  0.2614611151704366  0.7026741919358116  1.0000
  H   H444      1.0  0.4995184368919226  0.27898953997389636  0.709368426999708  1.0000
  H   H445      1.0  0.5433003721478337  0.31279099516582126  0.7030926403088409  1.0000
  H   H446      1.0  0.5281425036978215  0.2699097700912954  0.68450036496603  1.0000
  H   H447      1.0  0.5491526564515119  0.2747813215851656  0.7756321906988036  1.0000
  H   H448      1.0  0.5115342833327892  0.281534460788481  0.7622805004547725  1.0000
  H   H449      1.0  0.555149569823879  0.3156129436121419  0.7557947245831044  1.0000
  H   H450      1.0  0.5288449613313992  0.21499382248606047  0.7493075471491676  1.0000
  H   H451      1.0  0.5190319192679768  0.21353913215170187  0.7113784520187847  1.0000
  H   H452      1.0  0.49094227018599396  0.2220195658162499  0.7370538830152625  1.0000
  N   N28       1.0  0.3501771449841844  0.4898519427828619  0.7930657312911159  1.0000
  C   C301      1.0  0.36283806648316763  0.486829931170962  0.7636590536441485  1.0000
  C   C302      1.0  0.3786227224535147  0.49591896119927265  0.814401477327485  1.0000
  C   C303      1.0  0.3196451623429836  0.45575617215040004  0.8004506366138421  1.0000
  C   C304      1.0  0.3397563141194894  0.5209235464912141  0.7938197500225995  1.0000
  H   H453      1.0  0.34236546714958555  0.4830697790894183  0.7468573873235597  1.0000
  H   H454      1.0  0.37060541578583267  0.4634336830398561  0.7621671048314363  1.0000
  H   H455      1.0  0.386337204155202  0.5118761765774462  0.7576954923597499  1.0000
  H   H456      1.0  0.401808985459207  0.5217724202800089  0.809818779138665  1.0000
  H   H457      1.0  0.3698525423794346  0.4977576679982771  0.8369016385344804  1.0000
  H   H458      1.0  0.3877291950551551  0.4733848161795106  0.8140465491711726  1.0000
  H   H459      1.0  0.3269621961267099  0.43195103253117106  0.8003632130125369  1.0000
  H   H460      1.0  0.29767736034279135  0.4500568938242037  0.7847137068763298  1.0000
  H   H461      1.0  0.30946304357749793  0.45715232093631075  0.8225406842602614  1.0000
  H   H462      1.0  0.31854746943353063  0.5175344728546966  0.7778071441876597  1.0000
  H   H463      1.0  0.36240885188044886  0.5470440641459613  0.7884327108772577  1.0000
  H   H464      1.0  0.33022698142055673  0.5241961314505832  0.8157122648595485  1.0000
  N   N29       1.0  0.7761241477522044  0.1189457790297013  0.07769814315514102  1.0000
  C   C305      1.0  0.753608336050146  0.12240906711236817  0.05405786482631434  1.0000
  C   C306      1.0  0.7646391258366193  0.08002764663178354  0.08541117936627468  1.0000
  C   C307      1.0  0.7728536602133886  0.13944466824817592  0.10324901970305923  1.0000
  C   C308      1.0  0.8131781469986779  0.13377219086556455  0.06788320547069827  1.0000
  H   H465      1.0  0.7620644735882054  0.15123193701415974  0.046909772747202816  1.0000
  H   H466      1.0  0.7255858006209924  0.112467525557927  0.060845672586383306  1.0000
  H   H467      1.0  0.754514994147443  0.10614180372865943  0.034867565220970904  1.0000
  H   H468      1.0  0.7669910087780274  0.06394504430782531  0.06650190902474093  1.0000
  H   H469      1.0  0.7807769266288216  0.07625735135581546  0.1033940718385559  1.0000
  H   H470      1.0  0.7365408177468269  0.06781997813312605  0.09236157337093148  1.0000
  H   H471      1.0  0.7893863363012651  0.13738590290711902  0.12163762187447828  1.0000
  H   H472      1.0  0.745038675047766  0.12882482426195885  0.11094945858046044  1.0000
  H   H473      1.0  0.7812262089351678  0.1688884536007269  0.09800150463899121  1.0000
  H   H474      1.0  0.8312018595358429  0.1327205899251956  0.08541869167298548  1.0000
  H   H475      1.0  0.8223336756439573  0.16266898893945272  0.06056232806840429  1.0000
  H   H476      1.0  0.8165205268641975  0.11797708191955458  0.049184488452977154  1.0000
  N   N30       1.0  0.8715595662011312  0.30703248898704794  0.9323353799557518  1.0000
  C   C309      1.0  0.8678552584064448  0.2689051053890411  0.9348119016288355  1.0000
  C   C310      1.0  0.8384415385573957  0.3075011786898615  0.9210301911058244  1.0000
  C   C311      1.0  0.9007648425538484  0.3274995563807291  0.9123377614078995  1.0000
  C   C312      1.0  0.8791857034732998  0.32430944392585276  0.9612616249784365  1.0000
  H   H477      1.0  0.8623565040231305  0.2549447901697697  0.9134187532851238  1.0000
  H   H478      1.0  0.846102164058845  0.2527432479343502  0.9498458931454684  1.0000
  H   H479      1.0  0.8922060110889211  0.26750195696156587  0.9437221970071099  1.0000
  H   H480      1.0  0.8318692080558148  0.2946479320404497  0.8992088067796786  1.0000
  H   H481      1.0  0.815924152674531  0.29236564142151167  0.9357098144560025  1.0000
  H   H482      1.0  0.840414031829461  0.33591400448362496  0.9189528870544947  1.0000
  H   H483      1.0  0.9043530751126426  0.3564394414564615  0.9100907910361101  1.0000
  H   H484      1.0  0.8962073549287644  0.31529020356956416  0.8902738820000332  1.0000
  H   H485      1.0  0.9262573520313919  0.3280882617288219  0.9204207004407835  1.0000
  H   H486      1.0  0.904014817403131  0.32443491835449206  0.9702658626395394  1.0000
  H   H487      1.0  0.8580521746279159  0.3094036930478021  0.9771755597701921  1.0000
  H   H488      1.0  0.8825387751881578  0.35325494666003243  0.9603377119974251  1.0000
  N   N31       1.0  0.07763807588983784  0.4559412632084702  0.751656247489825  1.0000
  C   C313      1.0  0.10168693732471533  0.46825237423351346  0.7265122042605796  1.0000
  C   C314      1.0  0.040801139318530834  0.44205715192504846  0.7413361943473195  1.0000
  C   C315      1.0  0.08461412630292908  0.48698931247241145  0.7713944769942473  1.0000
  C   C316      1.0  0.08325915671503445  0.42664224170334936  0.7674644893024414  1.0000
  H   H489      1.0  0.12977419142455865  0.4793811512795814  0.7334606220821914  1.0000
  H   H490      1.0  0.0977018494473212  0.49033227790630257  0.7142465979534085  1.0000
  H   H491      1.0  0.09721588253397981  0.4455765012511582  0.7110630599167763  1.0000
  H   H492      1.0  0.021924472106206606  0.4328575565449755  0.7598017646573341  1.0000
  H   H493      1.0  0.03563482057273748  0.4635044427556692  0.7292967406085937  1.0000
  H   H494      1.0  0.03443475939535469  0.41849520502529  0.7264534267053185  1.0000
  H   H495      1.0  0.06695907968210928  0.47874013673782956  0.790690984045951  1.0000
  H   H496      1.0  0.0802090581036083  0.5093017438880503  0.7601382513108087  1.0000
  H   H497      1.0  0.11224903100920165  0.498507076322568  0.779464511201246  1.0000
  H   H498      1.0  0.07806888940260479  0.4026127284006049  0.7533143009445872  1.0000
  H   H499      1.0  0.0652677318543903  0.41707100229433486  0.7865520182294033  1.0000
  H   H500      1.0  0.11072730666799215  0.4362015373719483  0.7757627715326203  1.0000
  N   N32       1.0  0.47506494340840083  0.8793530934659431  0.7860797316051509  1.0000
  C   C317      1.0  0.505782201781523  0.8734486517722534  0.7970808115470401  1.0000
  C   C318      1.0  0.45858964702942845  0.8906608105842732  0.8102975909449446  1.0000
  C   C319      1.0  0.4490740758492307  0.8452910680906768  0.7732424726300702  1.0000
  C   C320      1.0  0.48690561561734363  0.9082965730713458  0.7637180822680607  1.0000
  H   H501      1.0  0.4979430960125035  0.8518965582531487  0.8141205089111463  1.0000
  H   H502      1.0  0.5257650111451498  0.8989214409382477  0.8068430180807391  1.0000
  H   H503      1.0  0.5189910175134993  0.8650981055191916  0.7793340978224519  1.0000
  H   H504      1.0  0.4354953004773794  0.8957321954408863  0.8026990277042199  1.0000
  H   H505      1.0  0.4491199631846323  0.8694482634402814  0.8275520292090938  1.0000
  H   H506      1.0  0.4775373891419731  0.9163216271913294  0.8204454280916242  1.0000
  H   H507      1.0  0.42539622147860784  0.8489619525812602  0.7652719532277696  1.0000
  H   H508      1.0  0.4398316387467544  0.8226548771967682  0.7893649729125598  1.0000
  H   H509      1.0  0.4602245505652127  0.8363964474996524  0.7543745397763101  1.0000
  H   H510      1.0  0.4988127212240505  0.900527994228982  0.744763651359105  1.0000
  H   H511      1.0  0.5070305400682383  0.9341868218954997  0.7726114339557206  1.0000
  H   H512      1.0  0.4645553742162055  0.9141407527325073  0.7554210761110559  1.0000
