data_image0
_chemical_formula_structural       FeS2FeS2FeSFeS3FeS2FeS2FeSFeS3FeS2FeS2FeSFeS3FeS2FeS2FeSFeS3FeS2FeS2FeSFeS3FeS2FeS2FeSFeS3FeS2FeS2FeSFeS3FeS2FeS2FeSFeS3FeS2FeS2FeSFeS3FeS2FeS2FeSFeS3FeS2FeS2FeSFeS3FeS2FeS2FeSFeS3FeS2FeS2FeSFeS3FeS2FeS2FeSFeS3FeS2FeS2FeSFeS3FeS2FeS2FeSFeS3FeS2FeS2FeSFeS3FeS2FeS2FeSFeS3FeS2FeS2FeSFeS3FeS2FeS2FeSFeS3FeS2FeS2FeSFeS3FeS2FeS2FeSFeS3FeS2FeS2FeSFeS3FeS2FeS2FeSFeS3FeS2FeS2FeSFeS3FeS2FeS2FeSFeS3FeS2FeS2FeSFeS3FeS2FeS2FeSFeS3FeS2FeS2FeSFeS3FeS2FeS2FeSFeS3FeS2FeS2FeSFeS3FeS2FeS2FeSFeS3C6H4C6H4C6H4C6H4C6H4C6H4C6H4C6H4C6H4C6H4C6H4C6H4C6H4C6H4C6H4C6H4C6H4C6H4C6H4C6H4C6H4C6H4C6H4C6H4C6H4C6H4C6H4C6H4C6H4C6H4C6H4C6H4C6H4C6H4C6H4C6H4C6H4C6H4C6H4C6H4C6H4C6H4C6H4C6H4C6H4C6H4C6H4C6H4C6H4C6H4C6H4C6H4C6H4C6H4C6H4C6H4C6H4C6H4C6H4C6H4C6H4C6H4C6H4C6H4NC4H12NC4H12NC4H12NC4H12NC4H12NC4H12NC4H12NC4H12NC4H12NC4H12NC4H12NC4H12NC4H12NC4H12NC4H12NC4H12NC4H12NC4H12NC4H12NC4H12NC4H12NC4H12NC4H12NC4H12NC4H12NC4H12NC4H12NC4H12NC4H12NC4H12NC4H12NC4H12NC4H12NC4H12NC4H12NC4H12NC4H12NC4H12NC4H12NC4H12NC4H12NC4H12NC4H12NC4H12NC4H12NC4H12NC4H12NC4H12NC4H12NC4H12NC4H12NC4H12NC4H12NC4H12NC4H12NC4H12NC4H12NC4H12NC4H12NC4H12NC4H12NC4H12NC4H12NC4H12
_chemical_formula_sum              "Fe128 S256 C640 H1024 N64"
_cell_length_a       35.97438483657399
_cell_length_b       73.10917006297456
_cell_length_c       35.02166357928271
_cell_angle_alpha    89.92761414641417
_cell_angle_beta     90.4321435292056
_cell_angle_gamma    89.69696358093877

_space_group_name_H-M_alt    "P 1"
_space_group_IT_number       1

loop_
  _space_group_symop_operation_xyz
  'x, y, z'

loop_
  _atom_site_type_symbol
  _atom_site_label
  _atom_site_symmetry_multiplicity
  _atom_site_fract_x
  _atom_site_fract_y
  _atom_site_fract_z
  _atom_site_occupancy
  Fe  Fe1       1.0  0.796657689006245  0.7809370584083444  0.7435410648552304  1.0000
  S   S1        1.0  0.8541474935439509  0.7857306756526122  0.7660624890285744  1.0000
  S   S2        1.0  0.7735241369835025  0.7526677028788541  0.7466543807967115  1.0000
  Fe  Fe2       1.0  0.7820376432256168  0.8211047159971607  0.7283633587130923  1.0000
  S   S3        1.0  0.8378921953400045  0.8295397550496982  0.7508986043581724  1.0000
  S   S4        1.0  0.7441426999645233  0.8436926334626768  0.7082650107610547  1.0000
  Fe  Fe3       1.0  0.8585578296327944  0.8055509228346448  0.7174521753502386  1.0000
  S   S5        1.0  0.9067660697966509  0.8086299796749488  0.6779495376685089  1.0000
  Fe  Fe4       1.0  0.8279016137426998  0.8091399728502955  0.7973690982958774  1.0000
  S   S6        1.0  0.8405434445312141  0.8127818423539634  0.8598248312221638  1.0000
  S   S7        1.0  0.8033943689853346  0.7984003371106778  0.6915129759684306  1.0000
  S   S8        1.0  0.7698106897665813  0.8029223629609648  0.7782120537244648  1.0000
  Fe  Fe5       1.0  0.6776363009654398  0.793123422194252  0.985245890326327  1.0000
  S   S9        1.0  0.7210475899216086  0.7720631538342628  0.9992749429707483  1.0000
  S   S10       1.0  0.6872417506609468  0.8164733684997657  0.9450773072172234  1.0000
  Fe  Fe6       1.0  0.619227043762671  0.7748931349918674  0.03310334120642455  1.0000
  S   S11       1.0  0.6577127472269267  0.7522742413016986  0.051577951137960154  1.0000
  S   S12       1.0  0.561183896887842  0.7744956855553355  0.05591684337682623  1.0000
  Fe  Fe7       1.0  0.6995081025899162  0.7745117789539288  0.058813876429765655  1.0000
  S   S13       1.0  0.7385985729239243  0.7745658185430443  0.10900925420028162  1.0000
  Fe  Fe8       1.0  0.6753705759864796  0.751845186052054  0.9903453047651899  1.0000
  S   S14       1.0  0.6887321269611072  0.7267108790972461  0.9559721501724922  1.0000
  S   S15       1.0  0.659570346455241  0.797345800044695  0.04579566125055612  1.0000
  S   S16       1.0  0.6333908276966992  0.7726407397659885  0.9710276181783417  1.0000
  Fe  Fe9       1.0  0.8472133660063048  0.8578388548233998  0.16053482059183655  1.0000
  S   S17       1.0  0.8658559729618718  0.8419936602750588  0.21240979850493363  1.0000
  S   S18       1.0  0.8341058044107686  0.8465942665427667  0.10223461703357191  1.0000
  Fe  Fe10      1.0  0.843808833645051  0.8938475439451306  0.2027219938220691  1.0000
  S   S19       1.0  0.8607797073211468  0.8811475409465203  0.25810155972226034  1.0000
  S   S20       1.0  0.8330911942081718  0.9240714366526794  0.20320584175032522  1.0000
  Fe  Fe11      1.0  0.9030343196970746  0.8660643513312747  0.22354172378607884  1.0000
  S   S21       1.0  0.9590877705070083  0.8658792583609402  0.25258965413124007  1.0000
  Fe  Fe12      1.0  0.8223373402451444  0.8585459766073322  0.24241643235027358  1.0000
  S   S22       1.0  0.7856947813071625  0.8458137387115384  0.2865096653610396  1.0000
  S   S23       1.0  0.8886894929607941  0.8803579254616707  0.16854596600091193  1.0000
  S   S24       1.0  0.8007888243841685  0.8726557685264922  0.18991623600790236  1.0000
  Fe  Fe13      1.0  0.6978404676429854  0.8766096407932542  0.5075069680065835  1.0000
  S   S25       1.0  0.6517160820779293  0.8777937085344527  0.4639986163099121  1.0000
  S   S26       1.0  0.7155932472420132  0.8490322846944119  0.5302548748304879  1.0000
  Fe  Fe14      1.0  0.707124355713973  0.9176094676429868  0.5091184350899831  1.0000
  S   S27       1.0  0.6603992116960078  0.9226855941154491  0.4680645450902581  1.0000
  S   S28       1.0  0.7453551986155458  0.9399404578883592  0.5277129321577871  1.0000
  Fe  Fe15      1.0  0.6301989139666644  0.9008047291794523  0.49988003615365445  1.0000
  S   S29       1.0  0.5703074232076076  0.9034291568650056  0.5170539420901258  1.0000
  Fe  Fe16      1.0  0.6854728542513326  0.8994385492866329  0.43554228864719124  1.0000
  S   S30       1.0  0.6906681967885311  0.9053480300562085  0.3731387374746759  1.0000
  S   S31       1.0  0.674173239399657  0.8984438265372282  0.5452652132829263  1.0000
  S   S32       1.0  0.7343901338009553  0.8956494615443154  0.47457059343717467  1.0000
  Fe  Fe17      1.0  0.10092541996588167  0.7832435725456873  0.7262147240546618  1.0000
  S   S33       1.0  0.08764592610004325  0.7739906799714136  0.6667791517728183  1.0000
  S   S34       1.0  0.05926103662818072  0.7970094083278936  0.7641880222770543  1.0000
  Fe  Fe18      1.0  0.1776178528887478  0.765712406704947  0.725794036953785  1.0000
  S   S35       1.0  0.17093951772932703  0.754963521732815  0.6661169056530842  1.0000
  S   S36       1.0  0.22948695984495388  0.7580916848266088  0.7585415063996032  1.0000
  Fe  Fe19      1.0  0.14599581267799727  0.7825927724183599  0.6537830233965586  1.0000
  S   S37       1.0  0.15665116174822225  0.8001425582381713  0.6023041778915919  1.0000
  Fe  Fe20      1.0  0.11337346546160564  0.747440501304064  0.6846771843505753  1.0000
  S   S38       1.0  0.08236471701181669  0.721099544976999  0.6771670098415568  1.0000
  S   S39       1.0  0.15741645903817508  0.7940934305041686  0.7120485567680679  1.0000
  S   S40       1.0  0.12222092404051518  0.7558984069200873  0.7453459274405085  1.0000
  Fe  Fe21      1.0  0.3919656655592921  0.8126300779917438  0.9693389768586073  1.0000
  S   S41       1.0  0.37872724507227457  0.7896355896141147  0.009038805267517214  1.0000
  S   S42       1.0  0.44643372679589427  0.8274218011311801  0.9743266217971924  1.0000
  Fe  Fe22      1.0  0.3211389348066595  0.8068841757808017  0.9228435621984066  1.0000
  S   S43       1.0  0.30326406243329107  0.7829896822507239  0.9582545102707895  1.0000
  S   S44       1.0  0.2811232978078196  0.8175136741477226  0.8784002997998418  1.0000
  Fe  Fe23      1.0  0.32070330356602494  0.800497280192482  0.007712646781491861  1.0000
  S   S45       1.0  0.28415291280624566  0.80176636304305  0.059503645275502004  1.0000
  Fe  Fe24      1.0  0.36328539871057497  0.7745831007160181  0.9558515522298342  1.0000
  S   S46       1.0  0.3924824833133036  0.7475493997233277  0.9524323825203629  1.0000
  S   S47       1.0  0.3348972776800559  0.82507579913018  0.9725299304474354  1.0000
  S   S48       1.0  0.37980963828587994  0.796929595475324  0.9157591471245463  1.0000
  Fe  Fe25      1.0  0.19882473274211448  0.8976883720476669  0.237398342618227  1.0000
  S   S49       1.0  0.2344052931258956  0.9149885514039385  0.19972985114395517  1.0000
  S   S50       1.0  0.21282268730251921  0.8998083725375087  0.29998488717657495  1.0000
  Fe  Fe26      1.0  0.14867149846378963  0.8863871466602892  0.17142161058184324  1.0000
  S   S51       1.0  0.18061468876085146  0.9026827755140693  0.12871724326369913  1.0000
  S   S52       1.0  0.09850685154854251  0.873064862439932  0.14542635177565025  1.0000
  Fe  Fe27      1.0  0.2306935150690738  0.8913213469217408  0.158979331230019  1.0000
  S   S53       1.0  0.2820430334342839  0.8817790856898319  0.12830011481478737  1.0000
  Fe  Fe28      1.0  0.18080217218090439  0.9244961713228441  0.17344629482633797  1.0000
  S   S54       1.0  0.1617468210802984  0.9533380857389931  0.16184927372784447  1.0000
  S   S55       1.0  0.19899968813313176  0.8731629827082638  0.19865140354300076  1.0000
  S   S56       1.0  0.14519030286431053  0.9090145061451358  0.21419435929828573  1.0000
  Fe  Fe29      1.0  0.3342136339776391  0.8736534025309102  0.4869104565166506  1.0000
  S   S57       1.0  0.35884630965301323  0.8657308761238843  0.43071584575052624  1.0000
  S   S58       1.0  0.31769982336930824  0.9029131106041253  0.49614314097988566  1.0000
  Fe  Fe30      1.0  0.3356331790903293  0.8350465423407106  0.5178615222927104  1.0000
  S   S59       1.0  0.3607444891650924  0.8238095067184198  0.4642472353756981  1.0000
  S   S60       1.0  0.32517630800411684  0.8152476138441318  0.5661204450060436  1.0000
  Fe  Fe31      1.0  0.397426538518571  0.8485001697689706  0.4663072301623971  1.0000
  S   S61       1.0  0.45724545996045257  0.8459033494445102  0.44886949815136334  1.0000
  Fe  Fe32      1.0  0.3200477163487694  0.8419785258052139  0.4336103704726819  1.0000
  S   S62       1.0  0.28757116591750403  0.832169068695858  0.3824286998624673  1.0000
  S   S63       1.0  0.37596485322197976  0.8582921022131309  0.5227584719568368  1.0000
  S   S64       1.0  0.2917060930748697  0.8513170609210094  0.48688760345712145  1.0000
  Fe  Fe33      1.0  0.9744536505069018  0.11076376089650476  0.9056985552619612  1.0000
  S   S65       1.0  0.958125549617062  0.13375975403700505  0.9446296222393783  1.0000
  S   S66       1.0  0.9316915673654885  0.09915184046157777  0.8658403836315319  1.0000
  Fe  Fe34      1.0  0.053341101201258345  0.10883836283201428  0.9364583428144843  1.0000
  S   S67       1.0  0.04356381312617108  0.13152328690053397  0.9782019869203342  1.0000
  S   S68       1.0  0.10908557445722833  0.09493828686594198  0.9338612047562825  1.0000
  Fe  Fe35      1.0  0.9893802886516851  0.11760536443330892  0.9892093857079206  1.0000
  S   S69       1.0  0.9722677132259865  0.11443426452257613  0.0504856323338394  1.0000
  Fe  Fe36      1.0  0.013848362389748292  0.14519489672573666  0.9295313915264092  1.0000
  S   S70       1.0  0.026291829981976766  0.17392735974659052  0.9113073999800267  1.0000
  S   S71       1.0  0.0014756163073645912  0.09366865843133038  0.9512872915004045  1.0000
  S   S72       1.0  0.027707363278076658  0.12349674024843492  0.8867040656560742  1.0000
  Fe  Fe37      1.0  0.7373341035898757  0.14921916428041387  0.7024744247793158  1.0000
  S   S73       1.0  0.7513837260152859  0.14218969328655098  0.6420349476196991  1.0000
  S   S74       1.0  0.6785524792227133  0.1515223896298553  0.722785422561495  1.0000
  Fe  Fe38      1.0  0.8181904046175299  0.15400663539982826  0.7257494647204997  1.0000
  S   S75       1.0  0.8393181629531005  0.1475934778156135  0.6671398284740504  1.0000
  S   S76       1.0  0.8585580922614037  0.16322668416620165  0.7709287501456564  1.0000
  Fe  Fe39      1.0  0.79188904550713  0.16516713713368478  0.6469458246166787  1.0000
  S   S77       1.0  0.7947198270459707  0.18751396973958323  0.6035236783757882  1.0000
  Fe  Fe40      1.0  0.7969221505271652  0.12523866848406479  0.6680072892591763  1.0000
  S   S78       1.0  0.8084304861116346  0.09663772454808592  0.6480231670027912  1.0000
  S   S79       1.0  0.774309409081007  0.17354336326729344  0.7055496080984478  1.0000
  S   S80       1.0  0.7794167649593622  0.1301239965818487  0.7285456444294776  1.0000
  Fe  Fe41      1.0  0.29106703270416306  0.14360751208766304  0.9462972910763049  1.0000
  S   S81       1.0  0.34401904998282096  0.15115794969633123  0.9765318208119472  1.0000
  S   S82       1.0  0.23503335346169377  0.152265090153729  0.9676719234098203  1.0000
  Fe  Fe42      1.0  0.33088686727064515  0.12903844635971046  0.8764759900782775  1.0000
  S   S83       1.0  0.3871154260836065  0.13544169047242763  0.9004480286302177  1.0000
  S   S84       1.0  0.32109938135779115  0.11942129467937629  0.8163538222896135  1.0000
  Fe  Fe43      1.0  0.364327803072547  0.12400912754239111  0.9549743327424582  1.0000
  S   S85       1.0  0.4019488972536638  0.10525108111673229  0.988326917108307  1.0000
  Fe  Fe44      1.0  0.3615417634283792  0.16184384379118089  0.9194130269742569  1.0000
  S   S86       1.0  0.3884789120187795  0.1890811937091768  0.9090585202726265  1.0000
  S   S87       1.0  0.30972953994201474  0.11538371822180349  0.9293823743884706  1.0000
  S   S88       1.0  0.3071065365428792  0.15642830564370122  0.8908053061749804  1.0000
  Fe  Fe45      1.0  0.5202156826364592  0.11888516179302323  0.6056122080052055  1.0000
  S   S89       1.0  0.4754865411755083  0.11271774101100583  0.5629003478633487  1.0000
  S   S90       1.0  0.5730844499871136  0.1313909749503372  0.585283093619994  1.0000
  Fe  Fe46      1.0  0.47343898423826297  0.10704981840988757  0.6732060362656079  1.0000
  S   S91       1.0  0.4244160729433937  0.10043565561616322  0.6360614033644242  1.0000
  S   S92       1.0  0.47366964526251704  0.1018177297059788  0.7365145983845692  1.0000
  Fe  Fe47      1.0  0.46653594154924083  0.08731888525891783  0.5978566150239217  1.0000
  S   S93       1.0  0.45970626169608414  0.05772955618928477  0.5817533815243944  1.0000
  Fe  Fe48      1.0  0.43836198827690304  0.12639249578162068  0.6055674723590962  1.0000
  S   S94       1.0  0.39875291092569093  0.14887145721587625  0.5895037589461845  1.0000
  S   S95       1.0  0.5150244185238599  0.09239054624928601  0.6369267854093248  1.0000
  S   S96       1.0  0.48401596017897164  0.13421956249989708  0.6461314074649844  1.0000
  Fe  Fe49      1.0  0.6959818124561077  0.032276121306595185  0.48348638346929257  1.0000
  S   S97       1.0  0.6873283671303159  0.021148749415137447  0.42484969789276017  1.0000
  S   S98       1.0  0.6672154233449028  0.017233856270778114  0.5301317981404448  1.0000
  Fe  Fe50      1.0  0.7394585607635316  0.06481618948255408  0.4558757927241268  1.0000
  S   S99       1.0  0.7332217260011352  0.05710831358723856  0.39414448912985595  1.0000
  S   S100      1.0  0.7710611547419861  0.09009265354730012  0.47225644625509555  1.0000
  Fe  Fe51      1.0  0.674565941238849  0.05022681658712069  0.40929883170312514  1.0000
  S   S101      1.0  0.6228941205525527  0.0573760226081641  0.37631431041606317  1.0000
  Fe  Fe52      1.0  0.7467302537221515  0.02872074354996146  0.41490455526325876  1.0000
  S   S102      1.0  0.7886443930797  0.009164016089957094  0.3900048002059869  1.0000
  S   S103      1.0  0.6791579051601392  0.0609081465603718  0.46903464614748974  1.0000
  S   S104      1.0  0.7569703320388372  0.03694815649554206  0.4756527526399976  1.0000
  Fe  Fe53      1.0  0.981554803391923  0.02680285766524304  0.16905365001358746  1.0000
  S   S105      1.0  0.9788549506811236  0.04801746057473766  0.21501339714491474  1.0000
  S   S106      1.0  0.9808344805633968  0.03220154961848687  0.10575012949796922  1.0000
  Fe  Fe54      1.0  0.979345685831315  0.9954100664498049  0.22621569096508867  1.0000
  S   S107      1.0  0.976232440765792  0.014002112727200533  0.27708067080641324  1.0000
  S   S108      1.0  0.9847983403259903  0.9649016315892764  0.23114056390428342  1.0000
  Fe  Fe55      1.0  0.9355962277914983  0.03004873869654645  0.2410316186955932  1.0000
  S   S109      1.0  0.882140471237674  0.04401209227454306  0.25720229215022  1.0000
  Fe  Fe56      1.0  0.01964339520494729  0.03001024560144705  0.24597021828506072  1.0000
  S   S110      1.0  0.07151691861591747  0.04084418560676939  0.27319355511786775  1.0000
  S   S111      1.0  0.9350988278343028  0.01007413527609713  0.19259242533503312  1.0000
  S   S112      1.0  0.02599277781462206  0.010129740480862237  0.1978690964311361  1.0000
  Fe  Fe57      1.0  0.4873297425985549  0.9857163504555713  0.35569143628216016  1.0000
  S   S113      1.0  0.4848061143952243  0.9960125906659207  0.4155780604205871  1.0000
  S   S114      1.0  0.5442476957519439  0.9837656837999437  0.3307720210547052  1.0000
  Fe  Fe58      1.0  0.40416167032878747  0.9797428328203728  0.35089938565252266  1.0000
  S   S115      1.0  0.3941863715887073  0.9892889910820173  0.4109345079080955  1.0000
  S   S116      1.0  0.3596150985597899  0.9706725197082902  0.3101272915171305  1.0000
  Fe  Fe59      1.0  0.4344497970027295  0.011490678444740166  0.3956958060651029  1.0000
  S   S117      1.0  0.42736997086291445  0.04140591097166402  0.407837067445972  1.0000
  Fe  Fe60      1.0  0.4454853201222546  0.972920873283007  0.4248230286532613  1.0000
  S   S118      1.0  0.4565993083759005  0.9538989107104542  0.4735518432714797  1.0000
  S   S119      1.0  0.44041707769671173  0.003249655936575113  0.33449414085275786  1.0000
  S   S120      1.0  0.4517255909709453  0.961242834310361  0.3661743901346999  1.0000
  Fe  Fe61      1.0  0.27630175650715977  0.033608840991583566  0.14309121504902494  1.0000
  S   S121      1.0  0.2268040530924185  0.037203266776545396  0.18045205803591613  1.0000
  S   S122      1.0  0.2879583420956282  0.007602324442732344  0.11142990130569336  1.0000
  Fe  Fe62      1.0  0.3078544512281388  0.07053116344072996  0.1637618925332301  1.0000
  S   S123      1.0  0.26116978086033443  0.0776853278096663  0.20321591679464787  1.0000
  S   S124      1.0  0.36039102179020216  0.08660419993733903  0.15858164039820938  1.0000
  Fe  Fe63      1.0  0.2663992197113942  0.04869465467541856  0.22312457208017558  1.0000
  S   S125      1.0  0.2623308944878389  0.04107666572551438  0.2847786321928305  1.0000
  Fe  Fe64      1.0  0.22520780349521896  0.06568277649942322  0.15716716455192764  1.0000
  S   S126      1.0  0.16801741753860785  0.07538780280518775  0.14229439686818232  1.0000
  S   S127      1.0  0.31658802726845214  0.0425189361509255  0.1881554866733866  1.0000
  S   S128      1.0  0.27137203429271806  0.061135794156367496  0.11539447868288087  1.0000
  Fe  Fe65      1.0  0.4861564778451575  0.3883577006223059  0.1565132575382465  1.0000
  S   S129      1.0  0.5105640852960199  0.3931529865009054  0.21458994484199925  1.0000
  S   S130      1.0  0.5034197427379523  0.40268234129772595  0.10296812350314728  1.0000
  Fe  Fe66      1.0  0.4380417341182266  0.35703993966016284  0.18205269285438327  1.0000
  S   S131      1.0  0.4583304933749255  0.3585572075882544  0.24285005552477892  1.0000
  S   S132      1.0  0.3925927840008801  0.3380158804239991  0.16265641994074626  1.0000
  Fe  Fe67      1.0  0.45244028794556224  0.3888975770833144  0.2355075899462586  1.0000
  S   S133      1.0  0.42918940838624803  0.40581320664516946  0.2833930051157199  1.0000
  Fe  Fe68      1.0  0.5146406451611927  0.3625909845735479  0.21730198729883982  1.0000
  S   S134      1.0  0.566503256848691  0.35012220959680496  0.24210213787343188  1.0000
  S   S135      1.0  0.4273388413618822  0.3871860778426017  0.17682031357631872  1.0000
  S   S136      1.0  0.4952038255406139  0.3580372907444789  0.15720958994524795  1.0000
  Fe  Fe69      1.0  0.29588102677049605  0.3644017709035961  0.42238794566344434  1.0000
  S   S137      1.0  0.3363970874202059  0.380301339794472  0.45814866132270754  1.0000
  S   S138      1.0  0.2983513859075936  0.36174066415049333  0.35855730669594166  1.0000
  Fe  Fe70      1.0  0.2534042446896118  0.3508499184210798  0.49120980797170166  1.0000
  S   S139      1.0  0.29080396320202007  0.36516465038646867  0.5327254755900496  1.0000
  S   S140      1.0  0.20275263369647217  0.3359612502721508  0.5112363541570109  1.0000
  Fe  Fe71      1.0  0.2863724327577002  0.38859866134624355  0.4918216365592532  1.0000
  S   S141      1.0  0.26977090410929705  0.4159179051416673  0.5150392863820823  1.0000
  Fe  Fe72      1.0  0.3370090872197839  0.3553609293583353  0.4953273098283009  1.0000
  S   S142      1.0  0.3920789912515201  0.346043721546656  0.5191969000446756  1.0000
  S   S143      1.0  0.24565651152319634  0.3749744811451466  0.4526053333528786  1.0000
  S   S144      1.0  0.3000155712518365  0.3386927333701778  0.4573028899036594  1.0000
  Fe  Fe73      1.0  0.4403626053382944  0.23086296704669604  0.6959549795566081  1.0000
  S   S145      1.0  0.49142295333578023  0.24406826966988046  0.7199063709268348  1.0000
  S   S146      1.0  0.4178895053253305  0.20545971099092303  0.7231465867619553  1.0000
  Fe  Fe74      1.0  0.4306991487216036  0.2592386399184759  0.6335713252439652  1.0000
  S   S147      1.0  0.4812873573287917  0.2749834724028608  0.6515694600191018  1.0000
  S   S148      1.0  0.39221197479779796  0.26544255216287793  0.5842801800333316  1.0000
  Fe  Fe75      1.0  0.5082759743769335  0.24747781380422665  0.6588712347091363  1.0000
  S   S149      1.0  0.5661634860003395  0.24221484692054043  0.6373763758750521  1.0000
  Fe  Fe76      1.0  0.4602274126700006  0.27033516293699655  0.7108498438883909  1.0000
  S   S150      1.0  0.4633857391551958  0.29172038872418615  0.7566792140293609  1.0000
  S   S151      1.0  0.4597170186494374  0.232018671954046  0.635409280657514  1.0000
  S   S152      1.0  0.4072858539578937  0.2567195745830506  0.6925135642757223  1.0000
  Fe  Fe77      1.0  0.28959710022669677  0.27805078983091114  0.9552267600384299  1.0000
  S   S153      1.0  0.24825918316465714  0.28758627326748754  0.9113772264831981  1.0000
  S   S154      1.0  0.28574980846014325  0.2500746012084399  0.9811923219758878  1.0000
  Fe  Fe78      1.0  0.32872842315025  0.31448052454575576  0.9588465418222248  1.0000
  S   S155      1.0  0.2909467533589342  0.3274332105517011  0.9150295534575719  1.0000
  S   S156      1.0  0.37888576486543557  0.3286400969047679  0.9837175316569992  1.0000
  Fe  Fe79      1.0  0.24535370662326  0.3130951486986297  0.9465033202255932  1.0000
  S   S157      1.0  0.19060704758694869  0.3266891738227215  0.9588903458167091  1.0000
  Fe  Fe80      1.0  0.2970742940468961  0.3009021128184219  0.8835807735861975  1.0000
  S   S158      1.0  0.30080671947573134  0.2986342220626703  0.8197303765873062  1.0000
  S   S159      1.0  0.28252273911565345  0.30244575749556907  0.993125781930248  1.0000
  S   S160      1.0  0.338957768978479  0.28904497364703763  0.9244370104140693  1.0000
  Fe  Fe81      1.0  0.843649436837968  0.3859613218542317  0.19160476390865824  1.0000
  S   S161      1.0  0.7980504766981048  0.3943261260615705  0.23103451374560452  1.0000
  S   S162      1.0  0.8850438628212859  0.40625963708489155  0.17071026743967627  1.0000
  Fe  Fe82      1.0  0.8173896613062218  0.3469904739210526  0.1854166484026877  1.0000
  S   S163      1.0  0.7695683773462344  0.35157818705072125  0.22511135245034886  1.0000
  S   S164      1.0  0.8285867408882405  0.3192524797358994  0.15988063567045557  1.0000
  Fe  Fe83      1.0  0.7611215632922606  0.37783949291679847  0.19293376432709408  1.0000
  S   S165      1.0  0.7063514506561408  0.38824958921000313  0.17021195417412552  1.0000
  Fe  Fe84      1.0  0.8103658837919195  0.36763221288208425  0.2601927112640772  1.0000
  S   S166      1.0  0.809672608156228  0.3659892297576332  0.324313942296726  1.0000
  S   S167      1.0  0.8056323784148515  0.37200254246573694  0.15034365713986886  1.0000
  S   S168      1.0  0.8593604216672212  0.3605194821380935  0.22367448950025434  1.0000
  Fe  Fe85      1.0  0.025051981596782236  0.3937595014661734  0.519157407990625  1.0000
  S   S169      1.0  0.987687180343123  0.3860578557969158  0.5675794234312873  1.0000
  S   S170      1.0  0.08559465372824104  0.40002991075604166  0.5277610958434721  1.0000
  Fe  Fe86      1.0  0.9608089452374884  0.3971175785069242  0.4621550585991652  1.0000
  S   S171      1.0  0.9181467800890144  0.38989790129755236  0.5056046154499816  1.0000
  S   S172      1.0  0.9471818453799816  0.40493097854619475  0.4015585599644468  1.0000
  Fe  Fe87      1.0  0.9503585814629284  0.4081608821551071  0.5447675408342082  1.0000
  S   S173      1.0  0.9203301046173112  0.42901353459875025  0.57994825882817  1.0000
  Fe  Fe88      1.0  0.9592616531277606  0.3683924955933998  0.5239347689148595  1.0000
  S   S174      1.0  0.9447630683886914  0.3391053820302473  0.5363712017896362  1.0000
  S   S175      1.0  0.9897288497058414  0.41731939632353754  0.4996233001139607  1.0000
  S   S176      1.0  0.9999567744647555  0.37420243694728095  0.47712320539424424  1.0000
  Fe  Fe89      1.0  0.8070648890523952  0.3162370529959035  0.728762172458997  1.0000
  S   S177      1.0  0.8371805238068177  0.3051486309225331  0.6782668019091176  1.0000
  S   S178      1.0  0.8350125104992578  0.3354495681918831  0.7697401291241265  1.0000
  Fe  Fe90      1.0  0.7365335625529191  0.2945213299654248  0.7111087861697768  1.0000
  S   S179      1.0  0.760894891902749  0.2813759919940435  0.6590533004045646  1.0000
  S   S180      1.0  0.6802352816223773  0.2881573734415967  0.7354825511360231  1.0000
  Fe  Fe91      1.0  0.8124848193394963  0.27833167430655964  0.695081462265815  1.0000
  S   S181      1.0  0.8478883814198892  0.25340334005333065  0.7040034028992519  1.0000
  Fe  Fe92      1.0  0.7831579276167772  0.30951325780016903  0.6472759219188186  1.0000
  S   S182      1.0  0.781115318670582  0.3244844885411813  0.5914772743894109  1.0000
  S   S183      1.0  0.7863380172890592  0.2890835046700778  0.7482990776388768  1.0000
  S   S184      1.0  0.7546816472109914  0.32299560539491634  0.6966466595239702  1.0000
  Fe  Fe93      1.0  0.010000824035948153  0.27818589196934573  0.9710806143233799  1.0000
  S   S185      1.0  0.9570867293568301  0.2740135687095057  0.0034483369291531396  1.0000
  S   S186      1.0  0.06594642888279778  0.2688335952935343  0.9926280004935514  1.0000
  Fe  Fe94      1.0  0.9696259724326177  0.2903025100036176  0.8986334088407347  1.0000
  S   S187      1.0  0.9133169174280718  0.2869986566418117  0.9243927881036151  1.0000
  S   S188      1.0  0.9788848792634689  0.2972792789728076  0.8370648957031189  1.0000
  Fe  Fe95      1.0  0.9391522030920073  0.30042554244247216  0.9757233753404364  1.0000
  S   S189      1.0  0.9099356686148259  0.3246562304946477  0.001498080624297904  1.0000
  Fe  Fe96      1.0  0.9363112933323607  0.26102669136058465  0.949300407253176  1.0000
  S   S190      1.0  0.9060585388188147  0.23411382967808148  0.9482771765225027  1.0000
  S   S191      1.0  0.9941309294649154  0.30573039977983213  0.9476332012323722  1.0000
  S   S192      1.0  0.9906364343514517  0.26322047455633846  0.9191601503012925  1.0000
  Fe  Fe97      1.0  0.3121888407292797  0.504923069877871  0.43789357391617545  1.0000
  S   S193      1.0  0.2762881928308473  0.4944233888822299  0.39052076474428776  1.0000
  S   S194      1.0  0.3566057041893383  0.48491754610851057  0.45581881739000074  1.0000
  Fe  Fe98      1.0  0.27330013116499124  0.5419240476407177  0.4386939002831968  1.0000
  S   S195      1.0  0.23475417675711593  0.5343772627955561  0.3905100151866328  1.0000
  S   S196      1.0  0.2674219609049492  0.5703915165455238  0.4625204136242369  1.0000
  Fe  Fe99      1.0  0.22937772196940076  0.5077213708618814  0.4216556329130522  1.0000
  S   S197      1.0  0.17698068201589418  0.49243552991930256  0.4352863142239123  1.0000
  Fe  Fe100     1.0  0.28571178438850575  0.5218680471007834  0.3641216951196669  1.0000
  S   S198      1.0  0.299860193066677  0.5227092447354681  0.30152347187162565  1.0000
  S   S199      1.0  0.2644025475696796  0.5160675974400565  0.47179944521590883  1.0000
  S   S200      1.0  0.32474921135257384  0.5317104116492704  0.4097195173794347  1.0000
  Fe  Fe101     1.0  0.4670450868243914  0.500578847419556  0.12146736201853472  1.0000
  S   S201      1.0  0.5067692637827248  0.4884231695907535  0.1641372850719567  1.0000
  S   S202      1.0  0.4384534466400193  0.48219745167480554  0.07976410821942603  1.0000
  Fe  Fe102     1.0  0.4811892181073829  0.5394385501270637  0.1474828526502173  1.0000
  S   S203      1.0  0.5224072281009425  0.53064043680778  0.19207984354398652  1.0000
  S   S204      1.0  0.46872244410514313  0.5694101193218711  0.142549642839065  1.0000
  Fe  Fe103     1.0  0.5435226712555002  0.5115842839078482  0.1471180382286594  1.0000
  S   S205      1.0  0.6037747357201829  0.5080146469470106  0.1333363118250743  1.0000
  Fe  Fe104     1.0  0.48112584339451053  0.5085743614824789  0.20442949191395518  1.0000
  S   S206      1.0  0.46687342088615164  0.5024503390426048  0.2652542813454723  1.0000
  S   S207      1.0  0.5058863193933273  0.5223407407152698  0.10105755303605553  1.0000
  S   S208      1.0  0.43809162612617236  0.518894737514486  0.16308338322968483  1.0000
  Fe  Fe105     1.0  0.9996916339862282  0.5379750786904679  0.4716282249773516  1.0000
  S   S209      1.0  0.027961628209816736  0.5434718455876344  0.527454074371183  1.0000
  S   S210      1.0  0.030386476024200526  0.5393479113822858  0.41632383276717916  1.0000
  Fe  Fe106     1.0  0.925912643230006  0.5298414630459163  0.5085449010926768  1.0000
  S   S211      1.0  0.9472626493752689  0.5348060207489566  0.5679529987458227  1.0000
  S   S212      1.0  0.8708047030982716  0.5168087497757983  0.4967442532675266  1.0000
  Fe  Fe107     1.0  0.9758364657081592  0.5588690944229587  0.5415574598445488  1.0000
  S   S213      1.0  0.984697309811195  0.5854180184799606  0.5719964750580905  1.0000
  Fe  Fe108     1.0  0.9971548655840168  0.5191035616125927  0.5486868414273158  1.0000
  S   S214      1.0  0.02547898801058346  0.4976635775180335  0.5840306761179195  1.0000
  S   S215      1.0  0.9499122248752735  0.555509002851219  0.4835372614623968  1.0000
  S   S216      1.0  0.9736653189347955  0.512069285545947  0.4914236776709802  1.0000
  Fe  Fe109     1.0  0.7514518591418672  0.49207354460294633  0.26842444931568626  1.0000
  S   S217      1.0  0.7953334294402467  0.4838266604344055  0.2267828272640613  1.0000
  S   S218      1.0  0.6966574090458335  0.47787010294767845  0.2728769166038826  1.0000
  Fe  Fe110     1.0  0.7972914092659035  0.5227471271463361  0.30211035786344376  1.0000
  S   S219      1.0  0.845507744280328  0.5172873049288232  0.26366108201692123  1.0000
  S   S220      1.0  0.800736731255027  0.5461481504333948  0.34316718892032116  1.0000
  Fe  Fe111     1.0  0.8020094021707875  0.5140217783242491  0.21796770712619715  1.0000
  S   S221      1.0  0.8104979296107657  0.5268207954827434  0.16050221686004262  1.0000
  Fe  Fe112     1.0  0.8345726759334446  0.48783413289824173  0.27620898923908355  1.0000
  S   S222      1.0  0.8784382476980179  0.46797632055829386  0.29561145181268994  1.0000
  S   S223      1.0  0.7545533953584238  0.5220545048403274  0.25553103757076395  1.0000
  S   S224      1.0  0.7899101143927623  0.4934345778372809  0.3186619188771948  1.0000
  Fe  Fe113     1.0  0.34371726950404413  0.6515208833653338  0.9572597945690693  1.0000
  S   S225      1.0  0.38929573404229995  0.6538447136229328  0.9140637101846317  1.0000
  S   S226      1.0  0.302339075375357  0.6742812420286994  0.9650310637344949  1.0000
  Fe  Fe114     1.0  0.3670683475865472  0.613139942445351  0.9813826672584748  1.0000
  S   S227      1.0  0.41530010208479057  0.612528563738566  0.9415142355967132  1.0000
  S   S228      1.0  0.35386999551511694  0.5865693311981609  0.010335498852831693  1.0000
  Fe  Fe115     1.0  0.42473132917171863  0.6414363694077887  0.9604007744008728  1.0000
  S   S229      1.0  0.47979207757436426  0.6534243156055505  0.9773171855341364  1.0000
  Fe  Fe116     1.0  0.37522433551937856  0.6248432132319559  0.8994251500961179  1.0000
  S   S230      1.0  0.3685586609898244  0.6123236584926323  0.841235013185883  1.0000
  S   S231      1.0  0.37999827844153933  0.6409672395154381  0.004821612998904712  1.0000
  S   S232      1.0  0.3261670885471694  0.6237064538476529  0.9382397226071172  1.0000
  Fe  Fe117     1.0  0.17746204766635795  0.6355095852254934  0.6395156236617541  1.0000
  S   S233      1.0  0.145848255736301  0.6369633097993047  0.6941570531009116  1.0000
  S   S234      1.0  0.17713685772618198  0.6592408031781044  0.5988165440891702  1.0000
  Fe  Fe118     1.0  0.21122965865229118  0.5987298943472684  0.6591948261429262  1.0000
  S   S235      1.0  0.18287982884360166  0.597035224045551  0.7159629589684804  1.0000
  S   S236      1.0  0.24852615637015776  0.5756658276654609  0.6412438761291274  1.0000
  Fe  Fe119     1.0  0.13328607887918195  0.6074663870899333  0.6834780065039144  1.0000
  S   S237      1.0  0.07622390142920388  0.59589489142146  0.6907195592501341  1.0000
  Fe  Fe120     1.0  0.19814414234619523  0.6265947741576564  0.7212177153872221  1.0000
  S   S238      1.0  0.21641614684160093  0.6413070503073084  0.7738951704722109  1.0000
  S   S239      1.0  0.16025348688907473  0.6067856932273294  0.6259465915439354  1.0000
  S   S240      1.0  0.23131991039749475  0.6274458480722728  0.6675293535508385  1.0000
  Fe  Fe121     1.0  0.6840867366513721  0.5906212218674594  0.056109804092819404  1.0000
  S   S241      1.0  0.695954647229289  0.5831936846933264  0.9953743929416946  1.0000
  S   S242      1.0  0.6687323145775201  0.5686989803540652  0.09808945106397271  1.0000
  Fe  Fe122     1.0  0.6895899873917712  0.6312610162250961  0.04107389261852168  1.0000
  S   S243      1.0  0.7020652214925562  0.6273829087625628  0.9792105976470659  1.0000
  S   S244      1.0  0.6814253370617853  0.6590776930024334  0.06661422725582877  1.0000
  Fe  Fe123     1.0  0.6576254065451559  0.6063095336768578  0.9804729317036787  1.0000
  S   S245      1.0  0.616488430982258  0.604267429907825  0.9323208728799065  1.0000
  Fe  Fe124     1.0  0.7396102582914051  0.6048504660190737  0.9995258956341846  1.0000
  S   S246      1.0  0.793846424440455  0.5999879351753898  0.97015352382715  1.0000
  S   S247      1.0  0.6415434576615928  0.6119028442171582  0.040954939769843435  1.0000
  S   S248      1.0  0.7312535648925954  0.6104980125765366  0.0618943290864562  1.0000
  Fe  Fe125     1.0  0.8908435091031598  0.6713613681940745  0.7308440646271429  1.0000
  S   S249      1.0  0.8995681732075973  0.6716132620279314  0.7941069255634363  1.0000
  S   S250      1.0  0.8992341048083599  0.6971698098061389  0.6973236141245862  1.0000
  Fe  Fe126     1.0  0.876617524828958  0.6304621824833906  0.7285706146406191  1.0000
  S   S251      1.0  0.8837673227501355  0.6272103026521451  0.7919018267931276  1.0000
  S   S252      1.0  0.8618560004836908  0.6060847658715522  0.6923415190486859  1.0000
  Fe  Fe127     1.0  0.8501467574725786  0.6530699328327217  0.7956207536329809  1.0000
  S   S253      1.0  0.8073899192744816  0.6592682355290794  0.8403996818601198  1.0000
  Fe  Fe128     1.0  0.9321255532178581  0.6459430474859893  0.7846939399685137  1.0000
  S   S254      1.0  0.987209579083676  0.6410447693784599  0.8130831298004902  1.0000
  S   S255      1.0  0.838464073819557  0.6548193963210612  0.7327000173450418  1.0000
  S   S256      1.0  0.927955264652772  0.6473039357713773  0.7210476934678421  1.0000
  C   C1        1.0  0.7984900466358936  0.6164525445342632  0.9343232735470599  1.0000
  C   C2        1.0  0.8109445830347205  0.6113308210078765  0.8981059198776029  1.0000
  C   C3        1.0  0.8136154616643778  0.6244356471865996  0.8689966334240383  1.0000
  C   C4        1.0  0.8043192427468853  0.6426867417644001  0.8762656072403713  1.0000
  C   C5        1.0  0.7921951926465297  0.6478320538340843  0.9125928693371133  1.0000
  C   C6        1.0  0.7893782025268445  0.6347310715463538  0.9416415775821476  1.0000
  H   H1        1.0  0.8176961181906723  0.5971589089184021  0.8923356321982122  1.0000
  H   H2        1.0  0.8219441284075779  0.6203068351084419  0.8407142204625259  1.0000
  H   H3        1.0  0.785103906114983  0.6619679270053547  0.9183297752964589  1.0000
  H   H4        1.0  0.7804234871255712  0.6387906151024764  0.9698257323420175  1.0000
  C   C7        1.0  0.012689528366502278  0.62726090613831  0.7817922255423997  1.0000
  C   C8        1.0  0.9939401655976653  0.6156873066777001  0.7564981303201305  1.0000
  C   C9        1.0  0.013817393259481614  0.6056609913496362  0.7293583385982616  1.0000
  C   C10       1.0  0.052401883697385625  0.6073447559364314  0.7270777246129868  1.0000
  C   C11       1.0  0.07135083710194623  0.6184609034018914  0.7531754031420094  1.0000
  C   C12       1.0  0.05148158393775648  0.628372800080771  0.7806882804718289  1.0000
  H   H5        1.0  0.9640337086500294  0.6144696757096293  0.7577852045315147  1.0000
  H   H6        1.0  0.9991878852421651  0.59687827392351  0.7096744881249659  1.0000
  H   H7        1.0  0.10129279165150559  0.6194051793737992  0.7522945303075188  1.0000
  H   H8        1.0  0.06609063740167698  0.6372210642073178  0.8004068261416919  1.0000
  C   C13       1.0  0.518339836833019  0.6409619070693795  0.9613486844620662  1.0000
  C   C14       1.0  0.5531109227060531  0.6440458121188447  0.9782327642717686  1.0000
  C   C15       1.0  0.5837904706125449  0.6333207373352672  0.9679648657097483  1.0000
  C   C16       1.0  0.5797737523048182  0.6195137164787362  0.940684447379318  1.0000
  C   C17       1.0  0.5454716467220079  0.6169831549315744  0.9224006921651449  1.0000
  C   C18       1.0  0.5146712177429617  0.6276674945080455  0.932873848235259  1.0000
  H   H9        1.0  0.556115413783794  0.6544623913092007  0.999971051887012  1.0000
  H   H10       1.0  0.6103610484476536  0.6356117845185908  0.9816911997841401  1.0000
  H   H11       1.0  0.5423363039941195  0.6063739868388563  0.9011217847246663  1.0000
  H   H12       1.0  0.48809755329544885  0.6255781525729732  0.9190428850477195  1.0000
  C   C19       1.0  0.3274733211521533  0.6209592722488052  0.820847979855965  1.0000
  C   C20       1.0  0.31161295979409237  0.612397437671387  0.788938990690247  1.0000
  C   C21       1.0  0.2773986660309867  0.6186130566944209  0.7741943098698992  1.0000
  C   C22       1.0  0.2592440315012228  0.6334132665912995  0.791383473882111  1.0000
  C   C23       1.0  0.2752865424488371  0.6420180695619669  0.823036071855436  1.0000
  C   C24       1.0  0.3093571869486941  0.6358017699166714  0.8377495875286539  1.0000
  H   H13       1.0  0.3253395219716002  0.6007215032837907  0.7763161813314903  1.0000
  H   H14       1.0  0.2647410367961415  0.6118184062455478  0.750005609929375  1.0000
  H   H15       1.0  0.2612871960159124  0.6534497922648193  0.8364168783187629  1.0000
  H   H16       1.0  0.3215322466649274  0.6425639747301456  0.8622274338445356  1.0000
  C   C25       1.0  0.7712255125491689  0.5388534835610465  0.1443187849488161  1.0000
  C   C26       1.0  0.7357704119261417  0.5340968305506336  0.15690508980524515  1.0000
  C   C27       1.0  0.7043625757709021  0.5433040402015799  0.14253714588511168  1.0000
  C   C28       1.0  0.7083780969090196  0.5575662045545241  0.11625886320212064  1.0000
  C   C29       1.0  0.7437913868338115  0.5622005247638087  0.10335888608923272  1.0000
  C   C30       1.0  0.7751595921623949  0.5527681612059823  0.11719516797610062  1.0000
  H   H17       1.0  0.7325441192041006  0.5228565117209303  0.17655156866116611  1.0000
  H   H18       1.0  0.6768985243612561  0.5391256496685409  0.1511173663419414  1.0000
  H   H19       1.0  0.7471335648471777  0.5728818289913973  0.08236906238518293  1.0000
  H   H20       1.0  0.8025421103856782  0.5563217033270992  0.10703623555671277  1.0000
  C   C31       1.0  0.9506765498174342  0.589967913049797  0.6062025600799205  1.0000
  C   C32       1.0  0.9598321729785799  0.6009468141048414  0.6374396745518996  1.0000
  C   C33       1.0  0.932820598346415  0.6055359502862168  0.6643838249716657  1.0000
  C   C34       1.0  0.896434308957255  0.5992851564501018  0.6601094176204332  1.0000
  C   C35       1.0  0.8875930955042759  0.5876230675338628  0.629655304267334  1.0000
  C   C36       1.0  0.9147541156317565  0.5829211993034806  0.6026868516989565  1.0000
  H   H21       1.0  0.9879903039286004  0.6057722907055859  0.6409506463538837  1.0000
  H   H22       1.0  0.9402617858983455  0.6137484387715709  0.688661508681957  1.0000
  H   H23       1.0  0.8595027633911391  0.5825945434645331  0.6264075843613062  1.0000
  H   H24       1.0  0.9075544101569792  0.5743275562072719  0.5786377142936019  1.0000
  C   C37       1.0  0.8487241796967654  0.525826529882163  0.4561877477578869  1.0000
  C   C38       1.0  0.8238403032137858  0.5149110801856356  0.4356739032036443  1.0000
  C   C39       1.0  0.8081077497779102  0.5213665592863617  0.40150231710612627  1.0000
  C   C40       1.0  0.8170235518516558  0.5387708666506547  0.38790010723587504  1.0000
  C   C41       1.0  0.8408427343169889  0.5499595004801714  0.4091637872422033  1.0000
  C   C42       1.0  0.8568530568806714  0.5434440589400331  0.4432117396539435  1.0000
  H   H25       1.0  0.8169204043889707  0.5014199822693122  0.44605199062028156  1.0000
  H   H26       1.0  0.7884156485983839  0.5130372163028399  0.38618659054286175  1.0000
  H   H27       1.0  0.8474068307391232  0.5635390395943848  0.3989903498563914  1.0000
  H   H28       1.0  0.8750284318917453  0.5521544882752347  0.459618304805066  1.0000
  C   C43       1.0  0.43585721451461573  0.5740812079607118  0.1066925354593619  1.0000
  C   C44       1.0  0.4171256335253944  0.5598386746087884  0.08831961605767571  1.0000
  C   C45       1.0  0.3913714855884852  0.5637716885868003  0.05916681123961354  1.0000
  C   C46       1.0  0.3852191773613359  0.5818814774487839  0.04759383608547818  1.0000
  C   C47       1.0  0.4043651728550206  0.5960806489427147  0.06565585257207984  1.0000
  C   C48       1.0  0.4292293025188539  0.5922010366403646  0.09560984092631172  1.0000
  H   H29       1.0  0.42244397233669473  0.5457820507888528  0.0964443299096292  1.0000
  H   H30       1.0  0.3767117361442989  0.5527519165405295  0.04510139510199207  1.0000
  H   H31       1.0  0.3995931552395048  0.6100867591055906  0.05691698862345174  1.0000
  H   H32       1.0  0.4436638320218855  0.603257255321791  0.10978717361000458  1.0000
  C   C49       1.0  0.6286636134425418  0.49850268336768283  0.17152973862289206  1.0000
  C   C50       1.0  0.6105534829958864  0.4928650245323895  0.20474691295372133  1.0000
  C   C51       1.0  0.6313287429175102  0.48587143039329844  0.23563140668677027  1.0000
  C   C52       1.0  0.670146893070251  0.4849464591603086  0.233477135846343  1.0000
  C   C53       1.0  0.6880443335298267  0.49049027237743037  0.2001669180434225  1.0000
  C   C54       1.0  0.6673065202079199  0.49707625855532855  0.16908998044788742  1.0000
  H   H33       1.0  0.5806600149310941  0.4940722767544646  0.20684667419689293  1.0000
  H   H34       1.0  0.6174659046755403  0.481730994565365  0.261549886166639  1.0000
  H   H35       1.0  0.7179918202599128  0.489754779935633  0.19833012351520335  1.0000
  H   H36       1.0  0.6813840287474732  0.5014711067248938  0.1435175431303146  1.0000
  C   C55       1.0  0.2637097610273867  0.5719164688614309  0.5123119774750883  1.0000
  C   C56       1.0  0.27419775697038823  0.5573039206584077  0.5358880765237145  1.0000
  C   C57       1.0  0.2697123380892703  0.5585907064221121  0.5755539754352396  1.0000
  C   C58       1.0  0.25419348247544915  0.5743692036514056  0.5916456903211175  1.0000
  C   C59       1.0  0.24390745782050482  0.589043952143921  0.5681164612524683  1.0000
  C   C60       1.0  0.24913301520001518  0.5878949236249874  0.5285415514882881  1.0000
  H   H37       1.0  0.28622453091984945  0.5450986023597029  0.5236457399064272  1.0000
  H   H38       1.0  0.2779350257970733  0.5472545992086385  0.593705875141522  1.0000
  H   H39       1.0  0.23205952459815612  0.601321524379582  0.5803265990151926  1.0000
  H   H40       1.0  0.24114289113274304  0.5992621446938419  0.5103570336438797  1.0000
  C   C61       1.0  0.1358274355074966  0.5048964469151206  0.42790040124399  1.0000
  C   C62       1.0  0.10532287856071293  0.5014563748812595  0.4513280588275976  1.0000
  C   C63       1.0  0.07285697395157409  0.5119721868450151  0.4476065625301446  1.0000
  C   C64       1.0  0.07024680029774655  0.5255171927779677  0.41948809812647436  1.0000
  C   C65       1.0  0.10034663461244886  0.5286198966260965  0.3952383705656284  1.0000
  C   C66       1.0  0.1333364503865921  0.5184596541677953  0.3997621310216996  1.0000
  H   H41       1.0  0.1071765601786039  0.49106198093751807  0.47329031200467614  1.0000
  H   H42       1.0  0.04996218211950598  0.5095742888164966  0.46666757828535993  1.0000
  H   H43       1.0  0.09850126925473468  0.5391469207833082  0.37354672646070974  1.0000
  H   H44       1.0  0.15666281688391828  0.5209871464394455  0.3812348921238296  1.0000
  C   C67       1.0  0.3460749674615141  0.5164220127765465  0.29205253769725753  1.0000
  C   C68       1.0  0.3737342705881545  0.5180412689813354  0.32007119382022664  1.0000
  C   C69       1.0  0.41074408822076586  0.5136600202939928  0.3117132738620825  1.0000
  C   C70       1.0  0.4203430867195037  0.5077046902763586  0.275173162892498  1.0000
  C   C71       1.0  0.39261051957128645  0.5056873360587862  0.2472702974536161  1.0000
  C   C72       1.0  0.35558129406904093  0.510181469295364  0.255618801886584  1.0000
  H   H45       1.0  0.3669052947174122  0.5229346625727855  0.34808671740102265  1.0000
  H   H46       1.0  0.43201198352991077  0.5150853897397932  0.33352961260897046  1.0000
  H   H47       1.0  0.3994340736081045  0.5001428625073523  0.21963985277069253  1.0000
  H   H48       1.0  0.33418919106542866  0.5085923089475531  0.23399454351294569  1.0000
  C   C73       1.0  0.8766848145003313  0.326144104973903  0.7877911150080039  1.0000
  C   C74       1.0  0.8864695829163038  0.3287491521721524  0.8261814487904253  1.0000
  C   C75       1.0  0.9185478397684204  0.3203564475271686  0.8413660528427779  1.0000
  C   C76       1.0  0.9414529270802762  0.3098112227522303  0.8178254560743299  1.0000
  C   C77       1.0  0.9327014706093582  0.30802603558989083  0.7790158353403029  1.0000
  C   C78       1.0  0.8999372032758708  0.3158146558851633  0.7642339435607893  1.0000
  H   H49       1.0  0.8686144872502205  0.3367773492063958  0.8445037617605937  1.0000
  H   H50       1.0  0.9252489953781152  0.32188370255541815  0.8713727120490855  1.0000
  H   H51       1.0  0.9504323166276187  0.2999579620686627  0.7606559698843632  1.0000
  H   H52       1.0  0.8928008494290895  0.3138173923588385  0.7345861238153706  1.0000
  C   C79       1.0  0.8258625196604259  0.32781182943643644  0.573536151597042  1.0000
  C   C80       1.0  0.8538587896004224  0.31478735946566  0.5797840557888213  1.0000
  C   C81       1.0  0.8901566115342641  0.3181617273911368  0.5673313480059732  1.0000
  C   C82       1.0  0.8987082012401217  0.33476306075391504  0.549566661193191  1.0000
  C   C83       1.0  0.8705322830317856  0.3476319180385396  0.5427899583025726  1.0000
  C   C84       1.0  0.8340786154121828  0.3440814700446962  0.5543893245682545  1.0000
  H   H53       1.0  0.8474758546318755  0.30203359419275727  0.5939224756932835  1.0000
  H   H54       1.0  0.9117768952492868  0.3080614002269339  0.5722934209615912  1.0000
  H   H55       1.0  0.8766008074352781  0.36030332398686893  0.5285938795033712  1.0000
  H   H56       1.0  0.8123793443215611  0.3541315732993902  0.549370446622294  1.0000
  C   C85       1.0  0.9497099193676561  0.4478610035888317  0.5864761940720826  1.0000
  C   C86       1.0  0.9345027479971587  0.4654690974349334  0.5893732480202661  1.0000
  C   C87       1.0  0.9577723625900757  0.4808117205476092  0.5887410660224517  1.0000
  C   C88       1.0  0.9963797313284023  0.47853444840225134  0.5868118231487475  1.0000
  C   C89       1.0  0.011643863896235507  0.460907050830498  0.5855462744037884  1.0000
  C   C90       1.0  0.9883105911099289  0.4455931920171683  0.5847417196740015  1.0000
  H   H57       1.0  0.9046804732795328  0.46729378264369914  0.5907163848335778  1.0000
  H   H58       1.0  0.9458026609780331  0.4943916111872147  0.5898175732559645  1.0000
  H   H59       1.0  0.041468933916974926  0.45908809103285886  0.5839072279780887  1.0000
  H   H60       1.0  0.00027030922849768935  0.43202732135924793  0.5824794058969128  1.0000
  C   C91       1.0  0.8478402167147417  0.3196206125448738  0.11389100597000547  1.0000
  C   C92       1.0  0.8703430020269427  0.30507914347342024  0.10163263887606488  1.0000
  C   C93       1.0  0.8884769707753571  0.3060243168098935  0.06623438219522337  1.0000
  C   C94       1.0  0.8838422242498848  0.3214833498107891  0.043048612466127345  1.0000
  C   C95       1.0  0.8599136860463794  0.3355458452521288  0.05454374551759633  1.0000
  C   C96       1.0  0.8420067810652114  0.33462787365520896  0.08983834707323483  1.0000
  H   H61       1.0  0.8747217895273627  0.2933405851341615  0.12001097512206171  1.0000
  H   H62       1.0  0.9068666065888723  0.2950910479459436  0.05750277673104209  1.0000
  H   H63       1.0  0.855719602684234  0.3473525079473152  0.03629992794879344  1.0000
  H   H64       1.0  0.823657560490694  0.34553460117989765  0.09820575584344698  1.0000
  C   C97       1.0  0.9078141213707893  0.3948553622273112  0.38069228328280447  1.0000
  C   C98       1.0  0.8796489764224448  0.3873796102171051  0.4030852069076593  1.0000
  C   C99       1.0  0.8491962294991262  0.3787454828088251  0.38561019250608813  1.0000
  C   C100      1.0  0.847016570942731  0.37745929463358446  0.3457767535866441  1.0000
  C   C101      1.0  0.8746842481385887  0.3852991516523104  0.32340956710643615  1.0000
  C   C102      1.0  0.9049997442884118  0.39401287802773344  0.3408459872020773  1.0000
  H   H65       1.0  0.881221979807447  0.38823759776542377  0.43377481503998755  1.0000
  H   H66       1.0  0.8274472679920574  0.372928305594118  0.40294986066531957  1.0000
  H   H67       1.0  0.8729386006528502  0.3844549168973298  0.292666965263169  1.0000
  H   H68       1.0  0.9267308682149412  0.3997919023322099  0.3234181775826962  1.0000
  C   C103      1.0  0.8872692756285754  0.4237975261467761  0.2046629908105012  1.0000
  C   C104      1.0  0.895576531721048  0.41968212477372496  0.24280782513133797  1.0000
  C   C105      1.0  0.8949861093103219  0.4335423114194299  0.2704741404498698  1.0000
  C   C106      1.0  0.884835486082179  0.4513851699079687  0.2601647830193734  1.0000
  C   C107      1.0  0.8771528692070908  0.45555305704172394  0.2219139832921906  1.0000
  C   C108      1.0  0.8787447059400003  0.4417980682360578  0.1940976497791711  1.0000
  H   H69       1.0  0.9026349585569726  0.40581780448974547  0.2508814854817584  1.0000
  H   H70       1.0  0.9012972038345106  0.4303285668244012  0.2999784256125329  1.0000
  H   H71       1.0  0.8700843895127426  0.46939895003872095  0.21366499005930759  1.0000
  H   H72       1.0  0.872332969038141  0.4450174901483815  0.16459904873008163  1.0000
  C   C109      1.0  0.10097554263816177  0.28525350196797594  0.9877880463995791  1.0000
  C   C110      1.0  0.13803885971825713  0.2795535146858165  0.9846939562108192  1.0000
  C   C111      1.0  0.16601411565088747  0.29235171776335206  0.9773643900761358  1.0000
  C   C112      1.0  0.15700525151976075  0.3108947492053905  0.9734259028448838  1.0000
  C   C113      1.0  0.12014452197189517  0.3166764334942497  0.9780325063102899  1.0000
  C   C114      1.0  0.09212110240695459  0.30385853918042655  0.9850683325541952  1.0000
  H   H73       1.0  0.14510929568866704  0.26519604724351353  0.9870388731766109  1.0000
  H   H74       1.0  0.19447846738338498  0.28781591135350204  0.9743655702974774  1.0000
  H   H75       1.0  0.11318992644227711  0.33104314586630107  0.9753819085087964  1.0000
  H   H76       1.0  0.0637427555907486  0.30839263762818914  0.9885154983542386  1.0000
  C   C115      1.0  0.5986105739049411  0.2546460701555615  0.6643664982124013  1.0000
  C   C116      1.0  0.5931549501878278  0.25720205936313556  0.7034483627489304  1.0000
  C   C117      1.0  0.6190595518668083  0.2670435456599547  0.7251156178376814  1.0000
  C   C118      1.0  0.6502050794086475  0.2747277247586368  0.707738391210361  1.0000
  C   C119      1.0  0.6558682045730135  0.27214328983986913  0.6686200019395626  1.0000
  C   C120      1.0  0.6302383012886439  0.26193920488214134  0.6470119426790041  1.0000
  H   H77       1.0  0.5693106660950251  0.2513147690418396  0.7172292459999899  1.0000
  H   H78       1.0  0.6148722402528222  0.2687615319145524  0.7554781537751574  1.0000
  H   H79       1.0  0.679473916003044  0.2783240609551018  0.6548407865458633  1.0000
  H   H80       1.0  0.6344342138044353  0.2600995749524501  0.6166826892001542  1.0000
  C   C121      1.0  0.41855939662183245  0.2966324524047391  0.7732071855432228  1.0000
  C   C122      1.0  0.4129520573216551  0.3006824087737694  0.8118043170507943  1.0000
  C   C123      1.0  0.37670366368922686  0.30210090900288045  0.8261419223201892  1.0000
  C   C124      1.0  0.3461361282063431  0.29947654395221945  0.8018397773620388  1.0000
  C   C125      1.0  0.35183131502733656  0.2962101664888393  0.762970887376958  1.0000
  C   C126      1.0  0.3879833952492421  0.2948887251118437  0.7486482685108681  1.0000
  H   H81       1.0  0.4365485000889757  0.3021461038645518  0.8308780680511444  1.0000
  H   H82       1.0  0.3724655086892654  0.3049559415631853  0.8560560150108528  1.0000
  H   H83       1.0  0.32824013999572144  0.29439159371663515  0.7440363675442725  1.0000
  H   H84       1.0  0.3921633315070871  0.292477196668849  0.7185722795263124  1.0000
  C   C127      1.0  0.16910519001681953  0.3530143771371419  0.5193047935976021  1.0000
  C   C128      1.0  0.18064498001109494  0.37068752675638506  0.5285998848625546  1.0000
  C   C129      1.0  0.15452589156045238  0.3847638243708316  0.532662067161339  1.0000
  C   C130      1.0  0.11669704805534487  0.3814228630141073  0.526608040489442  1.0000
  C   C131      1.0  0.10482014291102981  0.3636392154551669  0.5182929980045979  1.0000
  C   C132      1.0  0.13107291874014754  0.3493754165993342  0.5149457162168786  1.0000
  H   H85       1.0  0.20981014638409354  0.373617119467766  0.5325737870837618  1.0000
  H   H86       1.0  0.1638553303311372  0.3983378863062292  0.5399888444523718  1.0000
  H   H87       1.0  0.07559296014692563  0.3609394281393934  0.5138575667942061  1.0000
  H   H88       1.0  0.122034209676546  0.33571523265259434  0.5077314253772448  1.0000
  C   C133      1.0  0.39267914191598413  0.3235311027487014  0.5364664707535673  1.0000
  C   C134      1.0  0.41593620526243885  0.31896689079888924  0.5673067549965506  1.0000
  C   C135      1.0  0.4160702065873457  0.30113462878988523  0.5821777597277127  1.0000
  C   C136      1.0  0.3936185488773991  0.287711384670622  0.5656185980522517  1.0000
  C   C137      1.0  0.37096875965327103  0.29219884829291265  0.5342306779031902  1.0000
  C   C138      1.0  0.3701807657172887  0.3101337370805721  0.5198985744695319  1.0000
  H   H89       1.0  0.4333631919882481  0.32932386935566077  0.5801696093490744  1.0000
  H   H90       1.0  0.4333423030420617  0.29784779428587504  0.6065446509861616  1.0000
  H   H91       1.0  0.35386319913668934  0.28177785707127473  0.5211148972096401  1.0000
  H   H92       1.0  0.3526031991911215  0.31347864325053515  0.49572566530647244  1.0000
  C   C139      1.0  0.33427295853425365  0.46563109307403383  0.4743627155848623  1.0000
  C   C140      1.0  0.35021179627056176  0.4481922268277004  0.4708017152425576  1.0000
  C   C141      1.0  0.3306761322686484  0.4326930546336734  0.4831631876808928  1.0000
  C   C142      1.0  0.2958226595685085  0.4347715334146789  0.5001885823672901  1.0000
  C   C143      1.0  0.28073202310520184  0.4522603612941246  0.5050530289112183  1.0000
  C   C144      1.0  0.299586265463216  0.4676001465182549  0.49155123453269634  1.0000
  H   H93       1.0  0.3773557575189396  0.4466662305758485  0.4581841790050511  1.0000
  H   H94       1.0  0.3427364758326355  0.4192320747401084  0.48002756406684405  1.0000
  H   H95       1.0  0.2541104957703918  0.45395767673624604  0.518792050653267  1.0000
  H   H96       1.0  0.28747225191640463  0.4809904729793163  0.4950887751310917  1.0000
  C   C145      1.0  0.6053214135889824  0.3608964661019297  0.22258408596965526  1.0000
  C   C146      1.0  0.6397541986131337  0.3599364270060053  0.24140581472728279  1.0000
  C   C147      1.0  0.670893179015789  0.36858928544866487  0.2258063805715767  1.0000
  C   C148      1.0  0.6677315140154613  0.37784536374531963  0.1909760177534229  1.0000
  C   C149      1.0  0.633380031131355  0.37869025020456965  0.17204923054597288  1.0000
  C   C150      1.0  0.6021091588839389  0.37039099445331464  0.18800441335489168  1.0000
  H   H97       1.0  0.642183877739753  0.35271691070832106  0.2683243038483986  1.0000
  H   H98       1.0  0.697173911445387  0.36818900673551397  0.2409269716873066  1.0000
  H   H99       1.0  0.6310137584097181  0.38560510908212325  0.14483056344341722  1.0000
  H   H100      1.0  0.5756452322939419  0.3710413540323716  0.17319564726918096  1.0000
  C   C151      1.0  0.38904859153247506  0.33502726345422074  0.11306969089419695  1.0000
  C   C152      1.0  0.3549791800392114  0.3298743981332495  0.09676333936263773  1.0000
  C   C153      1.0  0.35144463863786746  0.32792133729511186  0.05700386955153092  1.0000
  C   C154      1.0  0.38219306215720833  0.3307289146322582  0.033552171823007404  1.0000
  C   C155      1.0  0.4163396357928771  0.33557645891145205  0.049956286713096716  1.0000
  C   C156      1.0  0.4196932262036734  0.33789547297615485  0.08956920501558331  1.0000
  H   H101      1.0  0.331088607422319  0.3278211642469594  0.11486084233946697  1.0000
  H   H102      1.0  0.3247811811618586  0.324650264093745  0.04454488711927551  1.0000
  H   H103      1.0  0.4402771225090256  0.33763400407021954  0.03193189010707354  1.0000
  H   H104      1.0  0.44613783975181537  0.34166088949328305  0.10190440819604499  1.0000
  C   C157      1.0  0.3917086353021141  0.3940823024399025  0.3034607011323045  1.0000
  C   C158      1.0  0.37941117290728693  0.39869486172798224  0.34002823076301947  1.0000
  C   C159      1.0  0.349740686228583  0.3892730051748259  0.35643851437804386  1.0000
  C   C160      1.0  0.33292277642500673  0.3748524736432969  0.33682617089664485  1.0000
  C   C161      1.0  0.34495695389496256  0.37032319171312306  0.30010283756635914  1.0000
  C   C162      1.0  0.37429911377296377  0.37994822783311016  0.28338976332232  1.0000
  H   H105      1.0  0.3929889215778777  0.40939387985964637  0.355915713569528  1.0000
  H   H106      1.0  0.33973029288942297  0.3932704496649182  0.38412241108564793  1.0000
  H   H107      1.0  0.3318502122574643  0.3592289263039358  0.28470355620244153  1.0000
  H   H108      1.0  0.3833188411661381  0.3764058803249363  0.25494679338187914  1.0000
  C   C163      1.0  0.4846405181471639  0.4246369958158966  0.0973541891081105  1.0000
  C   C164      1.0  0.47054771606336054  0.4343084209430215  0.12854483286707447  1.0000
  C   C165      1.0  0.4562162301029383  0.4520525068271392  0.12326286634454453  1.0000
  C   C166      1.0  0.4551731766607423  0.4598755813186465  0.08669907384718768  1.0000
  C   C167      1.0  0.468503184158254  0.4499716353493977  0.05550837016633259  1.0000
  C   C168      1.0  0.48378778648996473  0.43249882912324  0.06093254978625584  1.0000
  H   H109      1.0  0.4710685763424035  0.4282366136207763  0.15674485863956142  1.0000
  H   H110      1.0  0.4456091127442084  0.45964245161536593  0.14738800056354406  1.0000
  H   H111      1.0  0.467897491682517  0.45603241448194387  0.027299289659842296  1.0000
  H   H112      1.0  0.4947768135534126  0.4250419147708883  0.03680939215343271  1.0000
  C   C169      1.0  0.3282345015233636  0.9887898788110491  0.30391863908417077  1.0000
  C   C170      1.0  0.31977398504155  0.00019610293780858434  0.3346923392794172  1.0000
  C   C171      1.0  0.29712460718902817  0.015604274435185195  0.32917146439708683  1.0000
  C   C172      1.0  0.2840035149537981  0.01995912307343084  0.29261343819811536  1.0000
  C   C173      1.0  0.29152021191813643  0.00828246971967772  0.26196412982727646  1.0000
  C   C174      1.0  0.31323244769205466  0.9925267294064695  0.2677519693283481  1.0000
  H   H113      1.0  0.33082634099682146  0.9972368264133462  0.36277098779048117  1.0000
  H   H114      1.0  0.2911836421537226  0.024578913542369296  0.35294255988435363  1.0000
  H   H115      1.0  0.2814574119093249  0.011600865595723153  0.23360679146206562  1.0000
  H   H116      1.0  0.3198255441597975  0.9837344867595127  0.24386057280717924  1.0000
  C   C175      1.0  0.09693549971674287  0.0521339527766056  0.23778636193481167  1.0000
  C   C176      1.0  0.13242336981573932  0.058870004063471315  0.2459519331200742  1.0000
  C   C177      1.0  0.15407493494345337  0.06629118994297967  0.21668551416200457  1.0000
  C   C178      1.0  0.13980405865579937  0.06755520059665732  0.1794697278999168  1.0000
  C   C179      1.0  0.10379885241104073  0.061422140660708946  0.17166949072807572  1.0000
  C   C180      1.0  0.08262825316202616  0.05351807476378867  0.2006407987164395  1.0000
  H   H117      1.0  0.14346487518228446  0.05812021454140326  0.274731234221835  1.0000
  H   H118      1.0  0.18176530929543083  0.07113157453861674  0.22303868548769806  1.0000
  H   H119      1.0  0.09255690891247867  0.0621422675965253  0.14312354599274596  1.0000
  H   H120      1.0  0.05540846305058089  0.048305682828721386  0.19392630797118218  1.0000
  C   C181      1.0  0.6016280772724037  0.03762090900096626  0.3582732195456111  1.0000
  C   C182      1.0  0.622820189874398  0.022063431142354206  0.34976675243925454  1.0000
  C   C183      1.0  0.6051980681610313  0.005636693122215819  0.3398931948461145  1.0000
  C   C184      1.0  0.5663636154585171  0.004704522092422891  0.3391184576141582  1.0000
  C   C185      1.0  0.5452178850270731  0.020383953634992125  0.34674290703983407  1.0000
  C   C186      1.0  0.5628492846901075  0.036898754317352234  0.35563372150993794  1.0000
  H   H121      1.0  0.6528073749450914  0.022718963823265437  0.35056068900650883  1.0000
  H   H122      1.0  0.621615470617212  0.9935881300334217  0.3336221169086688  1.0000
  H   H123      1.0  0.5152354518657034  0.019822998284347637  0.34577136780769957  1.0000
  H   H124      1.0  0.5463657276583498  0.04896748332054801  0.3615648772418379  1.0000
  C   C187      1.0  0.8127574445119199  0.01754976585337209  0.3503171454207867  1.0000
  C   C188      1.0  0.8470931312582272  0.009795547343221633  0.3404785079175476  1.0000
  C   C189      1.0  0.8683366065329177  0.017518218552212694  0.3111258006872964  1.0000
  C   C190      1.0  0.8551251098218119  0.03296507771863921  0.29159422846094574  1.0000
  C   C191      1.0  0.8202407619356936  0.04027310802654438  0.3005492767644742  1.0000
  C   C192      1.0  0.7989721074609352  0.03248885200911289  0.32963741510543626  1.0000
  H   H125      1.0  0.8577190071679212  0.9981066007022816  0.35616614685403075  1.0000
  H   H126      1.0  0.8951191394649496  0.011713164309564705  0.3040579282769339  1.0000
  H   H127      1.0  0.8097046727156386  0.05206521871122294  0.2851180147061181  1.0000
  H   H128      1.0  0.7719615846612001  0.038118799063792785  0.3360730154033969  1.0000
  C   C193      1.0  0.3980159974716887  0.16449758692557837  0.6273661135909808  1.0000
  C   C194      1.0  0.4054565879940824  0.15843825867763472  0.6645172852152611  1.0000
  C   C195      1.0  0.40966204061927247  0.17106705201506456  0.6942099613268653  1.0000
  C   C196      1.0  0.40684818933601863  0.18980656693261164  0.6868717919182188  1.0000
  C   C197      1.0  0.39757824366831157  0.19587057203495337  0.6500574210021554  1.0000
  C   C198      1.0  0.3930398221786901  0.18320115352373498  0.6202868481080088  1.0000
  H   H129      1.0  0.4083107691534255  0.14397374036389843  0.6702753070857226  1.0000
  H   H130      1.0  0.41618719390959696  0.166295556166613  0.7225089632878288  1.0000
  H   H131      1.0  0.3939592371458585  0.2103099923842566  0.6444235592306584  1.0000
  H   H132      1.0  0.3867640627776493  0.1879237465101568  0.591642302264777  1.0000
  C   C199      1.0  0.44830434893109833  0.05354588559541229  0.533762119956177  1.0000
  C   C200      1.0  0.44430418437134694  0.035451873989047256  0.5213581205678115  1.0000
  C   C201      1.0  0.43740971458123645  0.031677416828542304  0.4827201679647153  1.0000
  C   C202      1.0  0.43385426318484405  0.04602586358817784  0.4564966016498279  1.0000
  C   C203      1.0  0.43697825723209066  0.06414409843810076  0.4690032809684363  1.0000
  C   C204      1.0  0.4443820383087095  0.0679053924189339  0.5076099262560958  1.0000
  H   H133      1.0  0.44699461600296575  0.024301215884884986  0.5415569874831002  1.0000
  H   H134      1.0  0.43468577519686696  0.017662760550067214  0.47328914315143644  1.0000
  H   H135      1.0  0.4341797625339229  0.07526960145775807  0.4487591211368074  1.0000
  H   H136      1.0  0.44707097856458444  0.08189848541655191  0.5170209135805034  1.0000
  C   C205      1.0  0.3605291727412375  0.2060925669114798  0.9297050935290411  1.0000
  C   C206      1.0  0.32688637191834535  0.20143365745436337  0.9468025895180152  1.0000
  C   C207      1.0  0.3042603732073614  0.21503214551186775  0.9627358028613526  1.0000
  C   C208      1.0  0.314738845262542  0.23339670558025655  0.9609117609176862  1.0000
  C   C209      1.0  0.34850598369529  0.2380985286562071  0.9439777235689542  1.0000
  C   C210      1.0  0.37155816066497865  0.22442422817284324  0.9287111815501548  1.0000
  H   H137      1.0  0.31813020102696515  0.18734027823793592  0.9479215738786934  1.0000
  H   H138      1.0  0.2783458387491636  0.2112853260563145  0.9761084970395539  1.0000
  H   H139      1.0  0.35727534258285576  0.2521634660680704  0.9433279313210975  1.0000
  H   H140      1.0  0.39800859112144177  0.2280221747866674  0.9164139468915569  1.0000
  C   C211      1.0  0.3892078882684642  0.10218952189116495  0.03613717040845055  1.0000
  C   C212      1.0  0.3518067653205785  0.10099300960482549  0.04670839358212353  1.0000
  C   C213      1.0  0.34252989580090876  0.09639383385609279  0.08448798524910696  1.0000
  C   C214      1.0  0.370650113301323  0.09349874052570017  0.1117894034138716  1.0000
  C   C215      1.0  0.4078933729801696  0.09518898952865562  0.10130171689264113  1.0000
  C   C216      1.0  0.41715334373061524  0.09926333994412763  0.06348787376357246  1.0000
  H   H141      1.0  0.3301135232057935  0.10319843284358088  0.02560595493578277  1.0000
  H   H142      1.0  0.3136785935667336  0.09533436054636435  0.09259131378247232  1.0000
  H   H143      1.0  0.4296876629357782  0.09294896839085486  0.12228199719165868  1.0000
  H   H144      1.0  0.4460612959986153  0.1001017290797473  0.05536760653087059  1.0000
  C   C217      1.0  0.36271266036595057  0.11333664259315818  0.7939600962555731  1.0000
  C   C218      1.0  0.3662736413433167  0.11589668743706  0.7545658370916899  1.0000
  C   C219      1.0  0.4002550604031753  0.11227081392899858  0.7367018063282149  1.0000
  C   C220      1.0  0.4304559686280713  0.10564391793192689  0.7580073679212534  1.0000
  C   C221      1.0  0.42653803191734935  0.10253862586301157  0.7972236789936423  1.0000
  C   C222      1.0  0.3928143423190673  0.10657324859277237  0.8152816930636961  1.0000
  H   H145      1.0  0.3431158493327617  0.12125080067512471  0.7380139969646994  1.0000
  H   H146      1.0  0.4031324271699671  0.1150275814799353  0.7066493280114784  1.0000
  H   H147      1.0  0.44978313740864595  0.09731816206656871  0.8138200211311813  1.0000
  H   H148      1.0  0.3899898399655969  0.10427779585106987  0.8456378935765594  1.0000
  C   C223      1.0  0.8148798344815593  0.20606039616237676  0.6272128280034344  1.0000
  C   C224      1.0  0.8354886929753109  0.202956125097402  0.6606205038044022  1.0000
  C   C225      1.0  0.8467817926217777  0.21767536196321255  0.6832742404367538  1.0000
  C   C226      1.0  0.8371091654412789  0.2355317561659036  0.6728128784073968  1.0000
  C   C227      1.0  0.8177203029897878  0.23875799799998387  0.6386407057128147  1.0000
  C   C228      1.0  0.8069861960694028  0.223988980955086  0.615538580470023  1.0000
  H   H149      1.0  0.8423062379195617  0.18916584959936356  0.669416044048437  1.0000
  H   H150      1.0  0.862110264215037  0.21514412819284395  0.7094704265145899  1.0000
  H   H151      1.0  0.8110784801556589  0.25259180635321576  0.6299814631126248  1.0000
  H   H152      1.0  0.7915204261009512  0.22642123888065976  0.5893914754564649  1.0000
  C   C229      1.0  0.8010780498403637  0.09465222205327156  0.5986803990383557  1.0000
  C   C230      1.0  0.79333981283373  0.07751235040751325  0.5828496514555332  1.0000
  C   C231      1.0  0.7846872612688887  0.07595164132333343  0.543873062977565  1.0000
  C   C232      1.0  0.784277007047863  0.0914919713593263  0.5205285263804262  1.0000
  C   C233      1.0  0.793498335246515  0.10852200144788315  0.5361048926774233  1.0000
  C   C234      1.0  0.8014560624026758  0.11014865054845269  0.5752417268814707  1.0000
  H   H153      1.0  0.7931116661928521  0.06549019695116676  0.6009179907689692  1.0000
  H   H154      1.0  0.7779401070633306  0.06274603260316636  0.5321384801819594  1.0000
  H   H155      1.0  0.7934217561001016  0.12058368132821418  0.5181277853180761  1.0000
  H   H156      1.0  0.8077339344558668  0.12342323766404768  0.5872255127867411  1.0000
  C   C235      1.0  0.6475369675214596  0.1474564582186068  0.6850014853991965  1.0000
  C   C236      1.0  0.6569940636226596  0.1522934572227607  0.6476800545899505  1.0000
  C   C237      1.0  0.6334768441815141  0.14775953424247787  0.6171569716337849  1.0000
  C   C238      1.0  0.6003661128210872  0.13844170671833567  0.6239532829100188  1.0000
  C   C239      1.0  0.5901608575775787  0.13414651604188993  0.6613492337215139  1.0000
  C   C240      1.0  0.6136928460158672  0.13875549402794282  0.691920348130943  1.0000
  H   H157      1.0  0.6824002051415458  0.15957116685612557  0.642270914991313  1.0000
  H   H158      1.0  0.6412472442822176  0.15123781092635022  0.5882546339234092  1.0000
  H   H159      1.0  0.5646861393679581  0.1268413863152368  0.6667495507115565  1.0000
  H   H160      1.0  0.606270678912058  0.1350315540940652  0.7207863995934001  1.0000
  C   C241      1.0  0.9906772358564919  0.18965913014494415  0.9202771042948669  1.0000
  C   C242      1.0  0.9882123715483826  0.2054620128500215  0.8978868695280526  1.0000
  C   C243      1.0  0.9618192238635316  0.2189545420694456  0.9062131732914078  1.0000
  C   C244      1.0  0.9381397007037172  0.21683850706805302  0.9373166376978265  1.0000
  C   C245      1.0  0.9401062762320775  0.20086437385979503  0.9594057556729088  1.0000
  C   C246      1.0  0.9663278431813133  0.18721369673512003  0.9507912981899778  1.0000
  H   H161      1.0  0.00694698463137855  0.20731949663412497  0.8741627426871502  1.0000
  H   H162      1.0  0.9597449927758808  0.23094776760542415  0.8883349112069714  1.0000
  H   H163      1.0  0.9220447807717529  0.1992552952251395  0.9837446725612544  1.0000
  H   H164      1.0  0.968528415555128  0.17510159719778634  0.9684833548025682  1.0000
  C   C247      1.0  0.9736143314902703  0.09163335520880893  0.06613300548722045  1.0000
  C   C248      1.0  0.9831740421147978  0.08766755444503276  0.10409634262743454  1.0000
  C   C249      1.0  0.9864389317838197  0.06943182865214226  0.11635885920439552  1.0000
  C   C250      1.0  0.9791017958734056  0.05513802261339951  0.09094718513806967  1.0000
  C   C251      1.0  0.9689565073538171  0.059130400506035796  0.05317422657084947  1.0000
  C   C252      1.0  0.9659827646172913  0.077335611201516  0.04085772507017715  1.0000
  H   H165      1.0  0.9891328781461398  0.09870333900947317  0.12376133251034263  1.0000
  H   H166      1.0  0.9949865123294135  0.06649505221379837  0.14533595781817416  1.0000
  H   H167      1.0  0.9630127481429808  0.04811999330543748  0.03344735255665099  1.0000
  H   H168      1.0  0.957354810941111  0.0802851772578752  0.01189241873674729  1.0000
  C   C253      1.0  0.1440770847663757  0.11070525440201998  0.9445489935064799  1.0000
  C   C254      1.0  0.1360776376899515  0.129426888610197  0.9444655833878883  1.0000
  C   C255      1.0  0.16385805645401416  0.14205249294038844  0.9535092602285602  1.0000
  C   C256      1.0  0.2000226787160264  0.1360272960207786  0.9614922890766284  1.0000
  C   C257      1.0  0.20815111681876247  0.11728803887917691  0.9616845260678012  1.0000
  C   C258      1.0  0.18012866469883204  0.10461103995402665  0.9531882963127081  1.0000
  H   H169      1.0  0.10876528592442747  0.13427970898065741  0.9363745815017666  1.0000
  H   H170      1.0  0.15763874023369928  0.15654917535242993  0.9529679654975475  1.0000
  H   H171      1.0  0.2360194489416664  0.11259861781600158  0.9683017743547448  1.0000
  H   H172      1.0  0.18643055689759103  0.09012272054839005  0.9532438955198835  1.0000
  C   C259      1.0  0.9113166919428689  0.11693341480532386  0.8396510504257525  1.0000
  C   C260      1.0  0.8759215170059949  0.11469958344451381  0.8236027545018402  1.0000
  C   C261      1.0  0.859671903148064  0.1288359423555343  0.8020432736273548  1.0000
  C   C262      1.0  0.878902466378473  0.14517667766378936  0.7964976983725875  1.0000
  C   C263      1.0  0.9142838046940184  0.14741091715585516  0.8126273166503994  1.0000
  C   C264      1.0  0.9304031072628732  0.13333785149218302  0.834380839703113  1.0000
  H   H173      1.0  0.8609336927576088  0.10209950892508556  0.8282487174308282  1.0000
  H   H174      1.0  0.8320253804803518  0.1271901986046843  0.7904271631612243  1.0000
  H   H175      1.0  0.9294263883366555  0.159978317270642  0.8081431684476114  1.0000
  H   H176      1.0  0.9577848536265933  0.13512563794664476  0.8467060822614033  1.0000
  C   C265      1.0  0.3566206863431044  0.9171223519200421  0.49264870930201266  1.0000
  C   C266      1.0  0.39203864196973737  0.9095192819374353  0.4879139060904101  1.0000
  C   C267      1.0  0.4228572780999924  0.9209117250096666  0.48310980625517  1.0000
  C   C268      1.0  0.4181824957317539  0.9399091486471218  0.4819886514316127  1.0000
  C   C269      1.0  0.3827710120365022  0.9475583186608032  0.48661546579308845  1.0000
  C   C270      1.0  0.3520400764019655  0.936153470927046  0.4924235305825968  1.0000
  H   H177      1.0  0.39575678912023177  0.8948500700114124  0.4879575412913741  1.0000
  H   H178      1.0  0.45021978422531717  0.9149707431110898  0.4797208594644067  1.0000
  H   H179      1.0  0.3791467517258777  0.9622587648467669  0.48602971032399234  1.0000
  H   H180      1.0  0.3246656761425305  0.9420573863150268  0.4961534767914843  1.0000
  C   C271      1.0  0.23030211147851617  0.880391883910928  0.3235621679748109  1.0000
  C   C272      1.0  0.2298958457616664  0.8631383335239828  0.30638016810458696  1.0000
  C   C273      1.0  0.24655157194223695  0.8481317262597623  0.3250497211485966  1.0000
  C   C274      1.0  0.2639313626811453  0.8504739834853396  0.36065455717886524  1.0000
  C   C275      1.0  0.26327804476303246  0.8676056263181151  0.37825849463469796  1.0000
  C   C276      1.0  0.24618791484350483  0.8824873427465656  0.359864703092303  1.0000
  H   H181      1.0  0.21658719444182759  0.8613693251636954  0.2788878391947996  1.0000
  H   H182      1.0  0.24649332215121622  0.8348002748586552  0.31167092190584617  1.0000
  H   H183      1.0  0.27592215895507743  0.8694242055950473  0.40610205005292344  1.0000
  H   H184      1.0  0.2455304814546142  0.8957069679428878  0.37368051969491745  1.0000
  C   C277      1.0  0.19664613323110283  0.967695567367642  0.1443463039971924  1.0000
  C   C278      1.0  0.23323522000036218  0.9614398676306439  0.14040522384917611  1.0000
  C   C279      1.0  0.26119327243927665  0.9735791529864773  0.128974880656472  1.0000
  C   C280      1.0  0.25260544730950046  0.9919963521989371  0.12201882849881054  1.0000
  C   C281      1.0  0.21583572956166996  0.9980875216924193  0.12499184762821484  1.0000
  C   C282      1.0  0.18787321470561763  0.9859317985537849  0.13587735760688843  1.0000
  H   H185      1.0  0.24013976272733908  0.9473354169174  0.14657399824967857  1.0000
  H   H186      1.0  0.28960617252439835  0.9688130223434247  0.12660821940995048  1.0000
  H   H187      1.0  0.208863337080055  0.012156462541728086  0.11847703071758528  1.0000
  H   H188      1.0  0.15948368799190818  0.9907214461996414  0.13792078046889447  1.0000
  C   C283      1.0  0.28407877755844946  0.8237138509013775  0.07996821994795766  1.0000
  C   C284      1.0  0.2538366581262569  0.8295170674933084  0.10196896043876946  1.0000
  C   C285      1.0  0.25267198308313377  0.8474044098582695  0.11664183019666834  1.0000
  C   C286      1.0  0.2821171472793659  0.8594031065271734  0.10993032251359273  1.0000
  C   C287      1.0  0.31261115264413175  0.8534496962778194  0.08855501019707454  1.0000
  C   C288      1.0  0.31351750194306943  0.8356921721542013  0.07343628367033439  1.0000
  H   H189      1.0  0.2309452041532541  0.8203041910471456  0.10705543590273758  1.0000
  H   H190      1.0  0.22891431677232185  0.8519017853906157  0.13291219043352645  1.0000
  H   H191      1.0  0.3355433732624044  0.8626416317366722  0.08339717181352624  1.0000
  H   H192      1.0  0.33722694424463695  0.8312547472826077  0.056968045678557955  1.0000
  C   C289      1.0  0.3664728708754475  0.7274596107370563  0.9540810443554731  1.0000
  C   C290      1.0  0.32785191308519257  0.7275924661479497  0.9491300797763125  1.0000
  C   C291      1.0  0.3078300193015299  0.7112466720493309  0.9529072475386187  1.0000
  C   C292      1.0  0.32661559875646284  0.6948377522082413  0.9610291987414616  1.0000
  C   C293      1.0  0.3651833419559127  0.6948181406670632  0.965900559302988  1.0000
  C   C294      1.0  0.3850794189499284  0.7110749621895698  0.9622803024950333  1.0000
  H   H193      1.0  0.31349871178322275  0.7402002035548024  0.9420779573997697  1.0000
  H   H194      1.0  0.27799287073617734  0.7112111085671228  0.9487724374871706  1.0000
  H   H195      1.0  0.3797742840343657  0.6822600220879306  0.9727738136590377  1.0000
  H   H196      1.0  0.41492796690745765  0.7109074118046871  0.9662661106913445  1.0000
  C   C295      1.0  0.20364539717229763  0.8046456886322517  0.5943071944833376  1.0000
  C   C296      1.0  0.23095988842185022  0.7917321749287355  0.603873344105186  1.0000
  C   C297      1.0  0.2683206420823823  0.795125619810063  0.59519724597281  1.0000
  C   C298      1.0  0.27842442987336485  0.8114773508864752  0.5772448635770996  1.0000
  C   C299      1.0  0.25116833718655934  0.824511695830669  0.568325417213268  1.0000
  C   C300      1.0  0.21377083869616276  0.8210318322770637  0.5765451385139191  1.0000
  H   H197      1.0  0.2231657321286261  0.7789502745441376  0.6170980253861208  1.0000
  H   H198      1.0  0.28936312382666585  0.7849652103446264  0.6019543012431203  1.0000
  H   H199      1.0  0.25889267770347674  0.8373659032625095  0.5554930707734491  1.0000
  H   H200      1.0  0.19264891640773807  0.8310871328513119  0.5693343950486838  1.0000
  C   C301      1.0  0.2422581567938179  0.7739753198677123  0.7939103320906217  1.0000
  C   C302      1.0  0.27537289698391965  0.7714079747852847  0.8146016760480853  1.0000
  C   C303      1.0  0.287014289680333  0.7845145555975416  0.8413817076454684  1.0000
  C   C304      1.0  0.2658231029519072  0.8003617914203787  0.8470543783182574  1.0000
  C   C305      1.0  0.23250911891412637  0.8028260068135582  0.8267121596707644  1.0000
  C   C306      1.0  0.22057963567310893  0.7895825057378875  0.8004327573968051  1.0000
  H   H201      1.0  0.2921823540663263  0.7593207822603167  0.8097884751155231  1.0000
  H   H202      1.0  0.31273513808056436  0.7825090907036866  0.8570913282258685  1.0000
  H   H203      1.0  0.2158382834765731  0.8149747257110956  0.8313143636908762  1.0000
  H   H204      1.0  0.19463913700218294  0.7915032070164436  0.7852253001655155  1.0000
  C   C307      1.0  0.10715076205185867  0.7043369220534413  0.6522053709722971  1.0000
  C   C308      1.0  0.09693236970300327  0.6860373433768371  0.6563175275435577  1.0000
  C   C309      1.0  0.11738561323494383  0.672252456064513  0.6382463765995435  1.0000
  C   C310      1.0  0.14848523115883153  0.6766715408887305  0.6165196816005596  1.0000
  C   C311      1.0  0.15801610945738118  0.6950421706747351  0.6112704989861968  1.0000
  C   C312      1.0  0.13738728078136028  0.7088906875045828  0.6292361587239912  1.0000
  H   H205      1.0  0.07374327058416717  0.6824973106415926  0.6742586419062885  1.0000
  H   H206      1.0  0.10899754882339736  0.6581679465112588  0.6409141606346683  1.0000
  H   H207      1.0  0.1819018477749707  0.6985219549232159  0.5941758133174441  1.0000
  H   H208      1.0  0.14489244123941084  0.7230388033572039  0.6252532223339833  1.0000
  C   C313      1.0  0.5387491515111535  0.8876714380339538  0.4974481115364514  1.0000
  C   C314      1.0  0.549166557379537  0.8760162822588294  0.46774364119633877  1.0000
  C   C315      1.0  0.5238486861101987  0.8633211444992556  0.4529517269283737  1.0000
  C   C316      1.0  0.48775074633634297  0.8623670504634526  0.4673824907572127  1.0000
  C   C317      1.0  0.47695708826462985  0.8742962999526507  0.49649594137796604  1.0000
  C   C318      1.0  0.5024593567224838  0.886911727602488  0.5115397961226651  1.0000
  H   H209      1.0  0.5765530377548673  0.8767161865482074  0.45589177963185146  1.0000
  H   H210      1.0  0.5322027965011245  0.8542066343993729  0.4302037757044716  1.0000
  H   H211      1.0  0.44911152824687284  0.8737334998523748  0.5076708490257168  1.0000
  H   H212      1.0  0.4939727398059768  0.8960928413625283  0.5341310610971673  1.0000
  C   C319      1.0  0.6885369139444837  0.9956595924710294  0.5323053920583183  1.0000
  C   C320      1.0  0.72716983574955  0.9942833673091119  0.5293023856432998  1.0000
  C   C321      1.0  0.7444608434532226  0.9770952392200104  0.5291288839833242  1.0000
  C   C322      1.0  0.7230887407232515  0.961208087989702  0.5308334154776665  1.0000
  C   C323      1.0  0.684363171916882  0.9625096397276055  0.5336320244432013  1.0000
  C   C324      1.0  0.6670936072465649  0.9797785865225236  0.5348596807011327  1.0000
  H   H213      1.0  0.7438611458376829  0.006487738285086975  0.5277598160853733  1.0000
  H   H214      1.0  0.7744013554966154  0.9761052030497139  0.5270703807937211  1.0000
  H   H215      1.0  0.6677970437017631  0.9502358554404643  0.5353192376701692  1.0000
  H   H216      1.0  0.6371809378118506  0.9808019661659734  0.5370709083916068  1.0000
  C   C325      1.0  0.9972820309915432  0.8686951308716312  0.22236888875908664  1.0000
  C   C326      1.0  0.032246975282991475  0.8725444711770164  0.23826368704801426  1.0000
  C   C327      1.0  0.06340048529073439  0.8743176396084997  0.2147043335637857  1.0000
  C   C328      1.0  0.05968527969011684  0.8719372063299343  0.17526561049956046  1.0000
  C   C329      1.0  0.024642024551974066  0.8683568710712181  0.1593258240420679  1.0000
  C   C330      1.0  0.9933855925393364  0.866870291717603  0.18282787305133533  1.0000
  H   H217      1.0  0.03540619018660496  0.8737923797204483  0.2688810515224333  1.0000
  H   H218      1.0  0.09046135266829357  0.876889561938072  0.22717571181849183  1.0000
  H   H219      1.0  0.02175129111785501  0.8664385458174352  0.12882025356364551  1.0000
  H   H220      1.0  0.9665490909560792  0.8637221822371146  0.1704612403405  1.0000
  C   C331      1.0  0.7174532165547073  0.8888078287779557  0.34956771289546396  1.0000
  C   C332      1.0  0.7334114562828953  0.8930172920429931  0.3143048824952101  1.0000
  C   C333      1.0  0.7550805550058823  0.879953189390539  0.29523006316236455  1.0000
  C   C334      1.0  0.7599989852660166  0.8624972725940846  0.3109378814783362  1.0000
  C   C335      1.0  0.7437144340180243  0.858225528140918  0.3460106635751282  1.0000
  C   C336      1.0  0.7228825701763217  0.8714605153905242  0.36560976992599953  1.0000
  H   H221      1.0  0.7293220971584133  0.9064376317183852  0.3018569599821733  1.0000
  H   H222      1.0  0.7676545453281  0.883369976116411  0.2682169504319498  1.0000
  H   H223      1.0  0.7475623474948607  0.8447445487061986  0.35825597243280394  1.0000
  H   H224      1.0  0.7106368364285688  0.8681470031232189  0.3928609058467919  1.0000
  C   C337      1.0  0.8750015068105815  0.9357181475678593  0.21037425275230653  1.0000
  C   C338      1.0  0.9086946746276133  0.92614027843803  0.20950660605785407  1.0000
  C   C339      1.0  0.9422316146477872  0.9352785386881459  0.21540250571837524  1.0000
  C   C340      1.0  0.9423116081019877  0.9540201323177269  0.2228957047857839  1.0000
  C   C341      1.0  0.9086537124619727  0.9636572156356258  0.22447202707755753  1.0000
  C   C342      1.0  0.87496998148829  0.9545184020881363  0.21790029382329637  1.0000
  H   H225      1.0  0.9090393916088716  0.9116366415720756  0.20463439705658173  1.0000
  H   H226      1.0  0.968084313541907  0.9277318947905457  0.21422907333869054  1.0000
  H   H227      1.0  0.9084149119123143  0.9780596351460153  0.23125464179341773  1.0000
  H   H228      1.0  0.848907919237598  0.9619562449289791  0.21903121237535772  1.0000
  C   C343      1.0  0.5312713278889206  0.791073185458706  0.03604818313970948  1.0000
  C   C344      1.0  0.4946730445260227  0.7921769849262076  0.04906167423797969  1.0000
  C   C345      1.0  0.4690256587255841  0.8038537665328124  0.031009213852786877  1.0000
  C   C346      1.0  0.479646834511333  0.8143320898450426  0.9995527969075922  1.0000
  C   C347      1.0  0.5167355670596818  0.8138582487231548  0.9875603743423583  1.0000
  C   C348      1.0  0.5425953172982411  0.802235364421858  0.005821559051978786  1.0000
  H   H229      1.0  0.48601601966642527  0.7838381226789783  0.07289957769971056  1.0000
  H   H230      1.0  0.44116579360169333  0.8049879282049645  0.041873978049975724  1.0000
  H   H231      1.0  0.5252369797010343  0.8221635570337783  0.9635936308154571  1.0000
  H   H232      1.0  0.5709822699007769  0.801627861231412  0.9959164655200842  1.0000
  C   C349      1.0  0.7666740244241059  0.7940093799035565  0.10625105167919235  1.0000
  C   C350      1.0  0.7614258472701595  0.8065418431737299  0.07649789255842032  1.0000
  C   C351      1.0  0.7822591983824072  0.822646211489673  0.07551583240970672  1.0000
  C   C352      1.0  0.8085395439936895  0.82627156129999  0.10413160860584099  1.0000
  C   C353      1.0  0.8139956885876003  0.8136883953049325  0.13379757911553308  1.0000
  C   C354      1.0  0.7932956247025934  0.797465956212603  0.13465131034587619  1.0000
  H   H233      1.0  0.7408998747224299  0.8040153352853198  0.054483610601141486  1.0000
  H   H234      1.0  0.7771949432984384  0.8324899075060893  0.053077924739932  1.0000
  H   H235      1.0  0.8346082210143179  0.8162904126784756  0.15569910914707488  1.0000
  H   H236      1.0  0.7976931976201939  0.7877054234174613  0.1575122165337352  1.0000
  C   C355      1.0  0.6825461461447653  0.7067799409117986  0.9830637389659725  1.0000
  C   C356      1.0  0.7042541712103212  0.6912374467905041  0.9757300067984677  1.0000
  C   C357      1.0  0.7027480877303787  0.6760823913319156  0.00032952223944726633  1.0000
  C   C358      1.0  0.6793446491527122  0.6764410275519269  0.03210253094358029  1.0000
  C   C359      1.0  0.656827215042616  0.6917511025033657  0.038614127078179905  1.0000
  C   C360      1.0  0.6581605490660005  0.7068129234836131  0.013928199236378891  1.0000
  H   H237      1.0  0.7234073597355235  0.6912189489854491  0.9520488273655858  1.0000
  H   H238      1.0  0.721187262347717  0.6645894436690615  0.9958882726730096  1.0000
  H   H239      1.0  0.6385568355513687  0.6920243588578309  0.06302923450848219  1.0000
  H   H240      1.0  0.6402938849963388  0.7184516389482715  0.018863536665020053  1.0000
  C   C361      1.0  0.9493327204925175  0.8076373218399661  0.7024512923256373  1.0000
  C   C362      1.0  0.9504710729009439  0.8066148763972971  0.742330553775747  1.0000
  C   C363      1.0  0.9845739256465552  0.8039898495417707  0.7613323530287671  1.0000
  C   C364      1.0  0.017491486427573033  0.8024028711786684  0.7404761007430034  1.0000
  C   C365      1.0  0.016421112973854735  0.8042239422178872  0.7007431365133737  1.0000
  C   C366      1.0  0.9823737748015339  0.8067696536416861  0.6817238216811088  1.0000
  H   H241      1.0  0.925072145668638  0.8075278615265509  0.7585368347484749  1.0000
  H   H242      1.0  0.9853464547252375  0.8027870178414185  0.7921305038707496  1.0000
  H   H243      1.0  0.041850259287486986  0.8038095005321109  0.6846341198114627  1.0000
  H   H244      1.0  0.981633900183826  0.8077443777467161  0.6508965070778175  1.0000
  C   C367      1.0  0.7354072552510756  0.8447399397854062  0.6589798229943846  1.0000
  C   C368      1.0  0.7375251551537559  0.8291403403644017  0.6359933929542749  1.0000
  C   C369      1.0  0.7309655538882013  0.830522295045704  0.5964980450778802  1.0000
  C   C370      1.0  0.7228274759677422  0.8475349768837107  0.5798483804776853  1.0000
  C   C371      1.0  0.720948472575406  0.8630827540192109  0.6029123593913349  1.0000
  C   C372      1.0  0.726782379803303  0.8616604215428237  0.6423924946139054  1.0000
  H   H245      1.0  0.7435077023690466  0.8159709357711359  0.6487000423234417  1.0000
  H   H246      1.0  0.7324270049025653  0.8184081222324542  0.5788225567309999  1.0000
  H   H247      1.0  0.7160172843283159  0.8763143300060405  0.590455828657215  1.0000
  H   H248      1.0  0.7253660734595231  0.873786263782248  0.6600541023415128  1.0000
  C   C373      1.0  0.7305563814388772  0.816174059645157  0.9226955744150559  1.0000
  C   C374      1.0  0.734247802539027  0.8244226521286964  0.8868877378461175  1.0000
  C   C375      1.0  0.7682316640988436  0.8236021585143488  0.8676991005608776  1.0000
  C   C376      1.0  0.7986771626298406  0.8146758272901382  0.8844694175575196  1.0000
  C   C377      1.0  0.7953451511213365  0.8068329001957992  0.9207311882000483  1.0000
  C   C378      1.0  0.7612671580581154  0.8075942800188103  0.9398515287477973  1.0000
  H   H249      1.0  0.7106246025627583  0.8312309100661162  0.8736855604286402  1.0000
  H   H250      1.0  0.7709125936183399  0.8300329426068305  0.8400170270291583  1.0000
  H   H251      1.0  0.8189374900246497  0.7999377157812215  0.9337395412101706  1.0000
  H   H252      1.0  0.7589217834964803  0.8017586566437441  0.9680144251463556  1.0000
  C   C379      1.0  0.8077637246570462  0.737168116307556  0.7317982934633316  1.0000
  C   C380      1.0  0.8085902038906926  0.7194784667715483  0.7469829807721443  1.0000
  C   C381      1.0  0.8367855105011692  0.7072295527017546  0.7364685224770035  1.0000
  C   C382      1.0  0.8635621567294415  0.7124397682203969  0.7098605055204013  1.0000
  C   C383      1.0  0.8622483795164941  0.7300128043830517  0.694002062941928  1.0000
  C   C384      1.0  0.8347791535996406  0.742507098351751  0.7055185287188208  1.0000
  H   H253      1.0  0.7878546495358583  0.7153219151112247  0.7673975378322399  1.0000
  H   H254      1.0  0.8376844482967828  0.6937592142082223  0.7490677293763792  1.0000
  H   H255      1.0  0.8823496670413602  0.7339663422321027  0.672796153942986  1.0000
  H   H256      1.0  0.8340254612690735  0.7561432690065324  0.6934955320472364  1.0000
  N   N1        1.0  0.36639203068221843  0.03889546180672454  0.05423188808551771  1.0000
  C   C385      1.0  0.3717676353615282  0.019338217806254443  0.04501929674660854  1.0000
  C   C386      1.0  0.32927636399847404  0.044941331159318754  0.04073784978617767  1.0000
  C   C387      1.0  0.39525961925454245  0.04989144457147887  0.03525843706154941  1.0000
  C   C388      1.0  0.36917480454994833  0.04144595094944026  0.09601147083138795  1.0000
  H   H257      1.0  0.35018570912576263  0.010724545626756177  0.058863826155804544  1.0000
  H   H258      1.0  0.3993331959481321  0.014273229310144853  0.055205881527460976  1.0000
  H   H259      1.0  0.36988311693971326  0.01688344531506414  0.013726408170185112  1.0000
  H   H260      1.0  0.3243284311637206  0.0596626151544144  0.04733684627797019  1.0000
  H   H261      1.0  0.3261578918029184  0.04325960090020864  0.009322819871217192  1.0000
  H   H262      1.0  0.30679271116798107  0.03691308038020158  0.05454818030431241  1.0000
  H   H263      1.0  0.3938391493898851  0.04852270081864418  0.003640652847482606  1.0000
  H   H264      1.0  0.42369032145086055  0.045843102857408446  0.04483888069417974  1.0000
  H   H265      1.0  0.3918168367659865  0.06466367569009956  0.04184097225610883  1.0000
  H   H266      1.0  0.3484774549756447  0.03294406869562794  0.1112658964115869  1.0000
  H   H267      1.0  0.36394621928388143  0.05591740987240579  0.10416062232237056  1.0000
  H   H268      1.0  0.3971725340601784  0.037613504327574265  0.10717213066798004  1.0000
  N   N2        1.0  0.22376542653134643  0.8447417800598839  0.9806043116760315  1.0000
  C   C389      1.0  0.23724179839090603  0.8478553547122271  0.9413659811349238  1.0000
  C   C390      1.0  0.2462788357823587  0.8555893761084697  0.0077552289513418415  1.0000
  C   C391      1.0  0.22714873634785682  0.8250934402378123  0.9901400971782152  1.0000
  C   C392      1.0  0.18436569565717364  0.8504132306579831  0.9831720143236282  1.0000
  H   H269      1.0  0.23431212136943394  0.8624340024739978  0.9327004010478417  1.0000
  H   H270      1.0  0.22183217976924793  0.8393879198270271  0.9201316530933967  1.0000
  H   H271      1.0  0.26716724938954417  0.8441326774356053  0.9387167483330933  1.0000
  H   H272      1.0  0.23648574383462137  0.8538215276075096  0.037577030352157426  1.0000
  H   H273      1.0  0.2760734942062064  0.8514002384464658  0.007200017120012836  1.0000
  H   H274      1.0  0.24496946218082777  0.870465571096989  0.001087624042105384  1.0000
  H   H275      1.0  0.21783739229151702  0.8222296312924925  0.019807203928259298  1.0000
  H   H276      1.0  0.25641689001003654  0.8202871306917192  0.9881810306877327  1.0000
  H   H277      1.0  0.21048454204050718  0.8164742476706736  0.970274166440099  1.0000
  H   H278      1.0  0.16663283465590378  0.8425584497830498  0.9628636252943011  1.0000
  H   H279      1.0  0.1807813335703079  0.865207541487641  0.9764414003046975  1.0000
  H   H280      1.0  0.17333772401450065  0.8481241809003587  0.012442110957995522  1.0000
  N   N3        1.0  0.8308431238469955  0.8529466520657294  0.9793853542746355  1.0000
  C   C393      1.0  0.8206502434264267  0.8530041893937609  0.9383973924683402  1.0000
  C   C394      1.0  0.8014492839336097  0.8623592692373637  0.0013040972253777205  1.0000
  C   C395      1.0  0.866537010401031  0.8625302202038041  0.9849841946520125  1.0000
  C   C396      1.0  0.83474668165057  0.8338733077091531  0.9929559843078131  1.0000
  H   H281      1.0  0.8187425027869326  0.86714615830076  0.926770382887398  1.0000
  H   H282      1.0  0.7931250693955938  0.8464732935336656  0.9335392160512084  1.0000
  H   H283      1.0  0.8413424696686413  0.8453450115543388  0.920953970633641  1.0000
  H   H284      1.0  0.8082799132413052  0.8626691616758936  0.0323702429446755  1.0000
  H   H285      1.0  0.7976554556189351  0.8767640730221484  0.9917018330867481  1.0000
  H   H286      1.0  0.7741645541697519  0.8553608030553178  0.9979993344816299  1.0000
  H   H287      1.0  0.8647278870888194  0.8769967061558687  0.9751969142618643  1.0000
  H   H288      1.0  0.8892981723413739  0.8557339056572738  0.9688365988282884  1.0000
  H   H289      1.0  0.8748492205595156  0.8626649787446748  0.015753584521466912  1.0000
  H   H290      1.0  0.8439894183664459  0.8333265208144506  0.023377807826236552  1.0000
  H   H291      1.0  0.8554534609662331  0.8261069329543613  0.9758365648467124  1.0000
  H   H292      1.0  0.8079156316636624  0.8264570996721747  0.9909873842548657  1.0000
  N   N4        1.0  0.34350843736921005  0.6061257964738156  0.6482927716248837  1.0000
  C   C397      1.0  0.3783526802257039  0.6166789077868468  0.6510911243630858  1.0000
  C   C398      1.0  0.35186261809007413  0.5873915109351039  0.6348146905008798  1.0000
  C   C399      1.0  0.31787176608045675  0.6152206677288806  0.6209918750330824  1.0000
  C   C400      1.0  0.32594270388399943  0.6052281607767727  0.6862900954216121  1.0000
  H   H293      1.0  0.3730028967398215  0.6308633489087387  0.6613447970548115  1.0000
  H   H294      1.0  0.39227865060285194  0.6176800467655122  0.6228803683487272  1.0000
  H   H295      1.0  0.3983490103878768  0.6101849783861287  0.6714841422751263  1.0000
  H   H296      1.0  0.3262002353078594  0.5790021519560994  0.6327204241309758  1.0000
  H   H297      1.0  0.3645606621308062  0.5874940646807476  0.6059230251226202  1.0000
  H   H298      1.0  0.3712496184821224  0.5801112348493852  0.65460314847277  1.0000
  H   H299      1.0  0.29100502253266547  0.6078395291204033  0.6190299144473257  1.0000
  H   H300      1.0  0.3295980251615818  0.6156578288187418  0.5916811597245503  1.0000
  H   H301      1.0  0.3113926473115738  0.6295019932917819  0.6298102490561839  1.0000
  H   H302      1.0  0.29962056241289525  0.5972760791967497  0.6853182673390459  1.0000
  H   H303      1.0  0.31892546177516623  0.619109373803424  0.6972629447541744  1.0000
  H   H304      1.0  0.3445280850521675  0.5984964809141954  0.7076672314682092  1.0000
  N   N5        1.0  0.7022682906264169  0.21740942108691094  0.6737320202420269  1.0000
  C   C401      1.0  0.7360456423325725  0.21930328454738657  0.6976681397880211  1.0000
  C   C402      1.0  0.7051677628090152  0.22947729606713518  0.6399988914120917  1.0000
  C   C403      1.0  0.6693120551884754  0.22263090194478852  0.6962518223574222  1.0000
  C   C404      1.0  0.6985832513559277  0.19822629613684803  0.6610138130250656  1.0000
  H   H305      1.0  0.7346126551151047  0.2106288269662798  0.7237296761366444  1.0000
  H   H306      1.0  0.7403040359660716  0.23373116676010608  0.7068627938095722  1.0000
  H   H307      1.0  0.7613084939101433  0.2150750863685702  0.6818192175922705  1.0000
  H   H308      1.0  0.7289427667704527  0.22538836601102943  0.6216650752788303  1.0000
  H   H309      1.0  0.6795381120479237  0.22898673731505337  0.6220262058819034  1.0000
  H   H310      1.0  0.7095944881407426  0.24397701939521577  0.6484950630745437  1.0000
  H   H311      1.0  0.64334400303546  0.22185584320936239  0.6788044356775182  1.0000
  H   H312      1.0  0.6716775742194485  0.23687362910166385  0.7071101247068954  1.0000
  H   H313      1.0  0.665803833469836  0.2134848927494429  0.7213897724008734  1.0000
  H   H314      1.0  0.7231382191317448  0.19378166169477673  0.6440663971635701  1.0000
  H   H315      1.0  0.6734715809402815  0.19635109161121544  0.6427253206507645  1.0000
  H   H316      1.0  0.696161428974375  0.1886976786454585  0.6857224446996135  1.0000
  N   N6        1.0  0.5961693720968708  0.4344438742454527  0.17473259138441768  1.0000
  C   C405      1.0  0.6186569656552474  0.42371662855893566  0.20239760968159107  1.0000
  C   C406      1.0  0.5819377415473652  0.4222067624390176  0.14449173672534216  1.0000
  C   C407      1.0  0.6195849480671647  0.44873154370313906  0.15738085257090598  1.0000
  C   C408      1.0  0.5645129989745585  0.4431148769587504  0.1945781272903377  1.0000
  H   H317      1.0  0.6290558190943136  0.43244885963497837  0.22617835470195533  1.0000
  H   H318      1.0  0.6433884133304807  0.4174187501557931  0.1885288953837573  1.0000
  H   H319      1.0  0.6022307867953648  0.41240196081210384  0.21520718419329762  1.0000
  H   H320      1.0  0.5642478353817382  0.4297702978706181  0.1234628959033929  1.0000
  H   H321      1.0  0.6049365447689536  0.41561246347612496  0.12844161448406305  1.0000
  H   H322      1.0  0.5646274517032532  0.4110568897377168  0.15658495370380604  1.0000
  H   H323      1.0  0.6030842350814274  0.45778995061910865  0.13795116984683128  1.0000
  H   H324      1.0  0.6427033197561554  0.44262928396102885  0.1406234196335627  1.0000
  H   H325      1.0  0.6324971923405074  0.45754483915875654  0.17959512683410842  1.0000
  H   H326      1.0  0.5464679706666564  0.45094900189378645  0.17430518114485077  1.0000
  H   H327      1.0  0.5741680836187102  0.4528137763940909  0.2170116042858478  1.0000
  H   H328      1.0  0.5466283539643708  0.43271580160233974  0.20855966375616306  1.0000
  N   N7        1.0  0.5122647473574257  0.18500416212481932  0.5841939793913905  1.0000
  C   C409      1.0  0.5529622864634511  0.18480293578361176  0.5786583989605737  1.0000
  C   C410      1.0  0.49615580324337655  0.2016138955538829  0.5663753688809131  1.0000
  C   C411      1.0  0.5041679397598073  0.18499062951826162  0.6255246369799466  1.0000
  C   C412      1.0  0.4957726445422925  0.16862143247379865  0.5662447531060107  1.0000
  H   H329      1.0  0.5659333459132105  0.1724180749506545  0.5918057848306344  1.0000
  H   H330      1.0  0.5662336525059829  0.19702824311783276  0.5918536724211626  1.0000
  H   H331      1.0  0.5601299397146005  0.18468954710563087  0.5478037431274234  1.0000
  H   H332      1.0  0.46554682091345917  0.2024190358937585  0.5709732741706723  1.0000
  H   H333      1.0  0.5087650793943446  0.21426193556360854  0.5784601319193744  1.0000
  H   H334      1.0  0.500870577039031  0.20184288582088197  0.535014389084596  1.0000
  H   H335      1.0  0.4736949596469895  0.18473119465317922  0.6308064698160353  1.0000
  H   H336      1.0  0.5154904064032533  0.1974016317017112  0.6398020869107145  1.0000
  H   H337      1.0  0.516522299293917  0.1727927652034802  0.6399423241007708  1.0000
  H   H338      1.0  0.5011204598622159  0.16818166070101434  0.5350172410020819  1.0000
  H   H339      1.0  0.4650902265789626  0.16827110053841016  0.5701806645783118  1.0000
  H   H340      1.0  0.5074803848890479  0.15581850310618495  0.5786993877919318  1.0000
  N   N8        1.0  0.6805969512163704  0.6409885402451322  0.8655042605111072  1.0000
  C   C413      1.0  0.7044664318345667  0.6531601457315078  0.8426375493677195  1.0000
  C   C414      1.0  0.7022492182770133  0.6246996142921324  0.8775176480294612  1.0000
  C   C415      1.0  0.6482922385082942  0.6351042245202659  0.842354863804803  1.0000
  C   C416      1.0  0.6673587149131295  0.6509512206229483  0.8995664764819237  1.0000
  H   H341      1.0  0.6888730702996594  0.6653483061574608  0.8320416488794978  1.0000
  H   H342      1.0  0.71629228867117  0.6459530433510193  0.8174504253478362  1.0000
  H   H343      1.0  0.7284542976619438  0.658247396187113  0.8597957135611617  1.0000
  H   H344      1.0  0.726452939081467  0.6285455039810206  0.8955604728586494  1.0000
  H   H345      1.0  0.6850442953270915  0.6150674415700906  0.894454489459776  1.0000
  H   H346      1.0  0.7132777590697266  0.6170481764167066  0.8525571108553774  1.0000
  H   H347      1.0  0.6311078657755135  0.6469975328192246  0.8329027674330706  1.0000
  H   H348      1.0  0.6298692614943455  0.6258614267261201  0.8590170373022356  1.0000
  H   H349      1.0  0.6572387106065676  0.6275299094379475  0.8164193945675986  1.0000
  H   H350      1.0  0.6493743912788105  0.6421392477725423  0.9175721516664491  1.0000
  H   H351      1.0  0.650723560459534  0.6632628852964619  0.8915603435378444  1.0000
  H   H352      1.0  0.6909868101875871  0.6556528489832889  0.9177296774470977  1.0000
  N   N9        1.0  0.30917787157137105  0.5707123028490879  0.9014131364744719  1.0000
  C   C417      1.0  0.30426381407173886  0.551683982960136  0.8882139206815646  1.0000
  C   C418      1.0  0.29012113118164345  0.5732184022820389  0.9383205062117675  1.0000
  C   C419      1.0  0.2931445368811569  0.5834440168415379  0.8727886823178351  1.0000
  C   C420      1.0  0.34927022855874623  0.5744666396540792  0.9063106549244837  1.0000
  H   H353      1.0  0.31840779214049375  0.5493609472119401  0.8604434332646161  1.0000
  H   H354      1.0  0.27432537474933644  0.5483694249100604  0.8841531718147181  1.0000
  H   H355      1.0  0.31610812637963204  0.5417428069726125  0.9092010070362662  1.0000
  H   H356      1.0  0.29335697499398417  0.5874299546761381  0.9491733645030167  1.0000
  H   H357      1.0  0.25982003782831675  0.5704835893810131  0.9358492250987142  1.0000
  H   H358      1.0  0.301919925905755  0.5640188312589595  0.9607744109660601  1.0000
  H   H359      1.0  0.2963428552476906  0.5979475784592128  0.8818076844231756  1.0000
  H   H360      1.0  0.2629511749756872  0.581036137270864  0.8681039908196638  1.0000
  H   H361      1.0  0.3072959148344291  0.5821141568151793  0.8447591399220925  1.0000
  H   H362      1.0  0.3539535460203202  0.5886971856232112  0.9160724931988399  1.0000
  H   H363      1.0  0.3646177885329005  0.572899890728083  0.879005753721221  1.0000
  H   H364      1.0  0.36228722312559997  0.5653294693751013  0.9281406833151884  1.0000
  N   N10       1.0  0.7401944403080253  0.9573936182377915  0.40012153508881265  1.0000
  C   C421      1.0  0.7049970406578163  0.9535488929834692  0.37968872872520576  1.0000
  C   C422      1.0  0.7531168577239549  0.9407226329950271  0.4202419617033227  1.0000
  C   C423      1.0  0.734051949206465  0.9721683736537149  0.4281850059533865  1.0000
  C   C424      1.0  0.7685681003273348  0.9631476237408846  0.3723222565146363  1.0000
  H   H365      1.0  0.6937711227351654  0.9660213052811897  0.3653204071566595  1.0000
  H   H366      1.0  0.6834094495243526  0.948396695777974  0.39951895333929627  1.0000
  H   H367      1.0  0.7089726483413181  0.9429044107549752  0.35732876002912023  1.0000
  H   H368      1.0  0.7798843173001607  0.9430542536834836  0.43557078126722154  1.0000
  H   H369      1.0  0.7328063369320724  0.9363311220835339  0.44212470458095143  1.0000
  H   H370      1.0  0.7568869859573305  0.9290572019563943  0.4001626712839303  1.0000
  H   H371      1.0  0.7599591770411539  0.9753258703571203  0.44443635413671806  1.0000
  H   H372      1.0  0.7124465385050439  0.9683896302481354  0.4493381543302775  1.0000
  H   H373      1.0  0.7249749516562852  0.985048241871101  0.41391907808446404  1.0000
  H   H374      1.0  0.795116205495359  0.9668414077133053  0.38685288334402135  1.0000
  H   H375      1.0  0.7592495526265407  0.9754487263498249  0.3559712233051896  1.0000
  H   H376      1.0  0.774578942867221  0.9521311821843459  0.35130094584578314  1.0000
  N   N11       1.0  0.37355763210527443  0.5641022236076698  0.21581412198788547  1.0000
  C   C425      1.0  0.36470417887805656  0.5518312594798104  0.18353316364762898  1.0000
  C   C426      1.0  0.40813372988749164  0.5577616381493655  0.23484412665702034  1.0000
  C   C427      1.0  0.34266955040014313  0.5638773995464077  0.24342915970526544  1.0000
  C   C428      1.0  0.37876609479241746  0.5829168078252093  0.20136358632612364  1.0000
  H   H377      1.0  0.33857106655467006  0.5560491883659255  0.16868552359651018  1.0000
  H   H378      1.0  0.36118946440846905  0.5374444814253926  0.19330774175669158  1.0000
  H   H379      1.0  0.3872544862882031  0.5518922941168855  0.16196923164214036  1.0000
  H   H380      1.0  0.41594721836265885  0.5667776562273014  0.25913636393859196  1.0000
  H   H381      1.0  0.40504026360481155  0.5437018843637549  0.24648484654899935  1.0000
  H   H382      1.0  0.4319105201632929  0.5574641746435429  0.21464367186015754  1.0000
  H   H383      1.0  0.3486767459504625  0.5726081990919487  0.26871885602135825  1.0000
  H   H384      1.0  0.3375311015667928  0.5498208523358027  0.2542835298957293  1.0000
  H   H385      1.0  0.3161857956352679  0.5687733328646479  0.23024759723263874  1.0000
  H   H386      1.0  0.38507922617801205  0.5925985263011269  0.22499559820829138  1.0000
  H   H387      1.0  0.3534897497736869  0.588007460373313  0.186107909910543  1.0000
  H   H388      1.0  0.40224430600984507  0.5835780741444383  0.18086380926466533  1.0000
  N   N12       1.0  0.6733414184591578  0.09419454287329665  0.5789189264669907  1.0000
  C   C429      1.0  0.6501770042338886  0.09188449658466613  0.6132519118112807  1.0000
  C   C430      1.0  0.7025924683785857  0.10781961858724998  0.5868188067152724  1.0000
  C   C431      1.0  0.6499530257321418  0.10063360314818115  0.5466575394202625  1.0000
  C   C432      1.0  0.690773259847257  0.07650367647650147  0.5688989723394215  1.0000
  H   H389      1.0  0.6276547537105958  0.08176205663567737  0.6083533600198224  1.0000
  H   H390      1.0  0.6366401791047029  0.10499171008838903  0.6215365065749693  1.0000
  H   H391      1.0  0.6671144432229579  0.08716495063019525  0.6381580087912441  1.0000
  H   H392      1.0  0.719972081209513  0.1102668635278703  0.5611952369599186  1.0000
  H   H393      1.0  0.690443667673646  0.12122489384693647  0.5953244425821304  1.0000
  H   H394      1.0  0.721487976447237  0.10325886540215357  0.6103649358597816  1.0000
  H   H395      1.0  0.637217671187383  0.114211084956789  0.5528621711185643  1.0000
  H   H396      1.0  0.6268696572560019  0.09098847647918906  0.5404824308430681  1.0000
  H   H397      1.0  0.6665227205768793  0.10214514843235922  0.5200818173123856  1.0000
  H   H398      1.0  0.7079212906412194  0.07778208341757864  0.5427324854604256  1.0000
  H   H399      1.0  0.6696065161044582  0.06575212877983638  0.5633141599128283  1.0000
  H   H400      1.0  0.7094301137646616  0.07145090475446825  0.5921944636087327  1.0000
  N   N13       1.0  0.9461182286503206  0.9122899084603804  0.3222848024774385  1.0000
  C   C433      1.0  0.9728830541443355  0.9105567902112756  0.2906732521623847  1.0000
  C   C434      1.0  0.9129928095157236  0.9226142789283458  0.30897962128474177  1.0000
  C   C435      1.0  0.9638497080953077  0.9221373189454315  0.35436390332088896  1.0000
  C   C436      1.0  0.9348445371846268  0.8938615929062643  0.3350543047676162  1.0000
  H   H401      1.0  0.9971013748534083  0.9018003149665424  0.29875965993511766  1.0000
  H   H402      1.0  0.9836536820679601  0.9241441840627385  0.2817447232828494  1.0000
  H   H403      1.0  0.9597081450389104  0.9040984883817823  0.2652103971672364  1.0000
  H   H404      1.0  0.8923605678283997  0.9244431686217159  0.3321637089394456  1.0000
  H   H405      1.0  0.9205600245720182  0.9364282372673394  0.2981257433496247  1.0000
  H   H406      1.0  0.8985541045857525  0.9153863284870816  0.2852084345482031  1.0000
  H   H407      1.0  0.9445699962816069  0.9235556362119394  0.3789017022355874  1.0000
  H   H408      1.0  0.972364754627533  0.9361615170875125  0.3456216704344204  1.0000
  H   H409      1.0  0.9892132247735186  0.9148075481295249  0.3647094728025744  1.0000
  H   H410      1.0  0.9144079949914772  0.8945399394155118  0.3586898110582353  1.0000
  H   H411      1.0  0.9591658566582864  0.8855821673744689  0.3448782799116723  1.0000
  H   H412      1.0  0.9216975797465481  0.8860441610087524  0.3113638629715203  1.0000
  N   N14       1.0  0.9977275523293792  0.6558692310008776  0.6259798184908574  1.0000
  C   C437      1.0  0.01773041006058307  0.6446425822703507  0.6548204020263843  1.0000
  C   C438      1.0  0.9650652018679364  0.6457380743433216  0.6115190710929217  1.0000
  C   C439      1.0  0.022845181461369712  0.6598627763743962  0.5938379673782783  1.0000
  C   C440      1.0  0.9852368099247634  0.6732385226225387  0.643477414460916  1.0000
  H   H413      1.0  0.04194571785761614  0.652026967908468  0.667156391155965  1.0000
  H   H414      1.0  0.02857769458832138  0.6316816056426194  0.6423169175658501  1.0000
  H   H415      1.0  0.9993694616029323  0.640812718111238  0.678959819059092  1.0000
  H   H416      1.0  0.9734882185935472  0.6328227137511188  0.5970195873587094  1.0000
  H   H417      1.0  0.9458226847366656  0.6420530196156138  0.6350389212917318  1.0000
  H   H418      1.0  0.9487575864731023  0.6539683695230598  0.590472323236035  1.0000
  H   H419      1.0  0.008464398357442171  0.6679655857511783  0.5711628763132455  1.0000
  H   H420      1.0  0.03342504835726112  0.6470391496270536  0.5804909148204708  1.0000
  H   H421      1.0  0.04740828896960547  0.6678618378757873  0.6033726690791742  1.0000
  H   H422      1.0  0.00907695504212458  0.6813620132771209  0.6544657247591147  1.0000
  H   H423      1.0  0.9662443370316895  0.6707962275241129  0.6678583900896709  1.0000
  H   H424      1.0  0.9697380335254914  0.6819567111219614  0.6226263412621975  1.0000
  N   N15       1.0  0.5351105387663099  0.582484438143712  0.04277328701604932  1.0000
  C   C441      1.0  0.5468623970307491  0.5897040091163068  0.005392323094839613  1.0000
  C   C442      1.0  0.5226556488315407  0.5978564277470847  0.06699223105751217  1.0000
  C   C443      1.0  0.5666613492166981  0.5729495841708042  0.061615722422893926  1.0000
  C   C444      1.0  0.5042062692159652  0.569505380284581  0.0370432209024103  1.0000
  H   H425      1.0  0.5569069793020021  0.5786771495473542  0.9861211205292203  1.0000
  H   H426      1.0  0.5698965329291882  0.5996492830020548  0.00869836797526613  1.0000
  H   H427      1.0  0.5236070656768258  0.5969808214428268  0.9905330203491859  1.0000
  H   H428      1.0  0.49859200880815835  0.6052560161444523  0.05382755082795354  1.0000
  H   H429      1.0  0.5139198237785624  0.5929982287552031  0.09565684299814947  1.0000
  H   H430      1.0  0.5452201445870881  0.6080365702944807  0.07133949343780643  1.0000
  H   H431      1.0  0.5585321741817659  0.5672685848728735  0.08987894178574263  1.0000
  H   H432      1.0  0.590424667123544  0.5823389047819808  0.06678061007029501  1.0000
  H   H433      1.0  0.5771013486410885  0.56139102029105  0.04400557660886273  1.0000
  H   H434      1.0  0.5119933429307817  0.5583057177715128  0.017130894549416187  1.0000
  H   H435      1.0  0.4790007562181065  0.5764688325992017  0.02517317365905214  1.0000
  H   H436      1.0  0.49616432600942023  0.5629681233515157  0.06441103844977825  1.0000
  N   N16       1.0  0.735780346983658  0.7602490572533968  0.8568929491442592  1.0000
  C   C445      1.0  0.7330163649765411  0.7405787299263008  0.8476210309659336  1.0000
  C   C446      1.0  0.7748852295624261  0.7661147130809706  0.853519728483134  1.0000
  C   C447      1.0  0.7228715153202051  0.7633612777137352  0.8963284675745524  1.0000
  C   C448      1.0  0.7123258611574077  0.7709695554407922  0.8301090913838048  1.0000
  H   H437      1.0  0.703916369732502  0.7356544259257107  0.8500891336281708  1.0000
  H   H438      1.0  0.7504964680971503  0.7321287001736433  0.8672796900963892  1.0000
  H   H439      1.0  0.7424365759716777  0.7377810986096027  0.8179176917492118  1.0000
  H   H440      1.0  0.7778189444029642  0.780983322934591  0.8591332187970243  1.0000
  H   H441      1.0  0.7933381775255094  0.7587073365453915  0.8739962126093195  1.0000
  H   H442      1.0  0.7857711852801244  0.7635918461737072  0.82431146527989  1.0000
  H   H443      1.0  0.7401053294191648  0.755629199378403  0.9174382095755302  1.0000
  H   H444      1.0  0.6935930160099826  0.7588656286628981  0.9000184433471676  1.0000
  H   H445      1.0  0.7240401811882533  0.7780982706233606  0.9040638374768397  1.0000
  H   H446      1.0  0.6826324732558338  0.766924335710099  0.8318661165527702  1.0000
  H   H447      1.0  0.7212842584379655  0.7689530398809021  0.8000132634556164  1.0000
  H   H448      1.0  0.7139072505088198  0.7858982201970376  0.8363397533501186  1.0000
  N   N17       1.0  0.32149015288973604  0.8635002206985821  0.2330561949914858  1.0000
  C   C449      1.0  0.2924816932521416  0.8506187178634491  0.2201289300827199  1.0000
  C   C450      1.0  0.33635972522945773  0.8575296337578983  0.270558358443158  1.0000
  C   C451      1.0  0.30521847575464595  0.8820304744923799  0.23657757240563487  1.0000
  C   C452      1.0  0.35183512013910206  0.8638338081498039  0.20480117793652935  1.0000
  H   H449      1.0  0.28004172827361207  0.8550375670880724  0.19242083457360376  1.0000
  H   H450      1.0  0.2694508257340456  0.8497066401654568  0.2410040349409052  1.0000
  H   H451      1.0  0.30389479890001614  0.8365898917846293  0.21604311385511385  1.0000
  H   H452      1.0  0.3589494633393879  0.866681067558537  0.28076426712742586  1.0000
  H   H453      1.0  0.3143621487682509  0.8575855925640113  0.29274740637445473  1.0000
  H   H454      1.0  0.34786885020251146  0.8433785834459312  0.26925889438139494  1.0000
  H   H455      1.0  0.3260680424497175  0.8921063531404516  0.246807912371731  1.0000
  H   H456      1.0  0.28147639357575244  0.8822567063073435  0.256797209167875  1.0000
  H   H457      1.0  0.29453144704467077  0.8870621613068788  0.2085593214067576  1.0000
  H   H458      1.0  0.3413978075771744  0.8681397131136149  0.17609345775888696  1.0000
  H   H459      1.0  0.3648415031435306  0.8500917093298316  0.20139310322777396  1.0000
  H   H460      1.0  0.374039454206437  0.8736023267489222  0.21321724061122388  1.0000
  N   N18       1.0  0.8548611296918944  0.17782212993461924  0.8943452488665063  1.0000
  C   C453      1.0  0.8418282283308924  0.18993666208794183  0.9253182043014982  1.0000
  C   C454      1.0  0.8774235469596757  0.16273621218089976  0.910755677715977  1.0000
  C   C455      1.0  0.8777267128012569  0.1884749984520498  0.8674686356878314  1.0000
  C   C456      1.0  0.8224534302265681  0.17014909302130968  0.8738080156591094  1.0000
  H   H461      1.0  0.8244493931104783  0.20138519309010766  0.9140021167594151  1.0000
  H   H462      1.0  0.8655329173952373  0.19622696720503582  0.9409818926077242  1.0000
  H   H463      1.0  0.8250170958728855  0.18232434323505953  0.946563454973853  1.0000
  H   H464      1.0  0.8874947155119688  0.15326643060173384  0.888194573542142  1.0000
  H   H465      1.0  0.9023744237799652  0.16797191479782603  0.9260889129262929  1.0000
  H   H466      1.0  0.8612396498460421  0.15443408243284545  0.931379719809708  1.0000
  H   H467      1.0  0.9032414313503776  0.19380813669080854  0.8816122110730994  1.0000
  H   H468      1.0  0.8620203300820171  0.20030740279272632  0.8554260348470881  1.0000
  H   H469      1.0  0.8868474053729761  0.17996650384394008  0.8429713500618199  1.0000
  H   H470      1.0  0.8313010763237929  0.16066719990069703  0.8507221799915323  1.0000
  H   H471      1.0  0.8053468390905812  0.18107733837559067  0.860053523319256  1.0000
  H   H472      1.0  0.8042404127951736  0.1622590399877641  0.8933085119474421  1.0000
  N   N19       1.0  0.6502778195402943  0.5542595029394032  0.24546796626597497  1.0000
  C   C457      1.0  0.6715860007936688  0.554943670472444  0.2817243550743661  1.0000
  C   C458      1.0  0.667363684010374  0.5667093903396916  0.21735564137899563  1.0000
  C   C459      1.0  0.6113893217342632  0.5599527832976937  0.2522523229751367  1.0000
  C   C460      1.0  0.6506856962641124  0.5353770249167081  0.23048909797203332  1.0000
  H   H473      1.0  0.6600593349994537  0.5453929668753386  0.3033708249296609  1.0000
  H   H474      1.0  0.6713983102350167  0.5689314587780151  0.29423409369056036  1.0000
  H   H475      1.0  0.7012289959511468  0.5510313119715792  0.27745173439154736  1.0000
  H   H476      1.0  0.6524138134381732  0.5663521385795037  0.18935564059730822  1.0000
  H   H477      1.0  0.6671489190457193  0.5811292007010456  0.22747037442171364  1.0000
  H   H478      1.0  0.6968931602438646  0.5629013404488202  0.21188277691263602  1.0000
  H   H479      1.0  0.6098470531908355  0.5741294650938185  0.263700003579639  1.0000
  H   H480      1.0  0.5976178078668563  0.5507270446252214  0.27310789490649456  1.0000
  H   H481      1.0  0.5946369015455066  0.5595823037136609  0.22535352667118644  1.0000
  H   H482      1.0  0.633991907460519  0.5342551533528325  0.20368262887341101  1.0000
  H   H483      1.0  0.6389656841114053  0.5255013561772203  0.25135975189961274  1.0000
  H   H484      1.0  0.67940398289557  0.530700319628704  0.22396627231805147  1.0000
  N   N20       1.0  0.936065670524907  0.5247856688093557  0.3485207919611178  1.0000
  C   C461      1.0  0.926973542766583  0.5065687132992375  0.33281050911354443  1.0000
  C   C462      1.0  0.9085294828738556  0.5383459561757938  0.3345338893379046  1.0000
  C   C463      1.0  0.9736367384278424  0.5301870685803238  0.3361158068467443  1.0000
  C   C464      1.0  0.9350802904538589  0.5240731052970303  0.3906837486110585  1.0000
  H   H485      1.0  0.9472387511337059  0.4959559408649061  0.3425031095010278  1.0000
  H   H486      1.0  0.927110656419651  0.5065965979282482  0.30100138222546546  1.0000
  H   H487      1.0  0.8987787535843706  0.5020632854338183  0.3416706861526202  1.0000
  H   H488      1.0  0.9092961328409843  0.539740172182406  0.30290289703407763  1.0000
  H   H489      1.0  0.879759054067665  0.5343134722393663  0.3421571152613217  1.0000
  H   H490      1.0  0.9134595253922552  0.5521173861688559  0.3470731318005409  1.0000
  H   H491      1.0  0.981242368647963  0.5439235359793312  0.347420306048445  1.0000
  H   H492      1.0  0.9756247409737759  0.5307151189351891  0.3044468571718944  1.0000
  H   H493      1.0  0.9952551358553071  0.520427307013273  0.3467681377612834  1.0000
  H   H494      1.0  0.9412692311705121  0.5376904530065703  0.4034042281227892  1.0000
  H   H495      1.0  0.9561990831232863  0.5143292474151785  0.4022893759285777  1.0000
  H   H496      1.0  0.9072738468989026  0.5198340322699903  0.40109421411191887  1.0000
  N   N21       1.0  0.38143261717283333  0.4578447289258236  0.3380091146687444  1.0000
  C   C465      1.0  0.4054540401622353  0.46474085250962255  0.30721515927562915  1.0000
  C   C466      1.0  0.3610594342695854  0.473235018364948  0.3556684488848364  1.0000
  C   C467      1.0  0.40474799282103524  0.44868997753510403  0.3672988930074349  1.0000
  C   C468      1.0  0.354538012257908  0.44469532495510355  0.32179407343815497  1.0000
  H   H497      1.0  0.38882536475366575  0.4718102786174733  0.28469573833414374  1.0000
  H   H498      1.0  0.4210124512657475  0.45341429840178  0.2931254864030841  1.0000
  H   H499      1.0  0.42637325879380794  0.4745899355685414  0.3183711172871962  1.0000
  H   H500      1.0  0.34287085435345643  0.4684141906985583  0.3791964800306566  1.0000
  H   H501      1.0  0.3803766771865469  0.48347130001700767  0.3683319929075807  1.0000
  H   H502      1.0  0.3431395085078592  0.4805623278108959  0.33450647987684246  1.0000
  H   H503      1.0  0.3873894683142916  0.4424016257687536  0.3899219225995315  1.0000
  H   H504      1.0  0.4237352331340814  0.45857472682937456  0.3816104356081333  1.0000
  H   H505      1.0  0.42229989250479144  0.43774665123012585  0.35447503641063405  1.0000
  H   H506      1.0  0.33694547259797947  0.43852662625158056  0.3444026700513284  1.0000
  H   H507      1.0  0.3689656075054515  0.43334694502524634  0.30665273876796706  1.0000
  H   H508      1.0  0.33562510741002544  0.45142487074461446  0.30068982473678263  1.0000
  N   N22       1.0  0.6976433295034531  0.5166634779230617  0.03454216986386793  1.0000
  C   C469      1.0  0.7301071176416171  0.5118110619897258  0.058710833591477884  1.0000
  C   C470      1.0  0.6931850622903102  0.5028369079934635  0.004128651969384167  1.0000
  C   C471      1.0  0.7034952016397992  0.534845232925063  0.017130298213928974  1.0000
  C   C472      1.0  0.6637792404154287  0.5171457399555698  0.05819531122882071  1.0000
  H   H509      1.0  0.7347237667893514  0.5221726909747237  0.08134633112580536  1.0000
  H   H510      1.0  0.7561665080264889  0.5110842079994524  0.041830568832000425  1.0000
  H   H511      1.0  0.7263537062691536  0.49841107546594504  0.07326757035338072  1.0000
  H   H512      1.0  0.6688507283549991  0.5060592363195436  0.9854155378827809  1.0000
  H   H513      1.0  0.7182297973034157  0.5021409798176621  0.9856730646711617  1.0000
  H   H514      1.0  0.6887854852124038  0.4889563212645181  0.016381355331397396  1.0000
  H   H515      1.0  0.6795710264545589  0.5390034359778956  0.9986972098606361  1.0000
  H   H516      1.0  0.7290582590710225  0.5351197464965357  0.9994212618845254  1.0000
  H   H517      1.0  0.706708742171292  0.5455971221215977  0.0393367002145244  1.0000
  H   H518      1.0  0.6386295212284715  0.5207603498888157  0.04107826354402477  1.0000
  H   H519      1.0  0.6659483156752845  0.5274670215517476  0.08140704944062982  1.0000
  H   H520      1.0  0.6585509490242151  0.5037091230350109  0.07208054977476341  1.0000
  N   N23       1.0  0.09712297208483163  0.07986573410221509  0.05029544214560899  1.0000
  C   C473      1.0  0.10405075211832394  0.06061816837608869  0.06134981560433905  1.0000
  C   C474      1.0  0.08393367831405762  0.09039342470199951  0.0836097222242036  1.0000
  C   C475      1.0  0.06844651054707329  0.08042972634965317  0.01996243115542362  1.0000
  C   C476      1.0  0.13186896140364798  0.08803404295965911  0.036051900724646035  1.0000
  H   H521      1.0  0.07856408230134893  0.05416485939554949  0.07310131135482201  1.0000
  H   H522      1.0  0.12627124237018994  0.059546768100731784  0.08347622825146184  1.0000
  H   H523      1.0  0.11319611000744083  0.052310259167791084  0.03651008382305965  1.0000
  H   H524      1.0  0.07614434975760043  0.10465054770955673  0.0755411213576731  1.0000
  H   H525      1.0  0.059126159355532566  0.08397124053694682  0.09656341435011757  1.0000
  H   H526      1.0  0.10566292337030252  0.09125593209953808  0.10627835244912576  1.0000
  H   H527      1.0  0.06246036571394397  0.09471997509941632  0.010898213814303892  1.0000
  H   H528      1.0  0.041958003635317986  0.07434374636976049  0.029817140521614993  1.0000
  H   H529      1.0  0.07739681951844757  0.07274426805992396  0.9941709160459371  1.0000
  H   H530      1.0  0.12753687355074478  0.1025364151338255  0.027247207902166615  1.0000
  H   H531      1.0  0.14245707728285292  0.08051802634796856  0.010722349868069303  1.0000
  H   H532      1.0  0.15413323399844817  0.08780480563147708  0.05838078166607796  1.0000
  N   N24       1.0  0.594982778116249  0.8450683010392765  0.5678398932939234  1.0000
  C   C477      1.0  0.5626293955020357  0.8431305510070495  0.541882282386325  1.0000
  C   C478      1.0  0.583796894604456  0.8408670657989576  0.607395412265608  1.0000
  C   C479      1.0  0.6088549534900154  0.8640254087111787  0.566037123000221  1.0000
  C   C480      1.0  0.6247988990651788  0.832324008099972  0.5560364047069873  1.0000
  H   H533      1.0  0.5504091068080221  0.8292045880601735  0.5434781566832806  1.0000
  H   H534      1.0  0.5705938697259572  0.8455106184617622  0.511645472752562  1.0000
  H   H535      1.0  0.5402320957107513  0.853168569045799  0.548747828008057  1.0000
  H   H536      1.0  0.5611795605876472  0.8502078208289868  0.6170301794684784  1.0000
  H   H537      1.0  0.5735241639335403  0.8265885848534424  0.6099697811419739  1.0000
  H   H538      1.0  0.6076029839596715  0.8424207397791841  0.6276854641684809  1.0000
  H   H539      1.0  0.6340127699222473  0.8658694243234473  0.5843545705893243  1.0000
  H   H540      1.0  0.5874295530247848  0.8740915453922586  0.5754159084262727  1.0000
  H   H541      1.0  0.6165176713953332  0.8678029746059471  0.5364058624831411  1.0000
  H   H542      1.0  0.649267979092985  0.8330978677834892  0.5756165409749233  1.0000
  H   H543      1.0  0.6350366397781992  0.8356096053372256  0.5268602132013661  1.0000
  H   H544      1.0  0.6151311359209056  0.8179003404738754  0.5558548359956483  1.0000
  N   N25       1.0  0.36894529240912594  0.23923982958249881  0.8111054154607389  1.0000
  C   C481      1.0  0.3728834964533489  0.22001995636533062  0.8237807595314351  1.0000
  C   C482      1.0  0.34319568259525013  0.24021489359653556  0.7780607508368433  1.0000
  C   C483      1.0  0.40567925857910614  0.24628591790376797  0.799735914441168  1.0000
  C   C484      1.0  0.35409224414354  0.25046735710875007  0.8426670045497882  1.0000
  H   H545      1.0  0.3930720149713919  0.21871022277239038  0.8478581007541987  1.0000
  H   H546      1.0  0.3828938980391501  0.21108914487436137  0.8002149921460407  1.0000
  H   H547      1.0  0.34598274314966826  0.21439674232112577  0.8339164664161689  1.0000
  H   H548      1.0  0.31515759451370556  0.2350337191751479  0.7855761241916839  1.0000
  H   H549      1.0  0.339697077311808  0.2545723053255853  0.7678027969712733  1.0000
  H   H550      1.0  0.3536791311308565  0.2319434013014774  0.7536213759075231  1.0000
  H   H551      1.0  0.425799962772564  0.2460805737639468  0.8240091043583644  1.0000
  H   H552      1.0  0.40359497845491055  0.26065324451375366  0.7895139196505815  1.0000
  H   H553      1.0  0.4178088619316454  0.23802362458291962  0.7761788026199046  1.0000
  H   H554      1.0  0.34900002596302043  0.26483023539760253  0.8334885718655739  1.0000
  H   H555      1.0  0.3737623496523868  0.25094764365995326  0.8672551944414305  1.0000
  H   H556      1.0  0.32719761524345553  0.24505699417183963  0.8533086851474244  1.0000
  N   N26       1.0  0.7505050358413229  0.7184716719612672  0.0945696911356749  1.0000
  C   C485      1.0  0.7134767754329133  0.7217288642647325  0.11136309759558186  1.0000
  C   C486      1.0  0.7526222987276681  0.7278145975735307  0.057180661695832795  1.0000
  C   C487      1.0  0.7563574546031152  0.6986081651396663  0.08930108591186586  1.0000
  C   C488      1.0  0.7795160704011564  0.7257463141525353  0.12043686070111069  1.0000
  H   H557      1.0  0.6909038786979705  0.7165595800384751  0.09238498383462446  1.0000
  H   H558      1.0  0.7082871910675693  0.7365998115983861  0.11602458603826243  1.0000
  H   H559      1.0  0.7106569951620743  0.7147265669937175  0.13940601680847342  1.0000
  H   H560      1.0  0.7307263354202557  0.7228758898163272  0.03714789213424652  1.0000
  H   H561      1.0  0.7487372114466349  0.7428548958840984  0.06020454249449747  1.0000
  H   H562      1.0  0.7799511811768565  0.7254803323783527  0.04333187124150695  1.0000
  H   H563      1.0  0.7841295999784582  0.6955682854061801  0.07701310403497952  1.0000
  H   H564      1.0  0.7352575634693116  0.6927756471113589  0.06955042126102184  1.0000
  H   H565      1.0  0.754032430231903  0.6910060728486633  0.11673797372298961  1.0000
  H   H566      1.0  0.7757971796031837  0.7407134285176574  0.1251334130533706  1.0000
  H   H567      1.0  0.8078075313150642  0.7236710914577551  0.1085187925446237  1.0000
  H   H568      1.0  0.778698081653205  0.7189993334270964  0.1489187600121508  1.0000
  N   N27       1.0  0.8769203808223427  0.3632866216564689  0.665889165135913  1.0000
  C   C489      1.0  0.8837330202970818  0.37672813517255044  0.6351422609970221  1.0000
  C   C490      1.0  0.8998706322303782  0.3467752998992891  0.6593876824587676  1.0000
  C   C491      1.0  0.837184286779304  0.3581946853795155  0.6658814588732  1.0000
  C   C492      1.0  0.8869160367359723  0.3713688676761151  0.703228112168506  1.0000
  H   H569      1.0  0.8670593617037674  0.38944534254811286  0.6391394784699499  1.0000
  H   H570      1.0  0.8763245967680988  0.37104588715170034  0.6066433453438729  1.0000
  H   H571      1.0  0.9135286794115229  0.38077285505443714  0.6340634652585437  1.0000
  H   H572      1.0  0.8959037628527534  0.3364858420367496  0.6824140549841216  1.0000
  H   H573      1.0  0.8924246364268423  0.34009414814939015  0.6319181295159787  1.0000
  H   H574      1.0  0.9300042902231747  0.3501009645266276  0.6582711215524747  1.0000
  H   H575      1.0  0.8310860566280426  0.3481906611402743  0.688976561327641  1.0000
  H   H576      1.0  0.8286809164789444  0.3517827363568366  0.6383711542421047  1.0000
  H   H577      1.0  0.8189219182569987  0.370307572319347  0.6704202704491099  1.0000
  H   H578      1.0  0.8821068104839767  0.36152129414925094  0.7270199127059833  1.0000
  H   H579      1.0  0.8699666529227195  0.38380003458693523  0.7092332736855221  1.0000
  H   H580      1.0  0.9167280906005586  0.37534876747193935  0.7042993391726966  1.0000
  N   N28       1.0  0.5061715085967344  0.7475350775815144  0.9599780087941416  1.0000
  C   C493      1.0  0.5292045527566419  0.7316329514753935  0.9715888140384269  1.0000
  C   C494      1.0  0.4812735549471162  0.7526446207804308  0.991657369661632  1.0000
  C   C495      1.0  0.48369364568155554  0.7427805643068132  0.9259487343382096  1.0000
  C   C496      1.0  0.530519053381579  0.763127999820809  0.9508213638594332  1.0000
  H   H581      1.0  0.5116459227510849  0.7195841042461384  0.9785463632839473  1.0000
  H   H582      1.0  0.5463035395549874  0.7348130115287714  0.9974178481477729  1.0000
  H   H583      1.0  0.5486214967657076  0.7274751449401238  0.9485454330050136  1.0000
  H   H584      1.0  0.4973171376424274  0.7558079510252135  0.018097341003005196  1.0000
  H   H585      1.0  0.46422525332201336  0.7649661497585837  0.9843878873356062  1.0000
  H   H586      1.0  0.46163945871960804  0.741414418710477  0.9984767399801018  1.0000
  H   H587      1.0  0.4656942525245933  0.7544770412508627  0.916821658453312  1.0000
  H   H588      1.0  0.46487469340531345  0.731071820215566  0.9318286505126501  1.0000
  H   H589      1.0  0.5014778392435165  0.7389165106198845  0.901390307419773  1.0000
  H   H590      1.0  0.5487678983140029  0.7600872338218017  0.9261205284368725  1.0000
  H   H591      1.0  0.5489174538702851  0.7665292945888899  0.9754001583974976  1.0000
  H   H592      1.0  0.5140168292778451  0.7756665868269125  0.9438723304569812  1.0000
  N   N29       1.0  0.7819110732326574  0.4327014516866225  0.31817542682162925  1.0000
  C   C497      1.0  0.7917071570203729  0.4377496489848458  0.27865447439561997  1.0000
  C   C498      1.0  0.7480059265543173  0.44276376160285535  0.32953595818224096  1.0000
  C   C499      1.0  0.8130225158836872  0.4374368375487036  0.3440991207547466  1.0000
  C   C500      1.0  0.7750566963149581  0.4128253938773826  0.3202996869274488  1.0000
  H   H593      1.0  0.7685130156265763  0.43498966032504804  0.25827678040031254  1.0000
  H   H594      1.0  0.816481212251368  0.43000780541015493  0.26864162433099514  1.0000
  H   H595      1.0  0.7986387982895871  0.45249812234364134  0.2765214097945394  1.0000
  H   H596      1.0  0.7521084514213107  0.4578193955675192  0.3280602860243833  1.0000
  H   H597      1.0  0.7241244163131868  0.4396016079626127  0.3102428283290477  1.0000
  H   H598      1.0  0.7396717653057225  0.4393174379277024  0.3591927467808617  1.0000
  H   H599      1.0  0.8069564005590736  0.4335571044175382  0.3741112747795873  1.0000
  H   H600      1.0  0.8188953539350977  0.45237327551711687  0.34337735772444883  1.0000
  H   H601      1.0  0.8391371098843585  0.43025682484842814  0.3357075431803966  1.0000
  H   H602      1.0  0.7676581865532321  0.40841496618220646  0.34968873773580833  1.0000
  H   H603      1.0  0.8002619387149876  0.40493084320745365  0.31212951382645576  1.0000
  H   H604      1.0  0.7521052643111698  0.4086133946562555  0.3007654468239839  1.0000
  N   N30       1.0  0.906578637508538  0.10006561495847083  0.7099121700856554  1.0000
  C   C501      1.0  0.9209335398798995  0.11739216604696233  0.7258272911412862  1.0000
  C   C502      1.0  0.903351983704542  0.10165353097712843  0.6679236664527249  1.0000
  C   C503      1.0  0.8696011126997777  0.09622430632840293  0.7260942917119269  1.0000
  C   C504      1.0  0.9323709119507795  0.08496293632823639  0.7198887430207266  1.0000
  H   H605      1.0  0.9013507050098432  0.12899411687657547  0.7204204906525647  1.0000
  H   H606      1.0  0.9481486526921183  0.1211070287337827  0.7131947322408485  1.0000
  H   H607      1.0  0.9251402860684115  0.11638588051609934  0.7572596057642363  1.0000
  H   H608      1.0  0.8840877630608867  0.11295746993717619  0.6595479049952474  1.0000
  H   H609      1.0  0.9306963430292787  0.10442305913782052  0.6545547288547747  1.0000
  H   H610      1.0  0.8919173808835534  0.08893065970955608  0.6549940565629301  1.0000
  H   H611      1.0  0.8571389831885351  0.0836914552275458  0.7133891388739154  1.0000
  H   H612      1.0  0.8497796871456111  0.10765570103930958  0.7204187031978266  1.0000
  H   H613      1.0  0.8711392358106477  0.09415036591988188  0.7575032807950833  1.0000
  H   H614      1.0  0.9222383639006029  0.07166610515474468  0.7084770737270402  1.0000
  H   H615      1.0  0.9353674660809862  0.08345908194488892  0.7514810023574371  1.0000
  H   H616      1.0  0.9605994297530157  0.08737546747654035  0.7081797049249353  1.0000
  N   N31       1.0  0.4250030789346684  0.3488324057733247  0.401232064405538  1.0000
  C   C505      1.0  0.3873966208966868  0.3412142966147635  0.4062383187597549  1.0000
  C   C506      1.0  0.42710284896720085  0.36690754355877053  0.419980539854198  1.0000
  C   C507      1.0  0.43272260914019633  0.3508743552920889  0.36002140711012504  1.0000
  C   C508      1.0  0.4526309783972393  0.3363360737783568  0.4188910052590311  1.0000
  H   H617      1.0  0.36572165595542105  0.3505319179135159  0.3943104428316509  1.0000
  H   H618      1.0  0.3810440715815808  0.33909184673544585  0.4369674658472888  1.0000
  H   H619      1.0  0.3842702233274977  0.32782113833830784  0.39154557222597347  1.0000
  H   H620      1.0  0.40662136708030516  0.37667573375759306  0.40735031594072074  1.0000
  H   H621      1.0  0.4210446405850994  0.3658800829426008  0.45108726161321977  1.0000
  H   H622      1.0  0.4551434628106614  0.37305748354722273  0.4169479670226831  1.0000
  H   H623      1.0  0.4119761746994408  0.36005014089059467  0.34593050602458153  1.0000
  H   H624      1.0  0.4315165050686285  0.33750574085791046  0.344900348278937  1.0000
  H   H625      1.0  0.46066691204299404  0.35685074991079074  0.35499914238712027  1.0000
  H   H626      1.0  0.44743911327257013  0.3346489979335955  0.4500887188298079  1.0000
  H   H627      1.0  0.481403314094911  0.34159699829646867  0.4155866014342288  1.0000
  H   H628      1.0  0.45153658050672885  0.32249804131208665  0.40572186768584667  1.0000
  N   N32       1.0  0.2087084760997251  0.12909086592452626  0.8369873367069306  1.0000
  C   C509      1.0  0.1706644377203017  0.13358484321209968  0.8497700243675881  1.0000
  C   C510      1.0  0.22976973369995313  0.12075467233084394  0.8689430229852773  1.0000
  C   C511      1.0  0.22755219304883267  0.14598790265784234  0.824578121813184  1.0000
  C   C512      1.0  0.20702851816172196  0.11601187109368159  0.8048894222711152  1.0000
  H   H629      1.0  0.1536187139316494  0.13966754323122604  0.8263197134718846  1.0000
  H   H630      1.0  0.17121460995519122  0.14359873178486499  0.8736977326608969  1.0000
  H   H631      1.0  0.15589289590130528  0.12120927679536139  0.860293645747878  1.0000
  H   H632      1.0  0.25770432383815445  0.1160486866447617  0.8598569678705242  1.0000
  H   H633      1.0  0.23408247206880128  0.13071751350215907  0.8924850380527865  1.0000
  H   H634      1.0  0.21520923047419016  0.10864569303967687  0.8807907943827297  1.0000
  H   H635      1.0  0.2565057617932962  0.14308293322669194  0.815174410339003  1.0000
  H   H636      1.0  0.22936578064372926  0.15611323215446687  0.848280389341636  1.0000
  H   H637      1.0  0.2125859391349858  0.15263264122275305  0.8003252361950598  1.0000
  H   H638      1.0  0.1932829450744702  0.10305321169591229  0.8135423537066062  1.0000
  H   H639      1.0  0.23548678534315481  0.11242628511150309  0.794732651247675  1.0000
  H   H640      1.0  0.19127401021489465  0.12179126838182786  0.7801835012007805  1.0000
  N   N33       1.0  0.9420787839009183  0.36270684077444165  0.12233593762390726  1.0000
  C   C513      1.0  0.9095380516171532  0.3718830409543165  0.10463122422657722  1.0000
  C   C514      1.0  0.9525610667927495  0.37239018903377796  0.15782315464849872  1.0000
  C   C515      1.0  0.9734758884238596  0.3630133568419222  0.09535089031228927  1.0000
  C   C516      1.0  0.9326675951185907  0.34353811335059253  0.1314284509527126  1.0000
  H   H641      1.0  0.884878712863861  0.37128377917827815  0.12354588299518032  1.0000
  H   H642      1.0  0.9018049691766787  0.3654423801264143  0.07696665389703461  1.0000
  H   H643      1.0  0.915022160299662  0.38662701183346215  0.09906986972491216  1.0000
  H   H644      1.0  0.9294945741880261  0.3722222670594447  0.17884423716718034  1.0000
  H   H645      1.0  0.9773779083612841  0.3660716200311958  0.17174800669569734  1.0000
  H   H646      1.0  0.9588996760954177  0.38705122623331195  0.15220158000126904  1.0000
  H   H647      1.0  0.9663018083231334  0.35577532012157576  0.06825451636695079  1.0000
  H   H648      1.0  0.9985529134047103  0.3561679314223029  0.10765761579163802  1.0000
  H   H649      1.0  0.9811949369955927  0.37728723884697035  0.08778123598320398  1.0000
  H   H650      1.0  0.9561244090119938  0.33633788762800737  0.14597658718833473  1.0000
  H   H651      1.0  0.9260037652484168  0.33569317039657326  0.10509932234818242  1.0000
  H   H652      1.0  0.9080064888750378  0.3427008971071734  0.15042431981165283  1.0000
  N   N34       1.0  0.551312347538083  0.9303322867325594  0.41076945024956046  1.0000
  C   C517      1.0  0.5494717488875156  0.9406262419403442  0.37447937456036706  1.0000
  C   C518      1.0  0.5152586001824161  0.9213476619502085  0.4177431335233433  1.0000
  C   C519      1.0  0.559474559028983  0.9430817801541818  0.44246172321979255  1.0000
  C   C520      1.0  0.5809644040722313  0.9163222554288282  0.4083952456926439  1.0000
  H   H653      1.0  0.5763544920854089  0.9473960229500656  0.3679631747968128  1.0000
  H   H654      1.0  0.5282128318787308  0.9516648330289467  0.37569617799193206  1.0000
  H   H655      1.0  0.5423153956711139  0.9316178498744544  0.34996573702725714  1.0000
  H   H656      1.0  0.5150665524407548  0.914373350162496  0.4460087863947188  1.0000
  H   H657      1.0  0.4920468125994637  0.9314528535142595  0.417971079611898  1.0000
  H   H658      1.0  0.5087972855917758  0.9109327737919457  0.39559932052621033  1.0000
  H   H659      1.0  0.5608470094149807  0.9357937859483759  0.47040054017148086  1.0000
  H   H660      1.0  0.5373246107061896  0.953719462031143  0.44508303862311516  1.0000
  H   H661      1.0  0.5864493213988404  0.9501446152656661  0.43834295272841683  1.0000
  H   H662      1.0  0.5841756915356932  0.9088429900625878  0.4358614213552095  1.0000
  H   H663      1.0  0.6083046687077714  0.9225167185975205  0.4014903220391503  1.0000
  H   H664      1.0  0.5748575135473563  0.9060314821901443  0.3858524483077084  1.0000
  N   N35       1.0  0.07756800763155747  0.21170590555060162  0.9936457600851843  1.0000
  C   C521      1.0  0.04903021920278827  0.19906732327778134  0.008249008271575375  1.0000
  C   C522      1.0  0.08833299294625929  0.22467156377696346  0.024095582599231058  1.0000
  C   C523      1.0  0.062325005989831705  0.22199550314462435  0.9606500159361411  1.0000
  C   C524      1.0  0.11052563109687652  0.20108637962035908  0.9815105425986652  1.0000
  H   H665      1.0  0.023152659358256944  0.20652554485993196  0.01621914118191259  1.0000
  H   H666      1.0  0.05916145708044618  0.19146665016435316  0.03386853376163379  1.0000
  H   H667      1.0  0.04126953164194869  0.1887043778232078  0.9864026648753854  1.0000
  H   H668      1.0  0.10958845604776779  0.23454990111512922  0.013936856585538004  1.0000
  H   H669      1.0  0.06404762550990806  0.23295285781140704  0.03370632359175918  1.0000
  H   H670      1.0  0.10010522268731714  0.21746325027065083  0.04946776226996552  1.0000
  H   H671      1.0  0.05526363595486661  0.2126907243973159  0.9365933795053725  1.0000
  H   H672      1.0  0.08255675030472531  0.23223612904866278  0.9499487588518748  1.0000
  H   H673      1.0  0.03661612563805816  0.2296720316695868  0.9683849810553081  1.0000
  H   H674      1.0  0.10320680547115191  0.19114954510724932  0.958535317447534  1.0000
  H   H675      1.0  0.12278657585272579  0.1931111560599829  0.0056618165970787615  1.0000
  H   H676      1.0  0.13263495749990595  0.2101924773829847  0.9702709588109346  1.0000
  N   N36       1.0  0.009609052512310479  0.5480304661786698  0.6717823475821743  1.0000
  C   C525      1.0  0.01109790524165244  0.5282973136214779  0.662680741384359  1.0000
  C   C526      1.0  0.028665741667483147  0.5513601095680114  0.7086381657024673  1.0000
  C   C527      1.0  0.9703830711008417  0.5540373632802431  0.6743452866071417  1.0000
  C   C528      1.0  0.02832474087268344  0.5584571949391863  0.6413680365505161  1.0000
  H   H677      1.0  0.9959365723780222  0.525246832811808  0.6356430818339377  1.0000
  H   H678      1.0  0.9982598743487446  0.519875541193819  0.6854712647545876  1.0000
  H   H679      1.0  0.04021470367699265  0.523412502417638  0.6588750072706027  1.0000
  H   H680      1.0  0.01529053231755717  0.5437673318906897  0.7323408821080701  1.0000
  H   H681      1.0  0.05843333229456449  0.5471610102160303  0.7075589983697184  1.0000
  H   H682      1.0  0.028191073478428086  0.5661460815873367  0.7161454784968226  1.0000
  H   H683      1.0  0.9549212128668392  0.5460327491535959  0.6960155273806089  1.0000
  H   H684      1.0  0.9556069274542125  0.552502046413315  0.6464919803324894  1.0000
  H   H685      1.0  0.968240764490953  0.5687219252361018  0.6824032494496572  1.0000
  H   H686      1.0  0.02561651240039775  0.5734865663953403  0.6458983846361787  1.0000
  H   H687      1.0  0.016135988220753017  0.5554018274858319  0.6128465757762153  1.0000
  H   H688      1.0  0.05854666691992172  0.5552455454844628  0.6401890225776934  1.0000
  N   N37       1.0  0.0503960100378238  0.9345002379886419  0.14874218951113272  1.0000
  C   C529      1.0  0.07829250525177489  0.9248174944256335  0.1253565398622789  1.0000
  C   C530      1.0  0.05377182038827399  0.9544651152118301  0.14294042961514242  1.0000
  C   C531      1.0  0.05683779571407754  0.930141662621164  0.18947710419367514  1.0000
  C   C532      1.0  0.012721194265393088  0.9285498405438689  0.13730179106463258  1.0000
  H   H689      1.0  0.0758803762641511  0.9097149554353708  0.12846288551394558  1.0000
  H   H690      1.0  0.10709079728865561  0.9285390165229946  0.1339882960083434  1.0000
  H   H691      1.0  0.07511137704682214  0.9281576996768438  0.09452444764251022  1.0000
  H   H692      1.0  0.08209328101538982  0.9593488095804875  0.1507753433793675  1.0000
  H   H693      1.0  0.04856732377645522  0.958342593266757  0.11264208683137578  1.0000
  H   H694      1.0  0.03355264963864624  0.9621743544221187  0.16085771010462557  1.0000
  H   H695      1.0  0.05592466208864355  0.915112095740495  0.1947363753995186  1.0000
  H   H696      1.0  0.03559033903509402  0.9367266657218094  0.20788403449239068  1.0000
  H   H697      1.0  0.08447486656529768  0.9351600199093846  0.1992629488712092  1.0000
  H   H698      1.0  0.008474490618928911  0.913746083337494  0.14353220347980988  1.0000
  H   H699      1.0  0.007714954939559203  0.9306932272377647  0.10623169207157823  1.0000
  H   H700      1.0  0.9909483605631799  0.9364326770315564  0.1526935704792618  1.0000
  N   N38       1.0  0.8689224245426526  0.055792177467011816  0.1348711770154447  1.0000
  C   C533      1.0  0.8398659358734033  0.06992817607709201  0.13986425935190816  1.0000
  C   C534      1.0  0.9024784610110763  0.06108694960367367  0.15660131371498442  1.0000
  C   C535      1.0  0.8783154459801896  0.05412344252368029  0.09398172758236778  1.0000
  C   C536      1.0  0.8552948692434426  0.0380306020077803  0.1491891262258902  1.0000
  H   H701      1.0  0.8140536242592145  0.06641829340516003  0.12383596791463325  1.0000
  H   H702      1.0  0.8494546799437991  0.0835142125547248  0.12953490875279483  1.0000
  H   H703      1.0  0.8323943128562147  0.07144199656868055  0.17054625244272748  1.0000
  H   H704      1.0  0.8966315295877229  0.06259904882188416  0.1875906315880984  1.0000
  H   H705      1.0  0.9247111110711275  0.05058628738118909  0.15369976055598644  1.0000
  H   H706      1.0  0.9138752167975497  0.07432738077790102  0.1463859502957905  1.0000
  H   H707      1.0  0.8999784377708442  0.04339020822687334  0.08942567524523981  1.0000
  H   H708      1.0  0.8896503811681336  0.06716216630303062  0.0824882382673755  1.0000
  H   H709      1.0  0.8536261307549604  0.05036022488543446  0.07644390887008323  1.0000
  H   H710      1.0  0.8763220389457155  0.027001682579178565  0.14500857637838283  1.0000
  H   H711      1.0  0.8294155077987563  0.033770520921154734  0.13416102443687095  1.0000
  H   H712      1.0  0.8492575507860882  0.0386134348445164  0.180352574123829  1.0000
  N   N39       1.0  0.5578223743576033  0.3155298430243336  0.7089875234315772  1.0000
  C   C537      1.0  0.5791111872741854  0.3321546468418918  0.718653077490256  1.0000
  C   C538      1.0  0.5583178946300806  0.3029349925556303  0.7420455216941211  1.0000
  C   C539      1.0  0.5749810374592762  0.3064144273917426  0.6757700542712529  1.0000
  C   C540      1.0  0.5189835639694227  0.3206124257551261  0.6995769441757431  1.0000
  H   H713      1.0  0.579381915818882  0.341984178406031  0.694358546696983  1.0000
  H   H714      1.0  0.6086114739430917  0.3287404999329625  0.7258531949147732  1.0000
  H   H715      1.0  0.5670053709404513  0.33930890045623774  0.7437431423170491  1.0000
  H   H716      1.0  0.5872709986600706  0.2996822882070561  0.751323193992715  1.0000
  H   H717      1.0  0.5435502644971772  0.30891437047825737  0.7669665793217679  1.0000
  H   H718      1.0  0.5441975186791388  0.2898045027201974  0.7351507799844753  1.0000
  H   H719      1.0  0.5606004087306765  0.293387898616415  0.668577380454205  1.0000
  H   H720      1.0  0.6046942096826395  0.3030174722878826  0.6814941870315541  1.0000
  H   H721      1.0  0.5739944635450849  0.31526444804267945  0.6499126652101547  1.0000
  H   H722      1.0  0.5174015798528596  0.3302336178658246  0.6749769587250001  1.0000
  H   H723      1.0  0.5048863410890252  0.32717053766701415  0.724295927550888  1.0000
  H   H724      1.0  0.5022786955590619  0.30837128615770526  0.6920279987961152  1.0000
  N   N40       1.0  0.5591824504347729  0.03323987742495138  0.476960110003987  1.0000
  C   C541      1.0  0.5814861793725246  0.0464934510965449  0.4990684170670885  1.0000
  C   C542      1.0  0.5841766770277821  0.02154730592272358  0.4540915369634185  1.0000
  C   C543      1.0  0.5334581012048237  0.04332267872797524  0.45130520482426456  1.0000
  C   C544      1.0  0.5377541953221636  0.02170813530809923  0.5034835762176089  1.0000
  H   H725      1.0  0.5634352676339369  0.05543907425354422  0.5168580218888507  1.0000
  H   H726      1.0  0.5976887044058572  0.05549506746677313  0.4797481201737908  1.0000
  H   H727      1.0  0.6015432833107718  0.03938825324280315  0.5184556582735571  1.0000
  H   H728      1.0  0.5682536968303384  0.011914837055871264  0.43565912076720115  1.0000
  H   H729      1.0  0.6018465671843197  0.02991924346767627  0.4350194600117829  1.0000
  H   H730      1.0  0.6033240872970275  0.013358193132151142  0.4726090831971989  1.0000
  H   H731      1.0  0.5162085007889079  0.033878428413488315  0.4337455004764887  1.0000
  H   H732      1.0  0.548882741490526  0.05229610651002292  0.43123932426782413  1.0000
  H   H733      1.0  0.5140565511852481  0.05217711021493754  0.467689525121803  1.0000
  H   H734      1.0  0.5193124091698575  0.012075265098973942  0.4877779609756059  1.0000
  H   H735      1.0  0.5198365019046467  0.030188670120683936  0.5223094090102103  1.0000
  H   H736      1.0  0.5564723455170203  0.013443557957480978  0.5222971894701502  1.0000
  N   N41       1.0  0.19228904100183827  0.6949732041443974  0.7426889249308622  1.0000
  C   C545      1.0  0.18469328653514575  0.7141980485412276  0.7318974157936871  1.0000
  C   C546      1.0  0.15742606633876735  0.6862315351932984  0.755094768638569  1.0000
  C   C547      1.0  0.2197838995544502  0.6944801549947844  0.7742849523604927  1.0000
  C   C548      1.0  0.20722024135368722  0.6849753726963387  0.7094500805665264  1.0000
  H   H737      1.0  0.16349711188075874  0.7151495454586263  0.7086671505278503  1.0000
  H   H738      1.0  0.21026167759157435  0.7211627305358969  0.7217676808823703  1.0000
  H   H739      1.0  0.17417070195782205  0.7222470125323097  0.7565638814164463  1.0000
  H   H740      1.0  0.16221031954024465  0.6716724150459266  0.763380932787207  1.0000
  H   H741      1.0  0.14532096968575237  0.6933866628103671  0.7801474427886068  1.0000
  H   H742      1.0  0.13611636262134225  0.686380379779286  0.7318495806601789  1.0000
  H   H743      1.0  0.22629127068669225  0.6801714071966495  0.7831665508214141  1.0000
  H   H744      1.0  0.20935040092595472  0.7018458908056661  0.7998932369045593  1.0000
  H   H745      1.0  0.24636570591140172  0.70103929658071  0.7659056366944337  1.0000
  H   H746      1.0  0.18698460192205937  0.684913425745396  0.6853015380950693  1.0000
  H   H747      1.0  0.21340907567238415  0.6704319163812378  0.716694004568403  1.0000
  H   H748      1.0  0.2333346027520266  0.6912456146165012  0.6989750584404265  1.0000
  N   N42       1.0  0.8507075166616909  0.8508204344202122  0.6146165754448694  1.0000
  C   C549      1.0  0.8359052930407643  0.8452138296872677  0.652065300668033  1.0000
  C   C550      1.0  0.8797801643532828  0.8376984839808155  0.6026769448163345  1.0000
  C   C551      1.0  0.8668175611358363  0.8693106914408638  0.6178621714566225  1.0000
  C   C552      1.0  0.8202983545002782  0.8510437210219065  0.5860143631682837  1.0000
  H   H749      1.0  0.8145366780437477  0.8550117448520614  0.6626834255495111  1.0000
  H   H750      1.0  0.858397270259236  0.8442350288893686  0.6740034763855026  1.0000
  H   H751      1.0  0.8225042167818379  0.8315718077245455  0.6503976561310088  1.0000
  H   H752      1.0  0.8905738007275823  0.840977983072093  0.5738141837347974  1.0000
  H   H753      1.0  0.9038176294601817  0.8376982930193374  0.6229322646076801  1.0000
  H   H754      1.0  0.8689920927185258  0.823432702066826  0.6020181375326508  1.0000
  H   H755      1.0  0.8784726710960449  0.8739588249813688  0.5901752215732903  1.0000
  H   H756      1.0  0.8896198788846967  0.8696069726738185  0.6395567063680004  1.0000
  H   H757      1.0  0.8454448108389003  0.8795170495337045  0.6267128086325557  1.0000
  H   H758      1.0  0.830254259349279  0.8552214050088016  0.5573169401487311  1.0000
  H   H759      1.0  0.7978980072615799  0.8607793624009886  0.5942581597337256  1.0000
  H   H760      1.0  0.8074122436726845  0.8373012227965427  0.5829768231048146  1.0000
  N   N43       1.0  0.454999002988627  0.1590484826332982  0.8126841706324034  1.0000
  C   C553      1.0  0.4164174500424566  0.15529301352476224  0.8002849024688816  1.0000
  C   C554      1.0  0.47513289174685286  0.1681958689788489  0.7814167115384791  1.0000
  C   C555      1.0  0.4739717507341201  0.14165261904729692  0.8223979562874872  1.0000
  C   C556      1.0  0.45446316390236446  0.17104280439024241  0.8466076949151773  1.0000
  H   H761      1.0  0.40011676035058935  0.14865879443378308  0.823262522478471  1.0000
  H   H762      1.0  0.4157690242630542  0.14592406873561006  0.7753127961479035  1.0000
  H   H763      1.0  0.4014197713627384  0.1680847393470113  0.7920593347501167  1.0000
  H   H764      1.0  0.5043730936992527  0.1712167050881523  0.7897181727174528  1.0000
  H   H765      1.0  0.47595083256609094  0.1594831083911967  0.7553365653140293  1.0000
  H   H766      1.0  0.4615407483030587  0.18137675179324017  0.7732844835513084  1.0000
  H   H767      1.0  0.5026512772168472  0.144006324724974  0.833361887506363  1.0000
  H   H768      1.0  0.47630948267487666  0.13260529338773136  0.7969504160725258  1.0000
  H   H769      1.0  0.45856747523329894  0.13395913947397134  0.8446916092111707  1.0000
  H   H770      1.0  0.4830217105118439  0.17455339616734086  0.8564002102567267  1.0000
  H   H771      1.0  0.4402369899709869  0.164356101399852  0.8710259175753203  1.0000
  H   H772      1.0  0.4393202278877353  0.18407646356084287  0.8406970050799661  1.0000
  N   N44       1.0  0.8645413592056961  0.06409663368777307  0.41087161661315996  1.0000
  C   C557      1.0  0.8862290948471995  0.04918154907438588  0.3930471891396306  1.0000
  C   C558      1.0  0.8836913326821427  0.08171454822247767  0.4051986028623446  1.0000
  C   C559      1.0  0.8605493096698789  0.0604650263253712  0.45218908603100094  1.0000
  C   C560      1.0  0.8273292276572585  0.0650026629737872  0.39296469343890755  1.0000
  H   H773      1.0  0.8725371546459111  0.03569327182592108  0.39717066085361796  1.0000
  H   H774      1.0  0.9147569950775261  0.048181798439434376  0.40536758143078644  1.0000
  H   H775      1.0  0.8889673091724611  0.05128693214962876  0.3616416787014062  1.0000
  H   H776      1.0  0.8677247107909375  0.0932269273468326  0.4181502625459917  1.0000
  H   H777      1.0  0.9119046134944012  0.08157361613925673  0.4184521321227531  1.0000
  H   H778      1.0  0.8869915209819376  0.08483076062401347  0.3742575150773551  1.0000
  H   H779      1.0  0.8441535926982021  0.07147507527527197  0.46639357372802104  1.0000
  H   H780      1.0  0.8880574753986025  0.05959380650471124  0.46679913895577285  1.0000
  H   H781      1.0  0.8457101620686419  0.0473582944261739  0.45735925193570764  1.0000
  H   H782      1.0  0.8121885350461422  0.051940553550571034  0.39715691130459996  1.0000
  H   H783      1.0  0.8290168761007058  0.06751801562090853  0.3616673276514873  1.0000
  H   H784      1.0  0.8101067641135838  0.07616665463672478  0.40545601038855833  1.0000
  N   N45       1.0  0.3224518676801478  0.7415998715671058  0.06456997855281443  1.0000
  C   C561      1.0  0.34344822440109035  0.7248786972603551  0.054352874163472675  1.0000
  C   C562      1.0  0.3071995662061094  0.7501274239051356  0.029559001286104444  1.0000
  C   C563      1.0  0.34751860158082865  0.7546847482643481  0.08387207721643541  1.0000
  C   C564      1.0  0.2915674797914611  0.7368120895460099  0.09023786776157755  1.0000
  H   H785      1.0  0.36732861678723483  0.7281175444660221  0.035487048315618  1.0000
  H   H786      1.0  0.3256590577244085  0.7149299059816931  0.038579073981418244  1.0000
  H   H787      1.0  0.3547975303233103  0.7177996873903256  0.08007055971288124  1.0000
  H   H788      1.0  0.2914177814363955  0.7628873719479498  0.036040779995945904  1.0000
  H   H789      1.0  0.3298558035675654  0.753786170433758  0.009555626052397459  1.0000
  H   H790      1.0  0.28800908673296094  0.7407357333425572  0.014145091505029184  1.0000
  H   H791      1.0  0.3327627354523344  0.767715803932093  0.09081380760383505  1.0000
  H   H792      1.0  0.3714559842482832  0.7582902249132507  0.06536684117042402  1.0000
  H   H793      1.0  0.3590396245579102  0.7489258555638831  0.11091481243801417  1.0000
  H   H794      1.0  0.30199697942995646  0.7303820133381553  0.117097411843319  1.0000
  H   H795      1.0  0.27219477548022886  0.7269625130537676  0.0763430203497919  1.0000
  H   H796      1.0  0.2750871278311712  0.7491777190240808  0.09815106117882405  1.0000
  N   N46       1.0  0.2815378818674574  0.813408833366238  0.7061863748560998  1.0000
  C   C565      1.0  0.2681070016447264  0.7943446157664583  0.7059966015191729  1.0000
  C   C566      1.0  0.25442679700147997  0.8252593863058671  0.685866403469048  1.0000
  C   C567      1.0  0.31788393701813883  0.8142849528001175  0.686845588556795  1.0000
  C   C568      1.0  0.2855981976442962  0.8197140144219575  0.7461031403529889  1.0000
  H   H797      1.0  0.28712111164935933  0.7850459084358666  0.722215003561634  1.0000
  H   H798      1.0  0.265531734841152  0.7888745673060493  0.6765396802985849  1.0000
  H   H799      1.0  0.24028399453891158  0.7932934105099488  0.7193673133474235  1.0000
  H   H800      1.0  0.26337521454189644  0.8398048756100304  0.6858720183125657  1.0000
  H   H801      1.0  0.2510471329533882  0.8210591083741765  0.6555542101844382  1.0000
  H   H802      1.0  0.22641475770951947  0.8246062182319783  0.6991469028649193  1.0000
  H   H803      1.0  0.31575930760650656  0.809654633476299  0.6565883537597109  1.0000
  H   H804      1.0  0.3389455195141219  0.8054505149508738  0.7013938332615876  1.0000
  H   H805      1.0  0.32883052837173055  0.8284942076951912  0.6862940109846898  1.0000
  H   H806      1.0  0.3044312829062626  0.8105694928984066  0.762964655093356  1.0000
  H   H807      1.0  0.2583456191815505  0.8198779531541383  0.7609168951957448  1.0000
  H   H808      1.0  0.2970354912021877  0.8338063930256738  0.7475975720790179  1.0000
  N   N47       1.0  0.3588494321874179  0.2707374139904604  0.0628048459504369  1.0000
  C   C569      1.0  0.3854408870451574  0.2783948130920054  0.09086271640419179  1.0000
  C   C570      1.0  0.36821344949358104  0.2773616814422151  0.024191791448760828  1.0000
  C   C571      1.0  0.3207131313412843  0.27666037974409674  0.07251333682619321  1.0000
  C   C572      1.0  0.3609410136938488  0.250529705810946  0.06351486645914052  1.0000
  H   H809      1.0  0.41446757346677  0.27407026182363214  0.08463471425794067  1.0000
  H   H810      1.0  0.3788777754396358  0.2739684067604043  0.12046970322899334  1.0000
  H   H811      1.0  0.3848669450073494  0.2936332625467977  0.09054327444551787  1.0000
  H   H812      1.0  0.39686267831699723  0.27328557357448596  0.015901290525909276  1.0000
  H   H813      1.0  0.34881506664497575  0.27175359890025164  0.002390998761761187  1.0000
  H   H814      1.0  0.3664490098231868  0.29252585475483095  0.02230056761328525  1.0000
  H   H815      1.0  0.29993160347290193  0.2711636293491888  0.051779995951271696  1.0000
  H   H816      1.0  0.31803776195955896  0.2918322460175857  0.07221881433372701  1.0000
  H   H817      1.0  0.3126226793306454  0.27184743294097746  0.10141527515886724  1.0000
  H   H818      1.0  0.35414217268962694  0.24500176998825804  0.09223118569854677  1.0000
  H   H819      1.0  0.3891513856669702  0.24550838434465358  0.05579570972755188  1.0000
  H   H820      1.0  0.3409271843199743  0.24438727808705107  0.042758278178868014  1.0000
  N   N48       1.0  0.8758327068604688  0.2606167031440385  0.8174865082548187  1.0000
  C   C573      1.0  0.9010936959753099  0.26392796420852843  0.7851258966820938  1.0000
  C   C574      1.0  0.8958607151099228  0.2502169078609596  0.8475301609589238  1.0000
  C   C575      1.0  0.8433274082004558  0.25005508933886816  0.8041719066170604  1.0000
  C   C576      1.0  0.8631087809571514  0.2783183441491502  0.8331434409591987  1.0000
  H   H821      1.0  0.887869313905636  0.27293958475429525  0.7631663574878945  1.0000
  H   H822      1.0  0.9089122820138482  0.2509716568569859  0.7704990042240899  1.0000
  H   H823      1.0  0.927209273753187  0.2706549298586045  0.794702028749005  1.0000
  H   H824      1.0  0.905697302511915  0.23673937378616844  0.836766437888935  1.0000
  H   H825      1.0  0.9207177951176371  0.2578123259364667  0.8579468032900192  1.0000
  H   H826      1.0  0.8779314989038004  0.24772544684942369  0.8727753335939883  1.0000
  H   H827      1.0  0.8241239471581281  0.24693239508984538  0.8280063934059134  1.0000
  H   H828      1.0  0.8519155370863588  0.23693827993416366  0.7906160733359481  1.0000
  H   H829      1.0  0.827205491601005  0.25780584947151036  0.7822262443112619  1.0000
  H   H830      1.0  0.8434834232593746  0.2764387568665714  0.8572117566235655  1.0000
  H   H831      1.0  0.8488736240754202  0.28683968077664856  0.8109837519278378  1.0000
  H   H832      1.0  0.886876970583569  0.2864095703558354  0.8441172345224736  1.0000
  N   N49       1.0  0.7158872157572854  0.8302080298217074  0.19899188746964303  1.0000
  C   C577      1.0  0.7224995685282901  0.8357473780305632  0.15900776277899675  1.0000
  C   C578      1.0  0.6826362934917801  0.818445106200498  0.20059035369618905  1.0000
  C   C579      1.0  0.709927131157205  0.8466552214372903  0.2227555984123193  1.0000
  C   C580      1.0  0.7484921077168052  0.8199084858261494  0.21360130663431098  1.0000
  H   H833      1.0  0.7482462242439764  0.8440441412563272  0.1564088782761428  1.0000
  H   H834      1.0  0.6989989374687196  0.8440335241432719  0.14733269206322608  1.0000
  H   H835      1.0  0.7258828969148661  0.823616914637673  0.14020187407115126  1.0000
  H   H836      1.0  0.6574679505763104  0.8257694278181646  0.18976541547714199  1.0000
  H   H837      1.0  0.6862418424203485  0.8059184162891705  0.1828211386286298  1.0000
  H   H838      1.0  0.6769964984281537  0.8139429448875982  0.23036711066553983  1.0000
  H   H839      1.0  0.7054754181965508  0.8429916976874346  0.25327728947713024  1.0000
  H   H840      1.0  0.6854815978954374  0.8547750597388785  0.21280178856523624  1.0000
  H   H841      1.0  0.7345211046945752  0.855797566076903  0.22221478163332864  1.0000
  H   H842      1.0  0.7454462208119185  0.8163935864344373  0.2443745170068441  1.0000
  H   H843      1.0  0.7744917710511212  0.8280249133635121  0.21106252187184538  1.0000
  H   H844      1.0  0.7526132481181346  0.8069219479795161  0.19771703287203368  1.0000
  N   N50       1.0  0.14950954048901657  0.5527615261297176  0.5079414883098103  1.0000
  C   C581      1.0  0.18021687530778846  0.5476710994710806  0.48217566802295786  1.0000
  C   C582      1.0  0.16281790611270375  0.5663626918415315  0.535998540652526  1.0000
  C   C583      1.0  0.136524250008168  0.5362875937298891  0.5282809117428947  1.0000
  C   C584      1.0  0.11858900412023327  0.560734170458106  0.48529522132215835  1.0000
  H   H845      1.0  0.1715716630940461  0.5370030917170482  0.4613389188529169  1.0000
  H   H846      1.0  0.20454481380347866  0.5421795122770604  0.49839146205567125  1.0000
  H   H847      1.0  0.1901114335856993  0.5596566228943197  0.46551962705519734  1.0000
  H   H848      1.0  0.17300528387191205  0.5789286136504289  0.521556038118274  1.0000
  H   H849      1.0  0.1404063866954432  0.5705702049958215  0.5559476290795048  1.0000
  H   H850      1.0  0.18622203628802034  0.5607967711419518  0.553551976462542  1.0000
  H   H851      1.0  0.11343037991867325  0.539579885694654  0.5481228741892569  1.0000
  H   H852      1.0  0.15939184742556542  0.5298466094481472  0.5452723502775733  1.0000
  H   H853      1.0  0.12613642958862262  0.5257785759466578  0.5079584307191976  1.0000
  H   H854      1.0  0.09515510548313601  0.565076090807068  0.5038058613098896  1.0000
  H   H855      1.0  0.10743050630422826  0.5507311787943779  0.46431530527965514  1.0000
  H   H856      1.0  0.12773231815975247  0.5729469251575836  0.46891354316485956  1.0000
  N   N51       1.0  0.09146375428152947  0.30725351409354124  0.8612404092170621  1.0000
  C   C585      1.0  0.13154146968955913  0.3104128287146789  0.8680624996612749  1.0000
  C   C586      1.0  0.08375996507391958  0.3074892925572216  0.8197207619297917  1.0000
  C   C587      1.0  0.06951166687066501  0.32181439597459505  0.8799362113316349  1.0000
  C   C588      1.0  0.0809484215459244  0.2892974443655146  0.8772264359208587  1.0000
  H   H857      1.0  0.13841123298472738  0.31011141607226095  0.8990153339524856  1.0000
  H   H858      1.0  0.14044620361909976  0.3239899152579629  0.8571141383702574  1.0000
  H   H859      1.0  0.14905464134127835  0.2997674943715081  0.8542032417364722  1.0000
  H   H860      1.0  0.0537089678047391  0.305200572472368  0.813563804238579  1.0000
  H   H861      1.0  0.09132406873842817  0.32086392933438157  0.8067834065803404  1.0000
  H   H862      1.0  0.09967318009635821  0.29660775576306353  0.8046996853632746  1.0000
  H   H863      1.0  0.039129003441458865  0.3199197058300964  0.8749516149188492  1.0000
  H   H864      1.0  0.07698223890513377  0.33559701746625453  0.8689943793479977  1.0000
  H   H865      1.0  0.0742609085488648  0.3218770869016018  0.9113683231035258  1.0000
  H   H866      1.0  0.0508731803519753  0.28648480169478147  0.872491978181432  1.0000
  H   H867      1.0  0.08617478062300843  0.28869940309802  0.908567900720433  1.0000
  H   H868      1.0  0.09704727761421915  0.27796054250386837  0.8640069223697598  1.0000
  N   N52       1.0  0.9245987663538198  0.6322240930727656  0.909412435638153  1.0000
  C   C589      1.0  0.9211736647185403  0.6159944905267656  0.8845126040025487  1.0000
  C   C590      1.0  0.9113805356529835  0.6486382860361745  0.8885621165558991  1.0000
  C   C591      1.0  0.9639945285906981  0.6346508670342843  0.9205254060691024  1.0000
  C   C592      1.0  0.901870869171812  0.6296174344552634  0.9439675457858191  1.0000
  H   H869      1.0  0.9309226283280365  0.6033476502682906  0.8992613974454094  1.0000
  H   H870      1.0  0.9379861098604162  0.6175342989231262  0.8581064061082249  1.0000
  H   H871      1.0  0.8918166187110016  0.6137496301303262  0.8755064938866096  1.0000
  H   H872      1.0  0.9125402263814568  0.6610930532420393  0.9067134270171896  1.0000
  H   H873      1.0  0.928602006884973  0.6512957889370684  0.8629429215769427  1.0000
  H   H874      1.0  0.8821564648804154  0.6470808688405361  0.8785133108459966  1.0000
  H   H875      1.0  0.9677638043933298  0.6469177243972059  0.9388905883481391  1.0000
  H   H876      1.0  0.9818885030884823  0.636502523266834  0.8949552509332247  1.0000
  H   H877      1.0  0.9748839118870404  0.6225510618632923  0.9364347187843047  1.0000
  H   H878      1.0  0.871944010326938  0.6281792595833561  0.9365119248735408  1.0000
  H   H879      1.0  0.9042473396328152  0.6414515460627865  0.9637555260675316  1.0000
  H   H880      1.0  0.9102681863583315  0.617062274292506  0.9599279991993778  1.0000
  N   N53       1.0  0.909478337550409  0.46160191847611254  0.4717245497797175  1.0000
  C   C593      1.0  0.9474476699226028  0.4617842254770983  0.4880659245731581  1.0000
  C   C594      1.0  0.9022715776988707  0.4434944222834816  0.454515276751685  1.0000
  C   C595      1.0  0.9060455684115967  0.475953804144873  0.4421267342527287  1.0000
  C   C596      1.0  0.8823190929658408  0.46514569484596846  0.5023583578098448  1.0000
  H   H881      1.0  0.9534543608898914  0.474864271857159  0.5029260028370526  1.0000
  H   H882      1.0  0.968965263357771  0.45961294031645944  0.46584172898988585  1.0000
  H   H883      1.0  0.9510463522720383  0.4508475182816292  0.5097489283230195  1.0000
  H   H884      1.0  0.8739104111240767  0.44277219469794044  0.44181980678889715  1.0000
  H   H885      1.0  0.9225394741268047  0.4403306435801831  0.43150023501999757  1.0000
  H   H886      1.0  0.9047938536948663  0.4323614270864049  0.47617013924440094  1.0000
  H   H887      1.0  0.8774707595640515  0.47647218897979465  0.4297525125827033  1.0000
  H   H888      1.0  0.9258538036333446  0.47356045118017037  0.4183658574589785  1.0000
  H   H889      1.0  0.9118199375739985  0.4897103153666929  0.4542924989372273  1.0000
  H   H890      1.0  0.8533681522310553  0.46571107047884935  0.4910661116517977  1.0000
  H   H891      1.0  0.8877925887343928  0.4784632767704426  0.5167711612839885  1.0000
  H   H892      1.0  0.8836127585001675  0.45432220668264967  0.5247559579877189  1.0000
  N   N54       1.0  0.7004806987314591  0.32600064034380444  0.13982094404366063  1.0000
  C   C597      1.0  0.7145131115068359  0.3441496916712519  0.12837687308889612  1.0000
  C   C598      1.0  0.6788509578867209  0.3180522840721141  0.10793553833164826  1.0000
  C   C599      1.0  0.6763679116561949  0.3279815248999004  0.17359059410338595  1.0000
  C   C600      1.0  0.7322084372021707  0.3138494673091554  0.14936727381448045  1.0000
  H   H893      1.0  0.7331706008567849  0.3432169248991664  0.10323005545988329  1.0000
  H   H894      1.0  0.7307093203843754  0.3505946959908174  0.15182002160609098  1.0000
  H   H895      1.0  0.6913882261190012  0.35376733319415304  0.12111518989136427  1.0000
  H   H896      1.0  0.654713768834293  0.32694053875016926  0.10009058836483442  1.0000
  H   H897      1.0  0.6962875850205108  0.3163787306513214  0.08201179705800721  1.0000
  H   H898      1.0  0.6677638546562169  0.304349386385651  0.11558105876145985  1.0000
  H   H899      1.0  0.6649097931990917  0.31460385216836817  0.18289640875052182  1.0000
  H   H900      1.0  0.6523804240221452  0.33729134149002543  0.1676763518209594  1.0000
  H   H901      1.0  0.6919524067429135  0.3337881088595361  0.19830217246385207  1.0000
  H   H902      1.0  0.7487028523294984  0.3192800188248979  0.17383846078550325  1.0000
  H   H903      1.0  0.751727197571698  0.31243146286597734  0.12496686489193087  1.0000
  H   H904      1.0  0.7228636828011185  0.299904913587764  0.1574676353638691  1.0000
  N   N55       1.0  0.2289621557621139  0.8011572136505047  0.4608145507274466  1.0000
  C   C601      1.0  0.21611831485101457  0.8203511287962162  0.46362105025969425  1.0000
  C   C602      1.0  0.20918398575827876  0.7898433789825012  0.4890958931914122  1.0000
  C   C603      1.0  0.2693896968436414  0.8002169366396772  0.4685304869027793  1.0000
  C   C604      1.0  0.22122033535791083  0.7942383539763213  0.42193324345736194  1.0000
  H   H905      1.0  0.23058044783793213  0.8292674016029739  0.442665077121406  1.0000
  H   H906      1.0  0.22155058251807985  0.8260530233592468  0.49254352559198794  1.0000
  H   H907      1.0  0.1857356634717479  0.8216009921239024  0.4579787439880037  1.0000
  H   H908      1.0  0.21744705694401342  0.7751888615151685  0.48715283733387543  1.0000
  H   H909      1.0  0.21548736909161645  0.794347268760547  0.5187227698456354  1.0000
  H   H910      1.0  0.17848317997716584  0.7907325448146411  0.48520130841980486  1.0000
  H   H911      1.0  0.2799699612977405  0.7859015186765088  0.46777342480897693  1.0000
  H   H912      1.0  0.27650131098015823  0.8059020244158723  0.49710402270891996  1.0000
  H   H913      1.0  0.28522848115224003  0.8081683499684683  0.44707531443625026  1.0000
  H   H914      1.0  0.2355821472454441  0.8026233928342265  0.399946524841888  1.0000
  H   H915      1.0  0.1909429982860033  0.7946721122054018  0.41520274346325714  1.0000
  H   H916      1.0  0.23098906919856238  0.779868277251895  0.41856761080991295  1.0000
  N   N56       1.0  0.3879413951827408  0.3929720816032518  0.05999626792870183  1.0000
  C   C605      1.0  0.4254548643131522  0.3850193992825409  0.055046228704164646  1.0000
  C   C606      1.0  0.3645719868380365  0.3800142725842305  0.08147534916571253  1.0000
  C   C607      1.0  0.3709575778732685  0.3964175817656734  0.02207553111773297  1.0000
  C   C608      1.0  0.3907996683145809  0.41038203645731336  0.0812437088558875  1.0000
  H   H917      1.0  0.42465689232974957  0.3725435399127266  0.036950723197804125  1.0000
  H   H918      1.0  0.43815729648326496  0.38105319236734997  0.08297744219055714  1.0000
  H   H919      1.0  0.4446874749901749  0.3948846219276575  0.041312260009919166  1.0000
  H   H920      1.0  0.3611237993732058  0.36694994160872013  0.06564182947853237  1.0000
  H   H921      1.0  0.3770725316597586  0.37655477841725854  0.10980345047618378  1.0000
  H   H922      1.0  0.3362949602552575  0.38567661139085047  0.08662943748796792  1.0000
  H   H923      1.0  0.34266086658625  0.40249926271745223  0.02469022617346983  1.0000
  H   H924      1.0  0.36820525917396957  0.38349042009941425  0.005408158819816711  1.0000
  H   H925      1.0  0.38811016746310883  0.40599178386388296  0.004935768482527969  1.0000
  H   H926      1.0  0.3629588648519167  0.4164660992146852  0.0868207661783369  1.0000
  H   H927      1.0  0.40716446107826576  0.4206985042498279  0.06520875190481346  1.0000
  H   H928      1.0  0.4050006335149104  0.40839900657139083  0.10927627294811915  1.0000
  N   N57       1.0  0.3801703034487697  0.054963227408134634  0.2982801117129632  1.0000
  C   C609      1.0  0.3665418759764349  0.07097390839983508  0.27629153982750354  1.0000
  C   C610      1.0  0.35864113978315  0.053254557959661275  0.33390064855383544  1.0000
  C   C611      1.0  0.4199566846918757  0.0573021178270825  0.30782821663  1.0000
  C   C612      1.0  0.3754326740801284  0.0382581889883451  0.2750877899918228  1.0000
  H   H929      1.0  0.3816812188083218  0.07255486470549477  0.2488327073389947  1.0000
  H   H930      1.0  0.3699024858795909  0.08387350742854967  0.2927517487810012  1.0000
  H   H931      1.0  0.3364335230350735  0.06963814526248102  0.2690086876834524  1.0000
  H   H932      1.0  0.3668165537156522  0.040761364873179495  0.3502398886947418  1.0000
  H   H933      1.0  0.363142924667102  0.06515390054839765  0.35314307078723395  1.0000
  H   H934      1.0  0.3282876820165834  0.05238231500540191  0.3278923506076463  1.0000
  H   H935      1.0  0.4370555251759805  0.05890970003104789  0.2817075820774561  1.0000
  H   H936      1.0  0.43103537382388557  0.04529604790645991  0.3239737409447705  1.0000
  H   H937      1.0  0.4244957107507882  0.06952638712700532  0.3261728093292284  1.0000
  H   H938      1.0  0.34597623078909046  0.03652256844447077  0.26631982877152677  1.0000
  H   H939      1.0  0.3836438201892455  0.025746005011721085  0.2912775400508803  1.0000
  H   H940      1.0  0.3922483286192767  0.03876231266689323  0.24858444575258307  1.0000
  N   N58       1.0  0.9250809230306258  0.3345233090345472  0.4183765102363259  1.0000
  C   C613      1.0  0.9568061183373692  0.32667526192304946  0.44005024228323675  1.0000
  C   C614      1.0  0.8982112905252401  0.34263879923915036  0.4452796314215471  1.0000
  C   C615      1.0  0.9065781300372554  0.31994678852567315  0.3961761781100197  1.0000
  C   C616      1.0  0.9386039857360701  0.34881906410341174  0.392071519329481  1.0000
  H   H941      1.0  0.947483904433578  0.31623431999950996  0.4610755518281725  1.0000
  H   H942      1.0  0.9716469481914851  0.33737164225008753  0.45672813118557004  1.0000
  H   H943      1.0  0.9774472143164945  0.32010730588445435  0.42088702029781977  1.0000
  H   H944      1.0  0.8735677899673043  0.34842110059677145  0.430102416380297  1.0000
  H   H945      1.0  0.8879820994414588  0.3322898011486742  0.4660150076501792  1.0000
  H   H946      1.0  0.9111127231728062  0.35382663680043197  0.46222110569111224  1.0000
  H   H947      1.0  0.8823602172411359  0.32544653479903757  0.37964404022864323  1.0000
  H   H948      1.0  0.8960486698016418  0.30894784121066554  0.4152292502129231  1.0000
  H   H949      1.0  0.9259748307996062  0.3135314071998516  0.37545160970179076  1.0000
  H   H950      1.0  0.9155880282551037  0.3544982597540599  0.37416172537688147  1.0000
  H   H951      1.0  0.9600942099141792  0.3433769820569189  0.3723769574595758  1.0000
  H   H952      1.0  0.951219112590796  0.3604846912654508  0.40791701535005054  1.0000
  N   N59       1.0  0.9753842181527098  0.7451595969765383  0.7230480222366824  1.0000
  C   C617      1.0  0.9782140906025413  0.7354550776041249  0.686167284745332  1.0000
  C   C618      1.0  0.011727104290521817  0.7533504273389056  0.7327999039594336  1.0000
  C   C619      1.0  0.9646282935777989  0.732068162754057  0.7531479082702831  1.0000
  C   C620      1.0  0.9469810599897559  0.7597805231754434  0.7200173533517948  1.0000
  H   H953      1.0  0.9513299512677021  0.7289874676385729  0.6780444256057517  1.0000
  H   H954      1.0  0.9996312157156932  0.7244105101767588  0.6874743550486297  1.0000
  H   H955      1.0  0.9862664581229618  0.744930645362702  0.66276717877519  1.0000
  H   H956      1.0  0.010886170371364745  0.7607315589382837  0.760596082881743  1.0000
  H   H957      1.0  0.03410378503701961  0.7427965187901578  0.734658484755248  1.0000
  H   H958      1.0  0.020242336186206304  0.7635012383946972  0.7108988581201038  1.0000
  H   H959      1.0  0.9621219253699402  0.7389395991937338  0.7813523834624495  1.0000
  H   H960      1.0  0.9854378640132224  0.7208214812190502  0.7561048086369841  1.0000
  H   H961      1.0  0.9373047930830551  0.7256261176828457  0.7464922960992897  1.0000
  H   H962      1.0  0.9449962984498436  0.7677679264159573  0.7469596911700755  1.0000
  H   H963      1.0  0.9189279598777762  0.754168029880602  0.7139580748174313  1.0000
  H   H964      1.0  0.9535333005245055  0.7695483254598489  0.6966568413302071  1.0000
  N   N60       1.0  0.32962646380539834  0.9255755330895433  0.37186987063332894  1.0000
  C   C621      1.0  0.33758946424185426  0.9416387241377604  0.39610967398290176  1.0000
  C   C622      1.0  0.36163837564679635  0.9219407558708231  0.34672747232671974  1.0000
  C   C623      1.0  0.29603791182665173  0.9292051955271448  0.34839498612574415  1.0000
  C   C624      1.0  0.32343586577618166  0.9094646787923294  0.39644646612062945  1.0000
  H   H965      1.0  0.3152857718738265  0.9439526251284338  0.4174591155858581  1.0000
  H   H966      1.0  0.33998010976542775  0.954350900463349  0.3789173047503984  1.0000
  H   H967      1.0  0.36423839882326886  0.9398710721962129  0.41201217180582855  1.0000
  H   H968      1.0  0.3874255389357745  0.9192462375115461  0.36366678866688923  1.0000
  H   H969      1.0  0.35654957530575987  0.9098933523742364  0.3281256525785168  1.0000
  H   H970      1.0  0.36727351649470014  0.933815461897094  0.32780589295770524  1.0000
  H   H971      1.0  0.2714491303668525  0.9321230256492552  0.36656059140750363  1.0000
  H   H972      1.0  0.28882533081788503  0.9172934596306399  0.3300400187718636  1.0000
  H   H973      1.0  0.30003145395282604  0.941240234478219  0.3292800512361301  1.0000
  H   H974      1.0  0.31824254127831425  0.8969489582047049  0.3793116640678183  1.0000
  H   H975      1.0  0.2991918668487175  0.911518491285538  0.4156199888341538  1.0000
  H   H976      1.0  0.34798776101605816  0.9066622317673386  0.41511322322136446  1.0000
  N   N61       1.0  0.44568751766227044  0.04732981731913055  0.7017736131326622  1.0000
  C   C625      1.0  0.4175212228589464  0.060384270967107634  0.6871227892687106  1.0000
  C   C626      1.0  0.43850698279311134  0.029036405239435403  0.685442144014914  1.0000
  C   C627      1.0  0.44359050554039814  0.04658640439098649  0.7438899141740319  1.0000
  C   C628      1.0  0.4831463537642389  0.05342131510703063  0.6904895528687501  1.0000
  H   H977      1.0  0.4220625167134551  0.0743304753685805  0.6989647667062358  1.0000
  H   H978      1.0  0.3888753536736282  0.056223690258014436  0.6949666527137752  1.0000
  H   H979      1.0  0.4184250655034181  0.061363585241102525  0.6553766264706244  1.0000
  H   H980      1.0  0.45929562891868186  0.01879230527928777  0.695697553578219  1.0000
  H   H981      1.0  0.41039630499211055  0.024007168507399257  0.6931668310680049  1.0000
  H   H982      1.0  0.4399394456054033  0.029356119003081993  0.6535979672664878  1.0000
  H   H983      1.0  0.44897145314018033  0.06030621273661718  0.7567182301086826  1.0000
  H   H984      1.0  0.4644983010320937  0.036895151757799116  0.7560620395553318  1.0000
  H   H985      1.0  0.4156115356387043  0.0421674978244686  0.7534933990435553  1.0000
  H   H986      1.0  0.5051362711096158  0.0438920743653175  0.7010328238807221  1.0000
  H   H987      1.0  0.48948016734079014  0.06721970033769131  0.702142348175033  1.0000
  H   H988      1.0  0.48566663149470407  0.0542449267636711  0.6588778107168598  1.0000
  N   N62       1.0  0.16726842791256363  0.43484877599999083  0.4676833035855215  1.0000
  C   C629      1.0  0.1336648330171834  0.4447781804857771  0.4544666155801025  1.0000
  C   C630      1.0  0.16471098354015232  0.41540189806737143  0.45649737278745767  1.0000
  C   C631      1.0  0.170106935529003  0.4361918255953848  0.5097170081048352  1.0000
  C   C632      1.0  0.20055692437951944  0.4430195540970283  0.45014776529075434  1.0000
  H   H989      1.0  0.1351198329274554  0.4595409056217651  0.4620996924853624  1.0000
  H   H990      1.0  0.10809341373802354  0.4390502710957129  0.46759396432659683  1.0000
  H   H991      1.0  0.13038690199721778  0.44397641808964333  0.4229061121636326  1.0000
  H   H992      1.0  0.18891879958276642  0.40737978704471545  0.46764581061728144  1.0000
  H   H993      1.0  0.1391551987788964  0.40896939234616125  0.46802192048633856  1.0000
  H   H994      1.0  0.16402006090252222  0.4137846392481009  0.42493957517364506  1.0000
  H   H995      1.0  0.19506981692188238  0.4287861009362094  0.5207870075404338  1.0000
  H   H996      1.0  0.14532576355406732  0.4301467340718357  0.5237802811075986  1.0000
  H   H997      1.0  0.17234898307618776  0.45067262311984346  0.5191619969611502  1.0000
  H   H998      1.0  0.22605087724875667  0.4350354023827004  0.4573657740187879  1.0000
  H   H999      1.0  0.20504561967621002  0.45728608770379714  0.4601889081301352  1.0000
  H   H1000     1.0  0.19815352587185153  0.4435002088487187  0.41849021425287336  1.0000
  N   N63       1.0  0.1645814720141534  0.0016266870941581413  0.250958964930761  1.0000
  C   C633      1.0  0.17481528996257634  0.018172352577819684  0.2727553045926282  1.0000
  C   C634      1.0  0.14394382951407447  0.9890165767567906  0.27597360633899837  1.0000
  C   C635      1.0  0.1986105350282319  0.9924326508862842  0.23710766160161528  1.0000
  C   C636      1.0  0.14074298288891596  0.00685806881283324  0.21810733513595967  1.0000
  H   H1001     1.0  0.1941903472460913  0.014943618439048345  0.29678988330582695  1.0000
  H   H1002     1.0  0.14985017260904154  0.024980236875490558  0.2849974320893099  1.0000
  H   H1003     1.0  0.1889267251319624  0.028399817397738225  0.25438812477027173  1.0000
  H   H1004     1.0  0.16099844850594636  0.9848911629589198  0.30122409264015665  1.0000
  H   H1005     1.0  0.11795002293251633  0.9955534165590454  0.2866627732406863  1.0000
  H   H1006     1.0  0.13589817637171797  0.9763415231716245  0.26040799971336487  1.0000
  H   H1007     1.0  0.19195426115579783  0.9795416158974783  0.22169641703227116  1.0000
  H   H1008     1.0  0.21786300007941684  0.9888813521809374  0.2610481376232079  1.0000
  H   H1009     1.0  0.21415906165369636  0.001286647134722152  0.2169922279219676  1.0000
  H   H1010     1.0  0.1551701380611994  0.016545158700650875  0.19872255806371178  1.0000
  H   H1011     1.0  0.11476863100686252  0.013762345640704998  0.22765572295858003  1.0000
  H   H1012     1.0  0.1325544584414342  0.994679157647362  0.2010368081243214  1.0000
  N   N64       1.0  0.2760797647975426  0.3143062495221978  0.5922814869466937  1.0000
  C   C637      1.0  0.2706543817078958  0.2978440677947639  0.616105331584307  1.0000
  C   C638      1.0  0.3129263767925975  0.3222524621588494  0.600868933772322  1.0000
  C   C639      1.0  0.24664783036074542  0.32790103272631815  0.6005868354969828  1.0000
  C   C640      1.0  0.2740736913493347  0.30915742532857854  0.5515219450840723  1.0000
  H   H1013     1.0  0.24315173658684266  0.29147299029261947  0.6102645829996007  1.0000
  H   H1014     1.0  0.27207573990707606  0.30120478549029883  0.6470774885829285  1.0000
  H   H1015     1.0  0.29247119871440086  0.2873123895509726  0.6103990796851572  1.0000
  H   H1016     1.0  0.3189203376841017  0.33417860273774697  0.5821260254972684  1.0000
  H   H1017     1.0  0.3149178148734561  0.32699169850292714  0.6309867914833381  1.0000
  H   H1018     1.0  0.33558969908485775  0.31207765628497647  0.5964687536359097  1.0000
  H   H1019     1.0  0.24990124708510494  0.34047818111553413  0.5830242364035811  1.0000
  H   H1020     1.0  0.24699880237392777  0.3320860971189704  0.6311052171071847  1.0000
  H   H1021     1.0  0.2184925526299613  0.32246407243851694  0.5937414481185235  1.0000
  H   H1022     1.0  0.27921913293822803  0.3211321825476847  0.5327099606240481  1.0000
  H   H1023     1.0  0.24610036225099768  0.3038191542898565  0.5436407795856455  1.0000
  H   H1024     1.0  0.294880715766569  0.29843420387489905  0.544404615498048  1.0000
