data_image0
_chemical_formula_structural       FeS2FeS2FeSFeS3FeS2FeS2FeSFeS3FeS2FeS2FeSFeS3FeS2FeS2FeSFeS3FeS2FeS2FeSFeS3FeS2FeS2FeSFeS3FeS2FeS2FeSFeS3FeS2FeS2FeSFeS3FeS2FeS2FeSFeS3FeS2FeS2FeSFeS3FeS2FeS2FeSFeS3FeS2FeS2FeSFeS3FeS2FeS2FeSFeS3FeS2FeS2FeSFeS3FeS2FeS2FeSFeS3FeS2FeS2FeSFeS3FeS2FeS2FeSFeS3FeS2FeS2FeSFeS3FeS2FeS2FeSFeS3FeS2FeS2FeSFeS3FeS2FeS2FeSFeS3FeS2FeS2FeSFeS3FeS2FeS2FeSFeS3FeS2FeS2FeSFeS3FeS2FeS2FeSFeS3FeS2FeS2FeSFeS3FeS2FeS2FeSFeS3FeS2FeS2FeSFeS3FeS2FeS2FeSFeS3FeS2FeS2FeSFeS3FeS2FeS2FeSFeS3FeS2FeS2FeSFeS3C6H4C6H4C6H4C6H4C6H4C6H4C6H4C6H4C6H4C6H4C6H4C6H4C6H4C6H4C6H4C6H4C6H4C6H4C6H4C6H4C6H4C6H4C6H4C6H4C6H4C6H4C6H4C6H4C6H4C6H4C6H4C6H4C6H4C6H4C6H4C6H4C6H4C6H4C6H4C6H4C6H4C6H4C6H4C6H4C6H4C6H4C6H4C6H4C6H4C6H4C6H4C6H4C6H4C6H4C6H4C6H4C6H4C6H4C6H4C6H4C6H4C6H4C6H4C6H4NC4H12NC4H12NC4H12NC4H12NC4H12NC4H12NC4H12NC4H12NC4H12NC4H12NC4H12NC4H12NC4H12NC4H12NC4H12NC4H12NC4H12NC4H12NC4H12NC4H12NC4H12NC4H12NC4H12NC4H12NC4H12NC4H12NC4H12NC4H12NC4H12NC4H12NC4H12NC4H12NC4H12NC4H12NC4H12NC4H12NC4H12NC4H12NC4H12NC4H12NC4H12NC4H12NC4H12NC4H12NC4H12NC4H12NC4H12NC4H12NC4H12NC4H12NC4H12NC4H12NC4H12NC4H12NC4H12NC4H12NC4H12NC4H12NC4H12NC4H12NC4H12NC4H12NC4H12NC4H12
_chemical_formula_sum              "Fe128 S256 C640 H1024 N64"
_cell_length_a       31.763052443409645
_cell_length_b       63.81799080410784
_cell_length_c       41.55228920225894
_cell_angle_alpha    89.61811309179622
_cell_angle_beta     89.24042538191941
_cell_angle_gamma    88.75141476673842

_space_group_name_H-M_alt    "P 1"
_space_group_IT_number       1

loop_
  _space_group_symop_operation_xyz
  'x, y, z'

loop_
  _atom_site_type_symbol
  _atom_site_label
  _atom_site_symmetry_multiplicity
  _atom_site_fract_x
  _atom_site_fract_y
  _atom_site_fract_z
  _atom_site_occupancy
  Fe  Fe1       1.0  0.7129532708813271  0.04055258087857716  0.567196748093082  1.0000
  S   S1        1.0  0.7424105556170253  0.07222238358822719  0.564123154095105  1.0000
  S   S2        1.0  0.7343282150408157  0.01533663861889134  0.5329023581208135  1.0000
  Fe  Fe2       1.0  0.6565925852811444  0.05219519276143192  0.6236254805228832  1.0000
  S   S3        1.0  0.6809914658267675  0.08474187438612546  0.625664360381577  1.0000
  S   S4        1.0  0.6106516005373603  0.04313044390889642  0.6625262640486136  1.0000
  Fe  Fe3       1.0  0.6764457337201529  0.08441706152884798  0.5721186525544241  1.0000
  S   S5        1.0  0.6504357680836752  0.11427311347762359  0.550948115373463  1.0000
  Fe  Fe4       1.0  0.7443877048692511  0.06974544807643657  0.6178438641800711  1.0000
  S   S6        1.0  0.7994096381460972  0.0790138976135355  0.6473495853637614  1.0000
  S   S7        1.0  0.6462263035808181  0.05299395260823947  0.5703365019563047  1.0000
  S   S8        1.0  0.7206405871879469  0.03698678329027594  0.6204777621269718  1.0000
  Fe  Fe5       1.0  0.38555330284902833  0.05576098321007317  0.6256567391776517  1.0000
  S   S9        1.0  0.4127568769194926  0.08320743395220553  0.6503264407378545  1.0000
  S   S10       1.0  0.4258122679533993  0.027173884536619397  0.6158798998342203  1.0000
  Fe  Fe6       1.0  0.3021346089032103  0.07804053220321916  0.6145914535002568  1.0000
  S   S11       1.0  0.3224193353982016  0.10755090619927654  0.6384933811865753  1.0000
  S   S12       1.0  0.2394321047647386  0.07804089817098614  0.5903512171876587  1.0000
  Fe  Fe7       1.0  0.38284957212921206  0.10216764508535969  0.6110098756259753  1.0000
  S   S13       1.0  0.4162886739152196  0.1291486117204732  0.5877535350294394  1.0000
  Fe  Fe8       1.0  0.3502615239245987  0.08581078874937265  0.6755126497285833  1.0000
  S   S14       1.0  0.3524704329919233  0.09164851461991619  0.7286698830854995  1.0000
  S   S15       1.0  0.36041091795420305  0.07445073796054014  0.5841026082132632  1.0000
  S   S16       1.0  0.32498573333517616  0.05659963805400414  0.6540370533087367  1.0000
  Fe  Fe9       1.0  0.18013862804051498  0.9630885653138621  0.6089520920369474  1.0000
  S   S17       1.0  0.24709001256704607  0.9604663680623252  0.6246905063857774  1.0000
  S   S18       1.0  0.1480651846702253  0.990711934529337  0.5852558275577403  1.0000
  Fe  Fe10      1.0  0.16022585942888518  0.9192903958804818  0.6324452812272334  1.0000
  S   S19       1.0  0.22531420924011228  0.9130484838269559  0.6511868374562189  1.0000
  S   S20       1.0  0.11069611424152961  0.8949063454533087  0.6284065370852576  1.0000
  Fe  Fe11      1.0  0.2201838007059678  0.9460302052399022  0.6694198150847898  1.0000
  S   S21       1.0  0.24018432774846746  0.9580512997388055  0.7174305279286908  1.0000
  Fe  Fe12      1.0  0.24665603634425623  0.9279534227161114  0.6048736580271347  1.0000
  S   S22       1.0  0.3039003048822069  0.914448637654097  0.5792544023674575  1.0000
  S   S23       1.0  0.15272991137193265  0.9508996869789664  0.6550926886987224  1.0000
  S   S24       1.0  0.1818733131428448  0.9318469235073131  0.5847642139537595  1.0000
  Fe  Fe13      1.0  0.8922208721680641  0.9147559228741765  0.6848671567400242  1.0000
  S   S25       1.0  0.827200472967855  0.9048854096018497  0.6988010889766928  1.0000
  S   S26       1.0  0.9486379309505784  0.9092872373529871  0.7159030523976634  1.0000
  Fe  Fe14      1.0  0.8621292785742632  0.9406402526787887  0.628415766363149  1.0000
  S   S27       1.0  0.7941960562715914  0.9334655767938889  0.6371781047745863  1.0000
  S   S28       1.0  0.8855150950419409  0.9611774456380386  0.5884853417472399  1.0000
  Fe  Fe15      1.0  0.8085068086637336  0.9383375587102393  0.6891181840774722  1.0000
  S   S29       1.0  0.7673489316080574  0.956868819328066  0.7234814349722618  1.0000
  Fe  Fe16      1.0  0.818357821113811  0.9006458428773345  0.6456128970791044  1.0000
  S   S30       1.0  0.7777447201484731  0.8752085406437197  0.6267158890218165  1.0000
  S   S31       1.0  0.874353234183563  0.9486394380040071  0.6795400217090819  1.0000
  S   S32       1.0  0.8855515961236418  0.907406110359468  0.6323966691878862  1.0000
  Fe  Fe17      1.0  0.2007787848724739  0.06941350846160343  0.8630049035222079  1.0000
  S   S33       1.0  0.15905360885578068  0.05399491237483489  0.8996683785733007  1.0000
  S   S34       1.0  0.20167447668301883  0.0574806680810358  0.8122484791340766  1.0000
  Fe  Fe18      1.0  0.22875713583309334  0.10240937689853413  0.9093495179404606  1.0000
  S   S35       1.0  0.18962864603012405  0.09018901097340493  0.9501173520435432  1.0000
  S   S36       1.0  0.26594470915811813  0.1311777761969104  0.9175035144591361  1.0000
  Fe  Fe19      1.0  0.21248453390883007  0.05867949208241563  0.9333107216963519  1.0000
  S   S37       1.0  0.23543034533155655  0.034302389074252204  0.9682805674130235  1.0000
  Fe  Fe20      1.0  0.13986916099790364  0.08679979373396951  0.9131121853770225  1.0000
  S   S38       1.0  0.072740274940428  0.0959763473813513  0.9237272432439666  1.0000
  S   S39       1.0  0.25646502585974373  0.07111937749182595  0.8954777225529222  1.0000
  S   S40       1.0  0.17681846390579561  0.1019779411005255  0.8734902423634189  1.0000
  Fe  Fe21      1.0  0.806910097537572  0.05778319916413244  0.8234905966647356  1.0000
  S   S41       1.0  0.8609943448284837  0.03469791578788817  0.8209899851899836  1.0000
  S   S42       1.0  0.7527255921463785  0.05505036950463471  0.7901832216709667  1.0000
  Fe  Fe22      1.0  0.8388751142977318  0.07916072881260416  0.8828713800028275  1.0000
  S   S43       1.0  0.8955461908926949  0.05779030006776509  0.8860019188287988  1.0000
  S   S44       1.0  0.8215264293859517  0.10465408895947204  0.9178321929445383  1.0000
  Fe  Fe23      1.0  0.8997990355608378  0.06248749498596484  0.8324967455394937  1.0000
  S   S45       1.0  0.9630824868788753  0.06649335408708623  0.8092562392260747  1.0000
  Fe  Fe24      1.0  0.8516474917717051  0.03219072209647322  0.874242369126617  1.0000
  S   S46       1.0  0.8568294313031997  0.0014516402168494036  0.9005205791173584  1.0000
  S   S47       1.0  0.8465487126602003  0.08603031928463079  0.8301083309141316  1.0000
  S   S48       1.0  0.7941486861387053  0.053128792086842624  0.8760395170483365  1.0000
  Fe  Fe25      1.0  0.2957953090978047  0.8845311280194382  0.9220593142962958  1.0000
  S   S49       1.0  0.2925090683800508  0.9155269442230419  0.9471624854501846  1.0000
  S   S50       1.0  0.2853566343214712  0.8546166005485292  0.9494182300743415  1.0000
  Fe  Fe26      1.0  0.3254149190615806  0.9036231132216543  0.8587664854908967  1.0000
  S   S51       1.0  0.3249174137437053  0.9361379275678332  0.8786930766742201  1.0000
  S   S52       1.0  0.34771529100111287  0.8984739003071627  0.8078200530278339  1.0000
  Fe  Fe27      1.0  0.3540557256090302  0.92124557080965  0.9221862458594657  1.0000
  S   S53       1.0  0.40856386891947916  0.9362179410301482  0.9461823003815881  1.0000
  Fe  Fe28      1.0  0.26344159126754557  0.9271248961445419  0.9013667267144211  1.0000
  S   S54       1.0  0.20620490578298403  0.9482916563250239  0.9001680902766931  1.0000
  S   S55       1.0  0.35987525413655225  0.8893779338883695  0.9004005847993348  1.0000
  S   S56       1.0  0.26147167311876857  0.895552156760719  0.8780605323426401  1.0000
  Fe  Fe29      1.0  0.6752137192284293  0.8969940270079476  0.8605822872505015  1.0000
  S   S57       1.0  0.6221408289206392  0.9157061298822652  0.882634849416985  1.0000
  S   S58       1.0  0.6753975382202662  0.889246082988673  0.8080755825710892  1.0000
  Fe  Fe30      1.0  0.7202543136727411  0.8908759276349214  0.9243859686538933  1.0000
  S   S59       1.0  0.6710579774595523  0.9093728532548836  0.9520162980557726  1.0000
  S   S60       1.0  0.7756515422036829  0.8738051828670415  0.9464951696105836  1.0000
  Fe  Fe31      1.0  0.6249016696559824  0.8919770380369068  0.9225392462492594  1.0000
  S   S61       1.0  0.5684692907243627  0.8760374364497181  0.943679324742141  1.0000
  Fe  Fe32      1.0  0.6734691023221675  0.9312485264208128  0.9095571880817613  1.0000
  S   S62       1.0  0.6735980535100135  0.9661894171461579  0.9114157659971597  1.0000
  S   S63       1.0  0.6737274620288098  0.8716736259224621  0.8980609205859957  1.0000
  S   S64       1.0  0.7267720408760806  0.9143252176382423  0.8842645609538011  1.0000
  Fe  Fe33      1.0  0.39611470994590914  0.1595829148156872  0.4176405005485219  1.0000
  S   S65       1.0  0.4098182432239877  0.19121761897947398  0.43753539834322275  1.0000
  S   S66       1.0  0.4288680006086992  0.130293365225568  0.43587772195518637  1.0000
  Fe  Fe34      1.0  0.3276755064351402  0.17694974342262676  0.37313579797964663  1.0000
  S   S67       1.0  0.3349622780492283  0.2097767970319055  0.39045371298604786  1.0000
  S   S68       1.0  0.2786975169615217  0.17380190918634952  0.3352423050831874  1.0000
  Fe  Fe35      1.0  0.4041817040681235  0.20222814585815402  0.3862641830712527  1.0000
  S   S69       1.0  0.44839287511413145  0.22088988145195804  0.3554438926304475  1.0000
  Fe  Fe36      1.0  0.3393034104549686  0.19514283813613498  0.4396411200117131  1.0000
  S   S70       1.0  0.30060396056341027  0.2015202628242953  0.4843474908735954  1.0000
  S   S71       1.0  0.39649411440817567  0.17018651343640576  0.36608293857105045  1.0000
  S   S72       1.0  0.3260907054145976  0.16281274935056372  0.42247898872074297  1.0000
  Fe  Fe37      1.0  0.6947365424361871  0.1518582105886034  0.38379053546928327  1.0000
  S   S73       1.0  0.711419535152631  0.17775224720484034  0.41697014604831073  1.0000
  S   S74       1.0  0.6707384809954604  0.12073868997760052  0.4004785379747242  1.0000
  Fe  Fe38      1.0  0.7190157311738778  0.1763771300460331  0.32409880790187495  1.0000
  S   S75       1.0  0.7370631131173648  0.2048777954286116  0.3517377053561145  1.0000
  S   S76       1.0  0.7204061347490565  0.1747352181310468  0.2701495009470789  1.0000
  Fe  Fe39      1.0  0.7678957630158628  0.18158990895320293  0.38500703517669344  1.0000
  S   S77       1.0  0.832047256701597  0.1869936027595637  0.404684836397012  1.0000
  Fe  Fe40      1.0  0.6789128829926057  0.19865111012100115  0.3811494407741396  1.0000
  S   S78       1.0  0.6358388994044583  0.22342016850458513  0.4019992608539438  1.0000
  S   S79       1.0  0.754726580398961  0.15347896115249063  0.35503661453125646  1.0000
  S   S80       1.0  0.6574556509879336  0.17239019724268995  0.35033310939632895  1.0000
  Fe  Fe41      1.0  0.888525911697539  0.2920473596291128  0.464756446507484  1.0000
  S   S81       1.0  0.8718997409750165  0.32165649254708384  0.43819846715193866  1.0000
  S   S82       1.0  0.832929585373062  0.27283555139706256  0.47895176263576794  1.0000
  Fe  Fe42      1.0  0.9817098225223521  0.3018799824126081  0.46585430224083585  1.0000
  S   S83       1.0  0.9721517877054096  0.3322883904850872  0.43942354938833217  1.0000
  S   S84       1.0  0.04574198177947175  0.29250054988914576  0.48442958959306404  1.0000
  Fe  Fe43      1.0  0.9161571053866513  0.33670821934248146  0.472333768325185  1.0000
  S   S85       1.0  0.8998432451092195  0.3676364009696055  0.49599157904862723  1.0000
  Fe  Fe44      1.0  0.9293060617430843  0.3140385810667159  0.40819103762012515  1.0000
  S   S86       1.0  0.9356526560247584  0.31349487001541504  0.3542202975607445  1.0000
  S   S87       1.0  0.9285806192625291  0.30755157406810885  0.5011040716538534  1.0000
  S   S88       1.0  0.9428564073896152  0.2831237031977748  0.4323297259391174  1.0000
  Fe  Fe45      1.0  0.2976319352067839  0.3155963919860812  0.5027086095779663  1.0000
  S   S89       1.0  0.3604741411931454  0.3287389838877024  0.4906981709989912  1.0000
  S   S90       1.0  0.2908167162592411  0.2921446380391324  0.5424474462381325  1.0000
  Fe  Fe46      1.0  0.2525555375431315  0.3411546256761039  0.45214002788871327  1.0000
  S   S91       1.0  0.3115972607656408  0.35669749733803274  0.435360313374884  1.0000
  S   S92       1.0  0.19180536568957732  0.3472651028701335  0.4263957280511205  1.0000
  Fe  Fe47      1.0  0.34109984734285437  0.3246761238292825  0.4396302219942385  1.0000
  S   S93       1.0  0.3881973119135283  0.3136988050739335  0.4026391466587789  1.0000
  Fe  Fe48      1.0  0.3253838826128676  0.3594760255270622  0.48786929357741093  1.0000
  S   S94       1.0  0.3572104984760779  0.38757626477149154  0.5075085118493421  1.0000
  S   S95       1.0  0.2808155875034088  0.3087193207411551  0.4517243191422252  1.0000
  S   S96       1.0  0.2635158989287316  0.34670289740538146  0.5045772216800686  1.0000
  Fe  Fe49      1.0  0.3094435433110252  0.13375126835678475  0.09081896625128251  1.0000
  S   S97       1.0  0.24541820491114583  0.1480624630256233  0.08246506157809239  1.0000
  S   S98       1.0  0.3492143478131681  0.11730450831790541  0.05334443820800998  1.0000
  Fe  Fe50      1.0  0.30368572563662966  0.13886848065885424  0.16343060865854594  1.0000
  S   S99       1.0  0.23837066184031258  0.15297434017079908  0.16177952968047377  1.0000
  S   S100      1.0  0.34441674148782336  0.13167104551782036  0.20625735423983824  1.0000
  Fe  Fe51      1.0  0.2260586820235944  0.12854320173973097  0.12490465105600719  1.0000
  S   S101      1.0  0.16791248236486156  0.10946585752374845  0.12275136307297463  1.0000
  Fe  Fe52      1.0  0.26364522635253324  0.17128625190289803  0.11982094779946455  1.0000
  S   S102      1.0  0.25120277518669276  0.20590671350318554  0.11870262000883613  1.0000
  S   S103      1.0  0.2886733531578261  0.11249354825913388  0.13061113983998993  1.0000
  S   S104      1.0  0.32991974723113665  0.15898925089730762  0.123959257785053  1.0000
  Fe  Fe53      1.0  0.8588553241576087  0.16951275952185543  0.09786171669613696  1.0000
  S   S105      1.0  0.8374065885510024  0.13866731729542678  0.11826024878555216  1.0000
  S   S106      1.0  0.8138356306972875  0.19552288292278802  0.08352450538923686  1.0000
  Fe  Fe54      1.0  0.9511020247391532  0.1577364868901081  0.10269494489896573  1.0000
  S   S107      1.0  0.9382105889185398  0.12623580309677482  0.12390298336978729  1.0000
  S   S108      1.0  0.014982983915112769  0.1710197206372886  0.09396958916646958  1.0000
  Fe  Fe55      1.0  0.8884739982134775  0.12476885350373855  0.0864208490838006  1.0000
  S   S109      1.0  0.8896468767022089  0.09457058447440025  0.05887928761609206  1.0000
  Fe  Fe56      1.0  0.8891926335931318  0.1428869570785445  0.15391536356319688  1.0000
  S   S110      1.0  0.8898012973264405  0.13952843106078544  0.20780073314320618  1.0000
  S   S111      1.0  0.9051345959025688  0.15523985948375527  0.06275650009621493  1.0000
  S   S112      1.0  0.9064806442896831  0.17461700567991947  0.1359982367366088  1.0000
  Fe  Fe57      1.0  0.4055709089148838  0.2812584622392223  0.17706222427395957  1.0000
  S   S113      1.0  0.34227040885731863  0.2974964762506222  0.1792730748646982  1.0000
  S   S114      1.0  0.41885292052113926  0.2527799880694132  0.14721421234595056  1.0000
  Fe  Fe58      1.0  0.4442532866570115  0.31069539694080306  0.2241409306481071  1.0000
  S   S115      1.0  0.38461937199693014  0.32976514170666726  0.23036068960048636  1.0000
  S   S116      1.0  0.5013574346692458  0.3180554217753513  0.25267795098567397  1.0000
  Fe  Fe59      1.0  0.3535677177365875  0.2985267950906718  0.23238613150555115  1.0000
  S   S117      1.0  0.30722132266413726  0.28929841890227825  0.27100591969512383  1.0000
  Fe  Fe60      1.0  0.3794560659630241  0.32691499643689653  0.1768645573339017  1.0000
  S   S118      1.0  0.3567621547689648  0.3541829772961848  0.14690104893677605  1.0000
  S   S119      1.0  0.4137486084456224  0.2797025565842028  0.23034302505926013  1.0000
  S   S120      1.0  0.4422996560691328  0.3106506522479901  0.17020243553092773  1.0000
  Fe  Fe61      1.0  0.7405908408326525  0.33439030591283175  0.1571734042865002  1.0000
  S   S121      1.0  0.7417113464064402  0.30069596893136125  0.14312922252794388  1.0000
  S   S122      1.0  0.7181893873283963  0.3571713362835576  0.11953107515630085  1.0000
  Fe  Fe62      1.0  0.7692148669453553  0.3247562142258337  0.22490765386025321  1.0000
  S   S123      1.0  0.7744850481247392  0.29012262396620986  0.21651999405458722  1.0000
  S   S124      1.0  0.7741511330631836  0.33845741601582774  0.27436173230419725  1.0000
  Fe  Fe63      1.0  0.8031700564302723  0.29902970798634176  0.168718353210511  1.0000
  S   S125      1.0  0.8589968527847339  0.2815616248534952  0.14695829197588836  1.0000
  Fe  Fe64      1.0  0.7128516697040942  0.2945476864786074  0.1915414003179551  1.0000
  S   S126      1.0  0.6609438008357862  0.27120086111648783  0.1954449748558142  1.0000
  S   S127      1.0  0.8044094599362788  0.33352075742902704  0.17957125085279627  1.0000
  S   S128      1.0  0.7051579130472762  0.3286145455997321  0.20308119295047172  1.0000
  Fe  Fe65      1.0  0.2864600231345117  0.5831976609844228  0.6809792272584073  1.0000
  S   S129      1.0  0.29425307670884115  0.5547088086708235  0.6501149726610302  1.0000
  S   S130      1.0  0.2743892214039436  0.6147964227776005  0.6587174979937416  1.0000
  Fe  Fe66      1.0  0.28463246070923315  0.5579809930462237  0.7434647944780777  1.0000
  S   S131      1.0  0.29193878262808376  0.5273823892896822  0.7176548113866127  1.0000
  S   S132      1.0  0.2690836437175099  0.5580628645993227  0.7965480327549768  1.0000
  Fe  Fe67      1.0  0.34007249578618853  0.5442604281480802  0.6878334123293898  1.0000
  S   S133      1.0  0.39979766045986326  0.5279357624317802  0.6719306884911215  1.0000
  Fe  Fe68      1.0  0.2456596804398333  0.5407534342369053  0.6826010869065211  1.0000
  S   S134      1.0  0.19285607432594004  0.5210644048072546  0.6649618781964123  1.0000
  S   S135      1.0  0.33664514366755494  0.5740726565167377  0.7163239405169906  1.0000
  S   S136      1.0  0.2342486311721532  0.570096835049807  0.7108813525991579  1.0000
  Fe  Fe69      1.0  0.9702962106589381  0.5691212110816385  0.6621073483586771  1.0000
  S   S137      1.0  0.9188953252296126  0.5935384697340722  0.6657003714375  1.0000
  S   S138      1.0  0.03087124662453178  0.577522780327489  0.6851963634210574  1.0000
  Fe  Fe70      1.0  0.9192062827614166  0.5416098422481408  0.6188224034840364  1.0000
  S   S139      1.0  0.8642406345023008  0.5643430887716642  0.6176609791528178  1.0000
  S   S140      1.0  0.9208674721672123  0.5101448455869811  0.5949446106151516  1.0000
  Fe  Fe71      1.0  0.9134383818657278  0.5889141716802228  0.6125486831532679  1.0000
  S   S141      1.0  0.9166605244662912  0.6184164078278096  0.5828403939071944  1.0000
  Fe  Fe72      1.0  0.8754271271614759  0.5665676052978867  0.6708358235341568  1.0000
  S   S142      1.0  0.8208490245685135  0.564316669971771  0.7058170032239683  1.0000
  S   S143      1.0  0.9675377474647396  0.565973356391814  0.6086746877959884  1.0000
  S   S144      1.0  0.9275884778133822  0.5423765358266178  0.6723207347523197  1.0000
  Fe  Fe73      1.0  0.3759829296731202  0.3977015082365725  0.6836927975539043  1.0000
  S   S145      1.0  0.4287064476438662  0.4201308637213048  0.6788653775582225  1.0000
  S   S146      1.0  0.3169530884505407  0.4003694263580831  0.6549052418645569  1.0000
  Fe  Fe74      1.0  0.4160800540742655  0.37413949829324666  0.7388783319997986  1.0000
  S   S147      1.0  0.4728675086865656  0.3944864913144772  0.7393045573664094  1.0000
  S   S148      1.0  0.4105935435537353  0.34873763735605834  0.7761584714211043  1.0000
  Fe  Fe75      1.0  0.4266181856683341  0.42093843538757  0.732675837257787  1.0000
  S   S149      1.0  0.428950837995729  0.4498470714412087  0.7627022952679405  1.0000
  Fe  Fe76      1.0  0.47071324040492396  0.3917351860248169  0.6856259369689298  1.0000
  S   S150      1.0  0.528588969265203  0.38980910942063995  0.6540058735304355  1.0000
  S   S151      1.0  0.3699010338244486  0.40104457297292034  0.737063173493113  1.0000
  S   S152      1.0  0.41782384406751893  0.36891721053385107  0.6854643327801816  1.0000
  Fe  Fe77      1.0  0.8273779402374916  0.41871461653382863  0.732059659814842  1.0000
  S   S153      1.0  0.7609477214126674  0.4276333532429856  0.7199921264579462  1.0000
  S   S154      1.0  0.8519623919870184  0.43083132783933564  0.7790136995764094  1.0000
  Fe  Fe78      1.0  0.8384334295124181  0.3923176746417997  0.6715119327857392  1.0000
  S   S155      1.0  0.7725329392461526  0.3988089583426525  0.6545999239243991  1.0000
  S   S156      1.0  0.8832220100427607  0.36906564791366947  0.6480822028866614  1.0000
  Fe  Fe79      1.0  0.7856351274559645  0.43177940738751486  0.6696392722098752  1.0000
  S   S157      1.0  0.7633155983829075  0.460780283395662  0.643605592725602  1.0000
  Fe  Fe80      1.0  0.7538201530057451  0.39409239732089413  0.7064360610734488  1.0000
  S   S158      1.0  0.6998164831328794  0.3763248521425017  0.7280795887325203  1.0000
  S   S159      1.0  0.8532440332406752  0.4257938870323053  0.6827969202982678  1.0000
  S   S160      1.0  0.8185782553768556  0.3847097884972652  0.7222185662834912  1.0000
  Fe  Fe81      1.0  0.42286860000359155  0.5477692282821293  0.9380559654508479  1.0000
  S   S161      1.0  0.45842658086348503  0.5236604377761568  0.9673332251209563  1.0000
  S   S162      1.0  0.42965221651092733  0.549981286383752  0.8841015171918131  1.0000
  Fe  Fe82      1.0  0.39060558202630646  0.5713088477609237  0.9970213264142784  1.0000
  S   S163      1.0  0.42305484810297  0.5492473706785389  0.03120726752046732  1.0000
  S   S164      1.0  0.35705539114671714  0.6011849818669145  0.011759879870873569  1.0000
  Fe  Fe83      1.0  0.47773592356312516  0.5510492844167626  0.9969674963978036  1.0000
  S   S165      1.0  0.5420598000431688  0.5570424431425056  0.016276786950655264  1.0000
  Fe  Fe84      1.0  0.40015305887584546  0.5240888524530372  0.9987690590989377  1.0000
  S   S166      1.0  0.36629432513633786  0.4968024511408142  0.02074053423574651  1.0000
  S   S167      1.0  0.44726423324544  0.5750883983349304  0.9652461551628503  1.0000
  S   S168      1.0  0.3629783516343604  0.5461065263368454  0.9671370334841212  1.0000
  Fe  Fe85      1.0  0.825065689316172  0.5507336147757848  0.8897325061868199  1.0000
  S   S169      1.0  0.7623965974322247  0.5370550022941257  0.8796221021601505  1.0000
  S   S170      1.0  0.873724017264688  0.558213385377604  0.85167113532549  1.0000
  Fe  Fe86      1.0  0.8105145998755524  0.5500706928728648  0.9622886245136543  1.0000
  S   S171      1.0  0.7470830547268357  0.5358332315545438  0.9582333459266079  1.0000
  S   S172      1.0  0.8318331296472176  0.5555547931863092  0.01282744830689464  1.0000
  Fe  Fe87      1.0  0.7773550423093598  0.5153748480522798  0.9206590948354105  1.0000
  S   S173      1.0  0.7643573642754586  0.48140247197074937  0.9131710909864988  1.0000
  Fe  Fe88      1.0  0.737698995026515  0.5588501801005294  0.9178922816782534  1.0000
  S   S174      1.0  0.6803513134116561  0.5798123094055021  0.9122316310302656  1.0000
  S   S175      1.0  0.8422054806420631  0.5273834280329286  0.9281769719026614  1.0000
  S   S176      1.0  0.7992937846223542  0.5746629433556666  0.9244960390755105  1.0000
  Fe  Fe89      1.0  0.9041507209471142  0.3900606715316914  0.9669445909669143  1.0000
  S   S177      1.0  0.8575962943312937  0.37340480982093194  0.9366939549779261  1.0000
  S   S178      1.0  0.9002764084087836  0.4238446637186254  0.9816079112953421  1.0000
  Fe  Fe90      1.0  0.9582942950830753  0.3512431556750393  0.977146825201311  1.0000
  S   S179      1.0  0.9170854818451598  0.33114625879771165  0.9474642995117123  1.0000
  S   S180      1.0  0.015335481913262061  0.33673249822474927  0.00022715757454072616  1.0000
  Fe  Fe91      1.0  0.9148478455959649  0.35857511907563416  0.9134958683588361  1.0000
  S   S181      1.0  0.9226245969440268  0.35416217855888205  0.860167339695662  1.0000
  Fe  Fe92      1.0  0.8640198626432869  0.3477530767057044  0.9733396057485737  1.0000
  S   S182      1.0  0.8064502579696565  0.3305809212747133  0.9888164034466022  1.0000
  S   S183      1.0  0.9611486280097803  0.37726481240965254  0.9407328403946544  1.0000
  S   S184      1.0  0.9052787478865822  0.3656309121445141  0.0060449438724379245  1.0000
  Fe  Fe93      1.0  0.2885082983649147  0.3523347223473694  0.9750606666409272  1.0000
  S   S185      1.0  0.28267089349279123  0.3853708075363128  0.9929300018796318  1.0000
  S   S186      1.0  0.3149804992934272  0.32618861717525427  0.005733359459244136  1.0000
  Fe  Fe94      1.0  0.2582164373271374  0.36389382592692293  0.9080202664618185  1.0000
  S   S187      1.0  0.2495663945202329  0.39778283843744483  0.9204745918338147  1.0000
  S   S188      1.0  0.24149642126078794  0.3553049360824627  0.8575253249575544  1.0000
  Fe  Fe95      1.0  0.3113343595833056  0.39397826061933067  0.9452930645893087  1.0000
  S   S189      1.0  0.3661804544397639  0.41501972339752  0.9372229406025046  1.0000
  Fe  Fe96      1.0  0.22142092557367424  0.3857043918815846  0.9665945950238962  1.0000
  S   S190      1.0  0.16196176819159686  0.40099714348239796  0.9856533186405925  1.0000
  S   S191      1.0  0.3223824762095147  0.36090747776864096  0.9293562596391906  1.0000
  S   S192      1.0  0.22492460157499672  0.35192003577950004  0.952076869010877  1.0000
  Fe  Fe97      1.0  0.24851845874894513  0.6461324723265258  0.48959822668085984  1.0000
  S   S193      1.0  0.20852408182452215  0.6654684751475771  0.5233621483193373  1.0000
  S   S194      1.0  0.2886288738241549  0.6193034907057012  0.5079456937049668  1.0000
  Fe  Fe98      1.0  0.22386926788053815  0.6724656051314429  0.43153426013228413  1.0000
  S   S195      1.0  0.18159264172512726  0.6937677965670833  0.460731957825979  1.0000
  S   S196      1.0  0.2258201768434963  0.680327356993819  0.3787562107472315  1.0000
  Fe  Fe99      1.0  0.23413642959182215  0.692778817242632  0.49621806156358816  1.0000
  S   S197      1.0  0.2530388079365573  0.721088585215268  0.523756054652077  1.0000
  Fe  Fe100     1.0  0.16027212262166216  0.6642638721755875  0.4848122630166782  1.0000
  S   S198      1.0  0.09374849646349745  0.6551442075976973  0.4961568024994528  1.0000
  S   S199      1.0  0.2783099672382118  0.6737492192177498  0.4651697985270132  1.0000
  S   S200      1.0  0.19834164311811797  0.6428455417737513  0.45263202125385965  1.0000
  Fe  Fe101     1.0  0.8536597730580705  0.6571880019965132  0.42822511167175614  1.0000
  S   S201      1.0  0.8711277861201474  0.6815399416618154  0.46406437855808913  1.0000
  S   S202      1.0  0.8553544023876388  0.6227483578887796  0.4402291370498049  1.0000
  Fe  Fe102     1.0  0.8265759952084701  0.6894595804878242  0.37854234864918507  1.0000
  S   S203      1.0  0.8421362171288697  0.716492860567122  0.41008902546353465  1.0000
  S   S204      1.0  0.7959747593350575  0.697296039829127  0.3313979106065608  1.0000
  Fe  Fe103     1.0  0.9002221423107577  0.6976707616217429  0.4215565046747433  1.0000
  S   S205      1.0  0.9615904876041935  0.7139634223617431  0.42601617209837045  1.0000
  Fe  Fe104     1.0  0.811727346701815  0.6978661763064836  0.44939159227138564  1.0000
  S   S206      1.0  0.7709694479100047  0.7135693526079294  0.48673228427226795  1.0000
  S   S207      1.0  0.8877835395710609  0.6719830086653601  0.38644587240502065  1.0000
  S   S208      1.0  0.7910270401897621  0.6722485931894938  0.4171165313786665  1.0000
  Fe  Fe105     1.0  0.31443262737989225  0.8304846170502664  0.4487200428821851  1.0000
  S   S209      1.0  0.3827031110983106  0.8281108823862375  0.4618791523126068  1.0000
  S   S210      1.0  0.2616855506557829  0.8457338980697215  0.477085022239405  1.0000
  Fe  Fe106     1.0  0.32777578104074945  0.8084707730577216  0.38449755210989445  1.0000
  S   S211      1.0  0.3972775762304528  0.8045053217821218  0.39149381291310775  1.0000
  S   S212      1.0  0.29454092881561034  0.7930694936442189  0.3438094712816292  1.0000
  Fe  Fe107     1.0  0.38001850881644306  0.7956023180511621  0.44203240056093485  1.0000
  S   S213      1.0  0.4096690744683628  0.76659640451141  0.463240853810769  1.0000
  Fe  Fe108     1.0  0.3938521055814603  0.8373711102143928  0.41032582072259294  1.0000
  S   S214      1.0  0.44036419418062234  0.8612320364157509  0.3937644347977602  1.0000
  S   S215      1.0  0.31056353110542123  0.7969788312436589  0.4337160225389525  1.0000
  S   S216      1.0  0.32563423868958574  0.8423077509636051  0.3985515890285767  1.0000
  Fe  Fe109     1.0  0.6922798935045821  0.8142309564301002  0.4203861430491614  1.0000
  S   S217      1.0  0.7545873760031409  0.8277893295364941  0.40689098024400433  1.0000
  S   S218      1.0  0.6734064221100862  0.7820505016244379  0.4060458210625333  1.0000
  Fe  Fe110     1.0  0.6593924598584464  0.8542326373617652  0.45034579311047895  1.0000
  S   S219      1.0  0.7182502703773532  0.8719029509089338  0.43931574109511734  1.0000
  S   S220      1.0  0.6032436117965766  0.8661223780066688  0.47853164925487446  1.0000
  Fe  Fe111     1.0  0.716402351177487  0.8558616804713327  0.39132757719267675  1.0000
  S   S221      1.0  0.7320099771515367  0.8719219627448155  0.3444861408726631  1.0000
  Fe  Fe112     1.0  0.7516255004551161  0.8425007743300632  0.4557334216967123  1.0000
  S   S222      1.0  0.8111139475877367  0.844044869356274  0.484324408266613  1.0000
  S   S223      1.0  0.654075275566742  0.8410628798089224  0.4007965879226472  1.0000
  S   S224      1.0  0.6929320461271113  0.8260005707576498  0.47091426526847013  1.0000
  Fe  Fe113     1.0  0.7623281331663176  0.6364874371739949  0.182987023205368  1.0000
  S   S225      1.0  0.6960335966181549  0.6491380293006433  0.18494659188510096  1.0000
  S   S226      1.0  0.7959191583813228  0.6254991598591744  0.22758089781032986  1.0000
  Fe  Fe114     1.0  0.773202319954083  0.6471688352906055  0.11226564769256224  1.0000
  S   S227      1.0  0.7084791163583073  0.6615608005695554  0.10842662588653876  1.0000
  S   S228      1.0  0.8132890624013367  0.6475321621062942  0.06732993977054873  1.0000
  Fe  Fe115     1.0  0.7217334681704894  0.6757987432347233  0.1561972024203513  1.0000
  S   S229      1.0  0.7056614140283152  0.708541915500151  0.171755810206484  1.0000
  Fe  Fe116     1.0  0.6887597565995239  0.6336232063493545  0.13727954722408053  1.0000
  S   S230      1.0  0.6289210582201176  0.6171326304514296  0.12674441595337815  1.0000
  S   S231      1.0  0.788681423970628  0.6643518561623819  0.15731799007182087  1.0000
  S   S232      1.0  0.7526029584606425  0.6179554083374226  0.1378581538018228  1.0000
  Fe  Fe117     1.0  0.4270351047177966  0.6710259731390269  0.18877411114529788  1.0000
  S   S233      1.0  0.42237591105853656  0.6394950707263042  0.21221990336325586  1.0000
  S   S234      1.0  0.48780750473641027  0.683095873895086  0.16800035894343593  1.0000
  Fe  Fe118     1.0  0.334358170359002  0.680958216580328  0.1980623402361575  1.0000
  S   S235      1.0  0.3217942322188614  0.6500762221152326  0.22153669899367254  1.0000
  S   S236      1.0  0.2772392445244683  0.7019726243226171  0.19529452239420828  1.0000
  Fe  Fe119     1.0  0.38075442906172513  0.6556791401985087  0.24848342914113672  1.0000
  S   S237      1.0  0.3844935884496608  0.6462376337495267  0.30054324558145523  1.0000
  Fe  Fe120     1.0  0.36393643489808886  0.6365900943822758  0.18320216580329313  1.0000
  S   S238      1.0  0.3506736892448518  0.6047338171823472  0.16355558025720573  1.0000
  S   S239      1.0  0.39058093293362256  0.6878316791232012  0.2280733755947835  1.0000
  S   S240      1.0  0.371425198271256  0.6670686366215868  0.15676303079917256  1.0000
  Fe  Fe121     1.0  0.7925238578820621  0.8459094799265775  0.12483534696483403  1.0000
  S   S241      1.0  0.8551803889623167  0.8314400358598044  0.11085699901111234  1.0000
  S   S242      1.0  0.759490447427304  0.8720059095693763  0.09786315577823712  1.0000
  Fe  Fe122     1.0  0.7848330287364076  0.819724908008085  0.18628052306272883  1.0000
  S   S243      1.0  0.8471785366547321  0.8035651003915903  0.17770874161576744  1.0000
  S   S244      1.0  0.7500776790691088  0.8077788993555928  0.230012340267628  1.0000
  Fe  Fe123     1.0  0.8700431473110382  0.8351550423071352  0.16312889409799977  1.0000
  S   S245      1.0  0.9288564598704052  0.849075429429818  0.1823966357963721  1.0000
  Fe  Fe124     1.0  0.8258166401217474  0.8012158254765354  0.12675464365136324  1.0000
  S   S246      1.0  0.8311345654822492  0.7698909267044808  0.10232905590926225  1.0000
  S   S247      1.0  0.8094673254425416  0.8517296333846786  0.1762672541934194  1.0000
  S   S248      1.0  0.7616346317964724  0.8154336162812563  0.13608533331757067  1.0000
  Fe  Fe125     1.0  0.1967915717097762  0.846659528778801  0.11590901228472207  1.0000
  S   S249      1.0  0.18631698483033107  0.8128572369560263  0.10544675162835541  1.0000
  S   S250      1.0  0.18382675999003484  0.8714115966399021  0.0784476071608534  1.0000
  Fe  Fe126     1.0  0.2220219073279741  0.8378848393746331  0.1850302634037327  1.0000
  S   S251      1.0  0.21311360541600813  0.8032639782992019  0.18052084664099868  1.0000
  S   S252      1.0  0.2473898046229516  0.8537792417742874  0.2287113303484449  1.0000
  Fe  Fe127     1.0  0.2457293875379586  0.8069417332914571  0.13265783579323884  1.0000
  S   S253      1.0  0.2984860542933856  0.7852624306999156  0.11652557528917756  1.0000
  Fe  Fe128     1.0  0.15429275647822832  0.8123814345785787  0.1538589930747954  1.0000
  S   S254      1.0  0.09372872720633038  0.7945957907341072  0.1558089535388511  1.0000
  S   S255      1.0  0.2592499411984104  0.8409576600581105  0.13901219842893386  1.0000
  S   S256      1.0  0.1603901286821411  0.8468730108088224  0.16249182636911394  1.0000
  C   C1        1.0  0.9742157449546287  0.8334293724716263  0.176182144297764  1.0000
  C   C2        1.0  0.9718667125136043  0.8139018539754701  0.1613351193832875  1.0000
  C   C3        1.0  0.008655014078184253  0.8017484767965406  0.15612884960104073  1.0000
  C   C4        1.0  0.047856986684705845  0.8092297501354837  0.16530131425922256  1.0000
  C   C5        1.0  0.05002542254840736  0.8286001422235988  0.18062414989654677  1.0000
  C   C6        1.0  0.013241977605250144  0.8406909228474139  0.18604240153658863  1.0000
  H   H1        1.0  0.9417876805212179  0.8082133079140107  0.1536961715113785  1.0000
  H   H2        1.0  0.0068674622846232065  0.7867167782201838  0.1443888054467492  1.0000
  H   H3        1.0  0.07999516327978386  0.8342421908582395  0.18843901382111056  1.0000
  H   H4        1.0  0.015115876790723792  0.8557366527271072  0.1977320228183331  1.0000
  C   C7        1.0  0.28237198288553544  0.723429954987416  0.16924009730363265  1.0000
  C   C8        1.0  0.3210933248412888  0.7278913503079816  0.15458997723443696  1.0000
  C   C9        1.0  0.3252689243610924  0.74623700057938  0.1360898780811841  1.0000
  C   C10       1.0  0.29089806023821924  0.760184714431123  0.1326889683045589  1.0000
  C   C11       1.0  0.251701634135484  0.7550749245870157  0.1458474219118949  1.0000
  C   C12       1.0  0.24753466439866975  0.7367939185193949  0.1643113994782423  1.0000
  H   H5        1.0  0.34796972312242863  0.717465513942876  0.15811718678161177  1.0000
  H   H6        1.0  0.3555002433259121  0.7500323383166152  0.1255518844825048  1.0000
  H   H7        1.0  0.2247866727725688  0.7654840946042657  0.14256019171306816  1.0000
  H   H8        1.0  0.21743858411774217  0.7332225957138635  0.1753208287589325  1.0000
  C   C13       1.0  0.5878836348354701  0.6349371985161061  0.13605431864743378  1.0000
  C   C14       1.0  0.5520247334582241  0.6282528444539318  0.1527216827900095  1.0000
  C   C15       1.0  0.5202865767572836  0.6428228190268617  0.16162004499008942  1.0000
  C   C16       1.0  0.524124785184282  0.6640455656345117  0.15365530645473421  1.0000
  C   C17       1.0  0.5593231881550799  0.6705081359987208  0.13593756348136435  1.0000
  C   C18       1.0  0.5913403281251087  0.6560577240958123  0.12750720081051303  1.0000
  H   H9        1.0  0.5493487623718059  0.6119423628163281  0.15959920784418674  1.0000
  H   H10       1.0  0.4934819020272572  0.6376178260612705  0.1752482394110979  1.0000
  H   H11       1.0  0.5621939757560303  0.6868076572087319  0.12907588869746142  1.0000
  H   H12       1.0  0.618530008827938  0.6612989735553426  0.11411922710430744  1.0000
  C   C19       1.0  0.7377385990487247  0.7260454889654006  0.1507355815925823  1.0000
  C   C20       1.0  0.7596424853095006  0.7197036391684094  0.12292315649517598  1.0000
  C   C21       1.0  0.7871199486330754  0.7335263635485207  0.1073588040137277  1.0000
  C   C22       1.0  0.794103818481022  0.7533019303944593  0.12031906219356617  1.0000
  C   C23       1.0  0.7719505232027002  0.7595826879978667  0.148051306198087  1.0000
  C   C24       1.0  0.7430354353433605  0.7461857898901543  0.16276754955114697  1.0000
  H   H13       1.0  0.7549297408282084  0.7042833544814858  0.11315618975484096  1.0000
  H   H14       1.0  0.8027004200558258  0.7289773616265043  0.08522035501520797  1.0000
  H   H15       1.0  0.7771852606108607  0.7747163217492329  0.15840214114917778  1.0000
  H   H16       1.0  0.7255989692651879  0.7512687921288119  0.1839654109129592  1.0000
  C   C25       1.0  0.7327448041679901  0.8543190086827541  0.31217527353295754  1.0000
  C   C26       1.0  0.7281375547579237  0.8328443146428133  0.31767505953041253  1.0000
  C   C27       1.0  0.7323920038987837  0.8187086208265139  0.29209267830522223  1.0000
  C   C28       1.0  0.7413069231842413  0.8259897710371504  0.2609421705496192  1.0000
  C   C29       1.0  0.7444419802787904  0.8475187672777827  0.2551834977318814  1.0000
  C   C30       1.0  0.740060668555907  0.8616783291267376  0.28078871856286314  1.0000
  H   H17       1.0  0.7215375169827327  0.8270734236686765  0.34165883743207714  1.0000
  H   H18       1.0  0.7292905595210034  0.8020945829865986  0.2965732904612864  1.0000
  H   H19       1.0  0.7500211489900723  0.8532598963419045  0.23102512216623936  1.0000
  H   H20       1.0  0.7427138057985483  0.8783302476455725  0.2763703739164536  1.0000
  C   C31       1.0  0.27838157569923194  0.8108031243516971  0.3137527924962997  1.0000
  C   C32       1.0  0.29595790447388437  0.8306613426521852  0.3113615689969301  1.0000
  C   C33       1.0  0.28513939064831084  0.8440611027460865  0.28571892571771657  1.0000
  C   C34       1.0  0.2568792430285395  0.8376251138525456  0.26235055909715194  1.0000
  C   C35       1.0  0.23858010426668524  0.8179555226756038  0.26517807845458646  1.0000
  C   C36       1.0  0.2494562229864352  0.8045232915343149  0.29077324788747727  1.0000
  H   H21       1.0  0.3187514842656788  0.8355099873020424  0.3287148302421498  1.0000
  H   H22       1.0  0.29940284895162167  0.859262171617449  0.28357696678263317  1.0000
  H   H23       1.0  0.21596900672572644  0.813101477910928  0.24770936451616107  1.0000
  H   H24       1.0  0.23557026170581621  0.7892242851026682  0.2926553107715741  1.0000
  C   C37       1.0  0.48497645126581085  0.8634286246195911  0.41785165509196137  1.0000
  C   C38       1.0  0.5231623761419759  0.8693509032597776  0.40367718694917315  1.0000
  C   C39       1.0  0.5595586030315789  0.8704275292704992  0.4223016674465973  1.0000
  C   C40       1.0  0.5575663906659452  0.8661387161162462  0.45531637302296274  1.0000
  C   C41       1.0  0.5190336053714939  0.8609911697830622  0.46973304253080617  1.0000
  C   C42       1.0  0.4828663335938394  0.8594083802585846  0.45095932718826276  1.0000
  H   H25       1.0  0.5248494083300266  0.8727316097987022  0.3781322964547041  1.0000
  H   H26       1.0  0.5890583211551768  0.8748353851450852  0.41114736751301784  1.0000
  H   H27       1.0  0.517383071573802  0.8578211308999408  0.4953352162936358  1.0000
  H   H28       1.0  0.4534283581487357  0.8552371485733379  0.4622353115763869  1.0000
  C   C43       1.0  0.7965602832502694  0.6771232738354305  0.30301085720452664  1.0000
  C   C44       1.0  0.825797520816027  0.6604535151224015  0.30465495404539467  1.0000
  C   C45       1.0  0.8260651274537087  0.644773758730843  0.281066546723628  1.0000
  C   C46       1.0  0.7969853527243757  0.6457020250124332  0.2560056683150237  1.0000
  C   C47       1.0  0.7682777866528596  0.6625713153750896  0.2542255090478404  1.0000
  C   C48       1.0  0.7678140001567038  0.6781328283107446  0.27781541358026524  1.0000
  H   H29       1.0  0.8486606726359723  0.6598709088065556  0.3236660919925692  1.0000
  H   H30       1.0  0.8490002630511925  0.6320172093589711  0.2819551441973844  1.0000
  H   H31       1.0  0.7461193195831944  0.6635729117298418  0.2348521455489668  1.0000
  H   H32       1.0  0.7451092681722997  0.6909807341384644  0.27647586083661424  1.0000
  C   C49       1.0  0.7384315333769174  0.7312462722414463  0.4657842699356216  1.0000
  C   C50       1.0  0.722470268680474  0.7493210221086637  0.4809088153034415  1.0000
  C   C51       1.0  0.702234821161372  0.7650730850958438  0.46269030932349975  1.0000
  C   C52       1.0  0.6966097757380505  0.7623074043537512  0.4296488776949738  1.0000
  C   C53       1.0  0.7105052182515038  0.7437246518134802  0.41497164693119953  1.0000
  C   C54       1.0  0.7319439448163119  0.7283405097411629  0.4329111257653037  1.0000
  H   H33       1.0  0.727242985602065  0.751526660409799  0.5063894094176837  1.0000
  H   H34       1.0  0.6909205335145534  0.7792798419781884  0.4742155838699755  1.0000
  H   H35       1.0  0.7060494587335169  0.7415286637576196  0.3894398332040766  1.0000
  H   H36       1.0  0.7439970907302652  0.7143782276990359  0.4210812123586548  1.0000
  C   C55       1.0  0.05589492546472519  0.6721426668139827  0.47928229820140916  1.0000
  C   C56       1.0  0.06479342135553279  0.6932016820346825  0.47338230174216217  1.0000
  C   C57       1.0  0.03515648475567912  0.7062713037560722  0.45791422191789477  1.0000
  C   C58       1.0  0.9967672482807454  0.6982365962362257  0.44815093732351463  1.0000
  C   C59       1.0  0.9877554892538272  0.6772376904323522  0.4543437035775827  1.0000
  C   C60       1.0  0.017079098496775472  0.6642527332639353  0.4702083249281057  1.0000
  H   H37       1.0  0.09431733342951133  0.699485107641011  0.4810090460972429  1.0000
  H   H38       1.0  0.04214624683629031  0.7225419246604636  0.45324640098789076  1.0000
  H   H39       1.0  0.9587208985680532  0.6708359221738643  0.44601923920956965  1.0000
  H   H40       1.0  0.010157929847708145  0.647932706653637  0.47455381938025865  1.0000
  C   C61       1.0  0.27028749299227356  0.6708160982821758  0.35758032468630935  1.0000
  C   C62       1.0  0.3002427800089303  0.6578006589211599  0.3725366391856666  1.0000
  C   C63       1.0  0.3356567389106959  0.6504679188243792  0.3550345021836572  1.0000
  C   C64       1.0  0.34114310047568075  0.6561871813520374  0.32265387786980476  1.0000
  C   C65       1.0  0.3113732829073325  0.6693946211412164  0.307888547643897  1.0000
  C   C66       1.0  0.27596166579210557  0.6766535791794979  0.32531242439011987  1.0000
  H   H41       1.0  0.2959860581058125  0.6532029608993614  0.39745571869214014  1.0000
  H   H42       1.0  0.35864390760819775  0.6402421739721084  0.3665299350301442  1.0000
  H   H43       1.0  0.31555182445404295  0.6740603921685857  0.28300084293303523  1.0000
  H   H44       1.0  0.25296163735648675  0.6868008758245718  0.3136664352036742  1.0000
  C   C67       1.0  0.29835923265560016  0.7332300439879081  0.5088101021412235  1.0000
  C   C68       1.0  0.33164910114207913  0.7215275455747742  0.4949617643221756  1.0000
  C   C69       1.0  0.3671875229298734  0.7317006030534667  0.4825712706376289  1.0000
  C   C70       1.0  0.3689167687523452  0.7535854454631278  0.4833161041058989  1.0000
  C   C71       1.0  0.3361236193269772  0.7651892664423545  0.49784797897631267  1.0000
  C   C72       1.0  0.30115085941735165  0.7550076420107151  0.5109122917618751  1.0000
  H   H45       1.0  0.33023321940965783  0.7046872791886931  0.49384101447557693  1.0000
  H   H46       1.0  0.3926535992015953  0.7226911001072043  0.4714746825695666  1.0000
  H   H47       1.0  0.33756473970281137  0.7820951187113624  0.4988897826990695  1.0000
  H   H48       1.0  0.2756650099334426  0.7641112475246872  0.5218253225308704  1.0000
  C   C73       1.0  0.0558593214463321  0.3549584378652021  0.0015410564938920235  1.0000
  C   C74       1.0  0.09777884040689577  0.34795931651560863  0.004046788851908234  1.0000
  C   C75       1.0  0.13067117777508244  0.3621673819342524  0.00040950585378896065  1.0000
  C   C76       1.0  0.12164328825974145  0.38341439029104146  0.994671198950984  1.0000
  C   C77       1.0  0.07968596009766138  0.39055445619445106  0.9940381857060062  1.0000
  C   C78       1.0  0.04684205724412127  0.37633681245949546  0.9972794589838543  1.0000
  H   H49       1.0  0.10486163295124751  0.3314613539469071  0.007686747027413787  1.0000
  H   H50       1.0  0.1629547148285225  0.3566746355221243  0.0020611266052585897  1.0000
  H   H51       1.0  0.0725546053392485  0.40702511813642145  0.9900708220870581  1.0000
  H   H52       1.0  0.014547412247845948  0.3819487207226441  0.996265840567997  1.0000
  C   C79       1.0  0.828359730902951  0.5813408570670269  0.02728436562827885  1.0000
  C   C80       1.0  0.8239598481330475  0.5984976535128173  0.00636292142847239  1.0000
  C   C81       1.0  0.8204761543869681  0.6189077120257296  0.01869936463700972  1.0000
  C   C82       1.0  0.8204657368075771  0.6221396897453143  0.05200252105458325  1.0000
  C   C83       1.0  0.8250143299866114  0.6050070319209948  0.07288431083350044  1.0000
  C   C84       1.0  0.8293121056856427  0.5846750075198083  0.06052772369680803  1.0000
  H   H53       1.0  0.8239585299745843  0.5961023194225427  0.9807138964984509  1.0000
  H   H54       1.0  0.817122916278385  0.6321377610895543  0.0024566896013527018  1.0000
  H   H55       1.0  0.8261783533148336  0.6074225780069199  0.09856647616910785  1.0000
  H   H56       1.0  0.8332041874910995  0.5714711233993951  0.0767858313788321  1.0000
  C   C85       1.0  0.800457967356314  0.4651535616008194  0.9333353669054008  1.0000
  C   C86       1.0  0.8254941883554623  0.47320529393584293  0.9575308399107999  1.0000
  C   C87       1.0  0.8565904890910807  0.46047680787365586  0.9718121477191913  1.0000
  C   C88       1.0  0.8625097518864118  0.4396462795397328  0.9621172993972549  1.0000
  C   C89       1.0  0.8374060536389017  0.4316217240732241  0.9379252643614546  1.0000
  C   C90       1.0  0.8062361150030539  0.4443277137369486  0.9236536042791034  1.0000
  H   H57       1.0  0.8209179256874564  0.48924137796790523  0.9652998332485432  1.0000
  H   H58       1.0  0.8759814277237633  0.46677535708218654  0.9905145936958638  1.0000
  H   H59       1.0  0.8421789790366083  0.4157547049833304  0.9298982420879688  1.0000
  H   H60       1.0  0.7871236313024813  0.43813476217596087  0.9047156639010918  1.0000
  C   C91       1.0  0.5773610648103271  0.5625569277507575  0.9847396857495673  1.0000
  C   C92       1.0  0.5757873068007  0.5820487552335413  0.9690862560262234  1.0000
  C   C93       1.0  0.6068831842217097  0.5871343779027345  0.9461400232977066  1.0000
  C   C94       1.0  0.6392530547365247  0.5726506370141965  0.9386010969600866  1.0000
  C   C95       1.0  0.6396641657481369  0.5529084586051881  0.9533855062858289  1.0000
  C   C96       1.0  0.6092826063928206  0.5480059812374797  0.9768409063625872  1.0000
  H   H61       1.0  0.5511082343482713  0.5933370426712677  0.9751425440218849  1.0000
  H   H62       1.0  0.6061572000242401  0.602362502196911  0.9345541465342025  1.0000
  H   H63       1.0  0.6629693232747718  0.5412339710311621  0.9464591786590477  1.0000
  H   H64       1.0  0.6102620646801663  0.5328247112954081  0.988614823408509  1.0000
  C   C97       1.0  0.34973353983388344  0.6020342603558666  0.05376485670084574  1.0000
  C   C98       1.0  0.3450217682008631  0.6213765100353325  0.06924112458292031  1.0000
  C   C99       1.0  0.34368104819950657  0.6222931536392521  0.10300561031197164  1.0000
  C   C100      1.0  0.34728054561570465  0.6038938785982532  0.12137376979574006  1.0000
  C   C101      1.0  0.35006535800874367  0.5845176925512374  0.10583854418493037  1.0000
  C   C102      1.0  0.3511810175727861  0.5835977324004457  0.07212070758161304  1.0000
  H   H65       1.0  0.34317853035539114  0.6356914649096742  0.05518310155814121  1.0000
  H   H66       1.0  0.3400421103249849  0.6372468444136472  0.11471557246463433  1.0000
  H   H67       1.0  0.3520135397395918  0.5701841263799661  0.1198512212264109  1.0000
  H   H68       1.0  0.3527361115814107  0.5685622965510662  0.06038565885993297  1.0000
  C   C103      1.0  0.3638984919874013  0.47534123849621623  0.994854228298457  1.0000
  C   C104      1.0  0.32988688861866194  0.4617547595663447  0.9972048395547823  1.0000
  C   C105      1.0  0.32925032679304417  0.44364396006462836  0.9782364732903447  1.0000
  C   C106      1.0  0.36324993195306027  0.4388549827689413  0.9576940383034301  1.0000
  C   C107      1.0  0.39677890443613095  0.4526328473328127  0.9548591414567343  1.0000
  C   C108      1.0  0.39694899099093595  0.4709528610735592  0.9732407647532314  1.0000
  H   H69       1.0  0.3040987758666626  0.4652523072571244  0.01372904919151341  1.0000
  H   H70       1.0  0.30291339264064776  0.4332151826542422  0.9799985300033184  1.0000
  H   H71       1.0  0.4230855518677638  0.4489672582117892  0.9389137631282816  1.0000
  H   H72       1.0  0.4233802772924427  0.4812874322876027  0.9715068447388948  1.0000
  C   C109      1.0  0.874753560932009  0.4102317804793697  0.8015105064572384  1.0000
  C   C110      1.0  0.8736471689445929  0.4109079671716308  0.8352074239323695  1.0000
  C   C111      1.0  0.8895228412677604  0.3939796974968329  0.8533418657661198  1.0000
  C   C112      1.0  0.9061159005133861  0.37619660108062514  0.837862072692767  1.0000
  C   C113      1.0  0.9076547317993099  0.37558510408818435  0.8041920769285987  1.0000
  C   C114      1.0  0.8921735745685546  0.39261872059874675  0.7860354946040614  1.0000
  H   H73       1.0  0.8595426916631418  0.4241883000788854  0.847480497117858  1.0000
  H   H74       1.0  0.8884811696595718  0.39462261470140064  0.8793045716295966  1.0000
  H   H75       1.0  0.920648024763333  0.3618761290283321  0.7921190882959027  1.0000
  H   H76       1.0  0.8938534327250696  0.3920981751080076  0.7600426806162917  1.0000
  C   C115      1.0  0.3623777541171637  0.3490539865564161  0.7974119839475807  1.0000
  C   C116      1.0  0.3606753696503905  0.3407175881626026  0.8286356974270563  1.0000
  C   C117      1.0  0.3232480890157105  0.34213461639518683  0.846880501420233  1.0000
  C   C118      1.0  0.2872196040367007  0.3516722451588727  0.833817486906059  1.0000
  C   C119      1.0  0.2884717535679858  0.35937601997557084  0.802178144434397  1.0000
  C   C120      1.0  0.32610506121983274  0.3582120632410497  0.7840742437005929  1.0000
  H   H77       1.0  0.3885466911643234  0.33346329377638706  0.8389492786248663  1.0000
  H   H78       1.0  0.3222496740220001  0.3357260913368981  0.8710072986059586  1.0000
  H   H79       1.0  0.2605897052082249  0.3666227367840477  0.7918917645032497  1.0000
  H   H80       1.0  0.32685228671241084  0.3641470829518458  0.7596783010344339  1.0000
  C   C121      1.0  0.5761387029883142  0.38484806992200565  0.674105957887046  1.0000
  C   C122      1.0  0.5765327082118045  0.37569820110197777  0.704781956840415  1.0000
  C   C123      1.0  0.6147731171637676  0.37272084830977  0.7209607405809391  1.0000
  C   C124      1.0  0.6526430951930212  0.3791190620091061  0.7066903209050972  1.0000
  C   C125      1.0  0.6522544426445761  0.3881693227002234  0.6759438105917973  1.0000
  C   C126      1.0  0.6141151691836094  0.390831427281784  0.6595647203296827  1.0000
  H   H81       1.0  0.5474899170985006  0.37062666736780064  0.7158749089909409  1.0000
  H   H82       1.0  0.6149239530990918  0.36558074442539845  0.7446493911142534  1.0000
  H   H83       1.0  0.6812847920721294  0.3931070261441792  0.6647224483890699  1.0000
  H   H84       1.0  0.613974832125799  0.39783066349251256  0.6357665816187064  1.0000
  C   C127      1.0  0.906299434533641  0.6163828451142508  0.5416898360195144  1.0000
  C   C128      1.0  0.8799582316629991  0.6009627912808795  0.5299422822650539  1.0000
  C   C129      1.0  0.8660659195558374  0.6021335409776516  0.4979485559201059  1.0000
  C   C130      1.0  0.8789489627182612  0.618567797240067  0.4778044311441231  1.0000
  C   C131      1.0  0.907685533867698  0.6329504884058638  0.4890432603658277  1.0000
  C   C132      1.0  0.9209781879091448  0.6320296846089016  0.5209726358340822  1.0000
  H   H85       1.0  0.8686174099607079  0.588787816635434  0.5458946558765418  1.0000
  H   H86       1.0  0.844050985477435  0.5908272344499234  0.48930692248661234  1.0000
  H   H87       1.0  0.9193165652531166  0.6449890648195625  0.47319590897233355  1.0000
  H   H88       1.0  0.9418241109177621  0.6438297783343677  0.5297991050720418  1.0000
  C   C133      1.0  0.8357252289144419  0.5626150706675799  0.7462233434586186  1.0000
  C   C134      1.0  0.8774007377718307  0.5657600561813767  0.7550569285221612  1.0000
  C   C135      1.0  0.8887939757061659  0.5641497368237385  0.7875052005825939  1.0000
  C   C136      1.0  0.8587035530170268  0.5592168651742604  0.8111528469040354  1.0000
  C   C137      1.0  0.8172369456503475  0.5555824633426439  0.802184289542512  1.0000
  C   C138      1.0  0.8056695623387288  0.5574740240802699  0.7697999668991912  1.0000
  H   H89       1.0  0.9007805126630107  0.5697012026276794  0.7369399537760406  1.0000
  H   H90       1.0  0.9209493131599605  0.5669804120599842  0.7943114057826068  1.0000
  H   H91       1.0  0.7939298303273259  0.5516365536969379  0.8201474749377708  1.0000
  H   H92       1.0  0.7734735415047969  0.5548329745986122  0.7629250523539287  1.0000
  C   C139      1.0  0.875078443634569  0.49601190859558003  0.6030083792109756  1.0000
  C   C140      1.0  0.8368170929569171  0.506536365050388  0.6092752732804474  1.0000
  C   C141      1.0  0.8013289689065192  0.49530210434795635  0.6188673820995574  1.0000
  C   C142      1.0  0.8044335350640358  0.4735939641880988  0.623522695542289  1.0000
  C   C143      1.0  0.8420307464389652  0.46287702989062823  0.6155995381201744  1.0000
  C   C144      1.0  0.8772777692516674  0.4740941605024188  0.6051014063864352  1.0000
  H   H93       1.0  0.8345448580395813  0.5233503650138153  0.6068749719449942  1.0000
  H   H94       1.0  0.7720582166006617  0.5035989662653454  0.6243284941454932  1.0000
  H   H95       1.0  0.8443324491758946  0.4460350228198023  0.618371471846967  1.0000
  H   H96       1.0  0.9067080366318441  0.4658643586866246  0.5999003923719161  1.0000
  C   C145      1.0  0.07411091752874466  0.5617788083456713  0.6735254357001229  1.0000
  C   C146      1.0  0.11347800747395898  0.5709571570790205  0.6702365328627704  1.0000
  C   C147      1.0  0.149462000826182  0.5584495493389038  0.664552326998342  1.0000
  C   C148      1.0  0.1466318292426034  0.5366499197182046  0.6638014860764087  1.0000
  C   C149      1.0  0.10698764494814805  0.5274587051404418  0.6656488458917716  1.0000
  C   C150      1.0  0.07053799320222365  0.5400842812244144  0.6700800515725378  1.0000
  H   H97       1.0  0.11628150605066012  0.5877607175052648  0.6723671181581587  1.0000
  H   H98       1.0  0.17955401035224272  0.5657064492265806  0.6610619887535237  1.0000
  H   H99       1.0  0.1045894514149275  0.5105868653208205  0.6647349523419276  1.0000
  H   H100      1.0  0.04003674373447841  0.5329542600666093  0.6724197538790027  1.0000
  C   C151      1.0  0.2752866006292387  0.6124448059153155  0.6167431982610033  1.0000
  C   C152      1.0  0.3108523166686338  0.6040328929184039  0.6008552471979948  1.0000
  C   C153      1.0  0.3140118532639882  0.6052047799690432  0.5671427822155809  1.0000
  C   C154      1.0  0.28129079836095094  0.614406429998902  0.5493211308971854  1.0000
  C   C155      1.0  0.2444937903220557  0.6213177328022298  0.5651781235858727  1.0000
  C   C156      1.0  0.24180608947140017  0.6207424430054456  0.5988630781767539  1.0000
  H   H101      1.0  0.3367400872196282  0.5974998075028531  0.6146256735591655  1.0000
  H   H102      1.0  0.34236700916233587  0.5995897616430278  0.5549824267768291  1.0000
  H   H103      1.0  0.21807677502714004  0.6270842458803941  0.5515067512047676  1.0000
  H   H104      1.0  0.21390746859628013  0.626825270954765  0.6111032743539423  1.0000
  C   C157      1.0  0.3137470133089617  0.5538652682602346  0.820431313102752  1.0000
  C   C158      1.0  0.35414012704325865  0.5554789649586933  0.8070451457223339  1.0000
  C   C159      1.0  0.38955448129459036  0.5535019592275218  0.8267174683121239  1.0000
  C   C160      1.0  0.38481602623132377  0.5496090569235781  0.8597669168508337  1.0000
  C   C161      1.0  0.3444758063997857  0.5470660186555079  0.8729339616720505  1.0000
  C   C162      1.0  0.3089327807546722  0.5494998376449207  0.8533681004721851  1.0000
  H   H105      1.0  0.35819430715792594  0.5586206949654543  0.7816303617324575  1.0000
  H   H106      1.0  0.42072368939131405  0.5552841638349422  0.8163458641493752  1.0000
  H   H107      1.0  0.3406115194094766  0.5434492759888934  0.8982137287063877  1.0000
  H   H108      1.0  0.27774257252845536  0.5479129591534043  0.8637403034656755  1.0000
  C   C163      1.0  0.4111754063376295  0.507172345915295  0.6982492112288657  1.0000
  C   C164      1.0  0.3958478595823768  0.5074761562832855  0.7299625971463211  1.0000
  C   C165      1.0  0.4024624879324192  0.4900545796248494  0.7501443471271814  1.0000
  C   C166      1.0  0.42377254669755016  0.47223316517546204  0.7384023404956113  1.0000
  C   C167      1.0  0.44000294041041405  0.47217695854980474  0.7069600179962985  1.0000
  C   C168      1.0  0.43398296819732085  0.489685109313784  0.6869458234491327  1.0000
  H   H109      1.0  0.3792169823630532  0.5212109830861349  0.7390805633554597  1.0000
  H   H110      1.0  0.39037394839895007  0.4902938064058098  0.7746262421649336  1.0000
  H   H111      1.0  0.4575741862630432  0.45874987217134056  0.6981259669854445  1.0000
  H   H112      1.0  0.44614065685262566  0.4895258585359496  0.6624909521902616  1.0000
  C   C169      1.0  0.743168754233794  0.350207832076917  0.08325271418236575  1.0000
  C   C170      1.0  0.719320396395868  0.34785565384476896  0.0555338603553541  1.0000
  C   C171      1.0  0.7390636198007782  0.3418474053672863  0.026586438758818165  1.0000
  C   C172      1.0  0.78287000741362  0.33918451272959177  0.02489484497625516  1.0000
  C   C173      1.0  0.8069447662635005  0.3424506803015388  0.05232094703962442  1.0000
  C   C174      1.0  0.7869822922992491  0.3474160509471278  0.08171553815015342  1.0000
  H   H113      1.0  0.6854785218434926  0.3500723404193384  0.05662414509979317  1.0000
  H   H114      1.0  0.7203707511923397  0.33927732530262483  0.005435372892001578  1.0000
  H   H115      1.0  0.8407540485828972  0.34054053402458345  0.05123465120895365  1.0000
  H   H116      1.0  0.8054922426435328  0.3493357391353765  0.1031465327933301  1.0000
  C   C175      1.0  0.34437553879741034  0.3459409326017774  0.10811618393979416  1.0000
  C   C176      1.0  0.31279070261779945  0.35656413624868727  0.09093996379754396  1.0000
  C   C177      1.0  0.3035641171263662  0.350535723199144  0.05947385149801332  1.0000
  C   C178      1.0  0.3265171580657291  0.33416051126089547  0.044880323947264156  1.0000
  C   C179      1.0  0.3579742998043166  0.32347247796458567  0.062140892231923095  1.0000
  C   C180      1.0  0.36665848988381516  0.3292278508533365  0.09384938099575924  1.0000
  H   H117      1.0  0.2949030938386831  0.3692006842771946  0.10223145856907075  1.0000
  H   H118      1.0  0.2779381160158141  0.35819874382754185  0.046887774533618254  1.0000
  H   H119      1.0  0.3758410813389932  0.31079536516724954  0.05094929111019075  1.0000
  H   H120      1.0  0.39110595643382534  0.32097878186050777  0.10704130075844827  1.0000
  C   C181      1.0  0.5452301177996017  0.30291651435169437  0.24055906295407498  1.0000
  C   C182      1.0  0.5406561091132372  0.2856808340207504  0.22036856384173026  1.0000
  C   C183      1.0  0.576465740831437  0.2751257893269252  0.20797574240675454  1.0000
  C   C184      1.0  0.6167342477394288  0.281972270005213  0.21547674956083543  1.0000
  C   C185      1.0  0.6211760440834041  0.29851942410278676  0.23695183708907505  1.0000
  C   C186      1.0  0.5854346948841168  0.30891071811474297  0.2496476962263962  1.0000
  H   H121      1.0  0.5096231915802398  0.2808789136957249  0.21343934811002396  1.0000
  H   H122      1.0  0.5729190136553187  0.26222965603445353  0.19150421454179622  1.0000
  H   H123      1.0  0.6521897301147861  0.30346799885777176  0.24357654258013678  1.0000
  H   H124      1.0  0.5890643367297596  0.32215046873792436  0.26544552087611434  1.0000
  C   C187      1.0  0.8282674025506492  0.22030329646750868  0.09713305418555897  1.0000
  C   C188      1.0  0.7976171249427878  0.23630060518342  0.09955109504392594  1.0000
  C   C189      1.0  0.8070792569480905  0.25530356833424034  0.11423964419951754  1.0000
  C   C190      1.0  0.8471840305062389  0.258419915816699  0.1265912061052518  1.0000
  C   C191      1.0  0.8784955535264438  0.24286934244604494  0.12253181032445176  1.0000
  C   C192      1.0  0.8691285756153267  0.2239096929238692  0.10759746552809238  1.0000
  H   H125      1.0  0.7661340186931135  0.2337417768104363  0.09094205845341259  1.0000
  H   H126      1.0  0.7831272265174866  0.2673866705581333  0.11612806782859542  1.0000
  H   H127      1.0  0.9098908658727203  0.2453372371996395  0.1313779485086959  1.0000
  H   H128      1.0  0.893556974894841  0.21211572174973722  0.1042255578994503  1.0000
  C   C193      1.0  0.05732455889701327  0.15352520248911977  0.10046550754448244  1.0000
  C   C194      1.0  0.09763780394932686  0.1614600999423288  0.10410273101038757  1.0000
  C   C195      1.0  0.1315931241994842  0.14792141982252283  0.11112313020129085  1.0000
  C   C196      1.0  0.12542353800324108  0.12636356950907837  0.11406040325368204  1.0000
  C   C197      1.0  0.0852229060959245  0.1183518471925552  0.1099808080257445  1.0000
  C   C198      1.0  0.05117914699784931  0.13193968416923355  0.10317168399668883  1.0000
  H   H129      1.0  0.10258552497857432  0.17814752928415503  0.10197104865526976  1.0000
  H   H130      1.0  0.1624764973758181  0.1542651094614122  0.11442375471857816  1.0000
  H   H131      1.0  0.08042009642162912  0.10166223892409598  0.11214953680167845  1.0000
  H   H132      1.0  0.02038970510217819  0.1256314381262782  0.0998503341019925  1.0000
  C   C199      1.0  0.2984465614441105  0.21782034975246967  0.12831860958401403  1.0000
  C   C200      1.0  0.3354540173743454  0.21265668916388697  0.11126053213052356  1.0000
  C   C201      1.0  0.3729183972799639  0.22287330580331632  0.11800922737523209  1.0000
  C   C202      1.0  0.3733795731101914  0.2382519846591729  0.14182331470745696  1.0000
  C   C203      1.0  0.33667665055019375  0.24287252541686066  0.15961177039491511  1.0000
  C   C204      1.0  0.2990729877847215  0.23287031358703664  0.15258643436707053  1.0000
  H   H133      1.0  0.3349585880883857  0.2011772523508711  0.09223783277595533  1.0000
  H   H134      1.0  0.4012573225695977  0.21925450912047537  0.10420941578774359  1.0000
  H   H135      1.0  0.3371127520445857  0.25424478139231893  0.1786231224711221  1.0000
  H   H136      1.0  0.27054760344344914  0.23671936984552142  0.16601367176578777  1.0000
  C   C205      1.0  0.34477762200080514  0.39256038639299634  0.5479324228228319  1.0000
  C   C206      1.0  0.30474156977365985  0.388350417111921  0.5604297891283988  1.0000
  C   C207      1.0  0.2957866876767033  0.3916619416354841  0.5931535014463021  1.0000
  C   C208      1.0  0.3272775545180115  0.3984975331526156  0.6135696091851038  1.0000
  C   C209      1.0  0.3670484529510545  0.40314419441261834  0.6009817947655786  1.0000
  C   C210      1.0  0.3756137910659774  0.40041633056480025  0.5680733972874202  1.0000
  H   H137      1.0  0.28054237145111915  0.38279717417880504  0.5448071390671487  1.0000
  H   H138      1.0  0.2648379813828276  0.3882985126138892  0.6028195520320244  1.0000
  H   H139      1.0  0.39143592077083283  0.4085567427510423  0.616570345393919  1.0000
  H   H140      1.0  0.40656131997740025  0.40378555655704007  0.558380436964012  1.0000
  C   C211      1.0  0.3650854082293309  0.30614961857814404  0.3667469956015263  1.0000
  C   C212      1.0  0.3262020309648647  0.29623367431285813  0.3664288053413  1.0000
  C   C213      1.0  0.3087724818921936  0.2903650648040845  0.3369964390316339  1.0000
  C   C214      1.0  0.33009614355239575  0.29464966736531656  0.3080663389333364  1.0000
  C   C215      1.0  0.36942540124129986  0.30398425055788164  0.30870140712444505  1.0000
  C   C216      1.0  0.386431079813222  0.3100748344549081  0.3378853578604597  1.0000
  H   H141      1.0  0.3099770210536511  0.2928084606594185  0.3887868121179897  1.0000
  H   H142      1.0  0.2787209475836214  0.2827132923294158  0.33662211339798076  1.0000
  H   H143      1.0  0.38669017505442477  0.30687086795536306  0.28673595757992726  1.0000
  H   H144      1.0  0.4159967113915756  0.31811127499782077  0.3381125122806724  1.0000
  C   C217      1.0  0.8959183313621543  0.3682240877548551  0.5383684052572257  1.0000
  C   C218      1.0  0.9147765234381332  0.3525090696388563  0.5572308643859722  1.0000
  C   C219      1.0  0.9114537610902527  0.3532788209372099  0.5908716531623452  1.0000
  C   C220      1.0  0.8884539354731124  0.3694931600124494  0.6059511377876182  1.0000
  C   C221      1.0  0.8695341671196078  0.3852786628712944  0.5872196335008117  1.0000
  C   C222      1.0  0.8736468836936933  0.3847336210161155  0.5534718410729992  1.0000
  H   H145      1.0  0.9321479202627261  0.3397580851109924  0.5461857556754407  1.0000
  H   H146      1.0  0.9261883383853277  0.34106763340419466  0.6053214225384714  1.0000
  H   H147      1.0  0.8519275796688796  0.3979309390837244  0.5987250648529494  1.0000
  H   H148      1.0  0.8591771902651147  0.3970432909134482  0.5390672658496171  1.0000
  C   C223      1.0  0.8913600035526316  0.321243036904879  0.33190785470239886  1.0000
  C   C224      1.0  0.8896945366358776  0.31616494300165776  0.29917304136040646  1.0000
  C   C225      1.0  0.8538215320840887  0.3214330941505923  0.2811772291366475  1.0000
  C   C226      1.0  0.8198802589514192  0.3321226280092645  0.29582592992131707  1.0000
  C   C227      1.0  0.8218079182154108  0.33744568432899363  0.3284332002677708  1.0000
  C   C228      1.0  0.8573988423629947  0.33192383468005776  0.3465000843284116  1.0000
  H   H149      1.0  0.9160551681102203  0.3079931974764964  0.2877714175783626  1.0000
  H   H150      1.0  0.8525481187856064  0.31737396807731205  0.25596879282218454  1.0000
  H   H151      1.0  0.7956498341143325  0.3458375535966115  0.3397311076373439  1.0000
  H   H152      1.0  0.8587747367352627  0.33622636127565547  0.37154430623319734  1.0000
  C   C229      1.0  0.08606715278808985  0.30778399207773627  0.46810160942592927  1.0000
  C   C230      1.0  0.08163739539851922  0.31754773284675747  0.43808606415199886  1.0000
  C   C231      1.0  0.11396337438416672  0.32995669702314007  0.4255854829329922  1.0000
  C   C232      1.0  0.15110919438682346  0.3323049091233083  0.44280446683791413  1.0000
  C   C233      1.0  0.15565200598012033  0.3224745399382538  0.47278548874805226  1.0000
  C   C234      1.0  0.12295948681609015  0.3103868549172483  0.48553502763536616  1.0000
  H   H153      1.0  0.05372545197305545  0.31516178412827284  0.4240937809579359  1.0000
  H   H154      1.0  0.11043903075979593  0.3374034371006336  0.40226753876499416  1.0000
  H   H155      1.0  0.18419799129351164  0.3243054012377669  0.48627766939495015  1.0000
  H   H156      1.0  0.12613610516781315  0.3031233023462114  0.5090178590226381  1.0000
  C   C235      1.0  0.7664710279007775  0.16277636662044265  0.25433249200886693  1.0000
  C   C236      1.0  0.7674561112364674  0.1565021925457399  0.22210223862058512  1.0000
  C   C237      1.0  0.8051956031576324  0.14921717835697168  0.2078240448856156  1.0000
  C   C238      1.0  0.8419887407662553  0.14779933769154943  0.22585700909509906  1.0000
  C   C239      1.0  0.8408188373179861  0.153531517799076  0.2583572808566693  1.0000
  C   C240      1.0  0.8031862969090453  0.16120242491806697  0.2725165621800648  1.0000
  H   H157      1.0  0.7390829986260826  0.15742189121841452  0.20801635519732306  1.0000
  H   H158      1.0  0.8056702128930595  0.14452185227752778  0.18292730772835505  1.0000
  H   H159      1.0  0.8692081552259938  0.15245481665374125  0.27242307040042296  1.0000
  H   H160      1.0  0.8029274362649288  0.16635517443350775  0.29723319128202375  1.0000
  C   C241      1.0  0.8324166840574846  0.20998761803502852  0.42749703569728015  1.0000
  C   C242      1.0  0.7945895399220017  0.2196667107691006  0.43750744336683767  1.0000
  C   C243      1.0  0.7950972411751553  0.23854830930703783  0.45453640925001904  1.0000
  C   C244      1.0  0.8333229983883197  0.24816948879881517  0.46060720077485906  1.0000
  C   C245      1.0  0.87117802981139  0.2384686467312023  0.4507102535914127  1.0000
  C   C246      1.0  0.8707437451073619  0.21925701882220563  0.43449658676477626  1.0000
  H   H161      1.0  0.7648547120571616  0.2127146085160631  0.43205409226835656  1.0000
  H   H162      1.0  0.7657282298496009  0.24599849755345737  0.46216750960023795  1.0000
  H   H163      1.0  0.9008333543613444  0.24562338436981382  0.4558614246901213  1.0000
  H   H164      1.0  0.9000758478858714  0.21181751560722367  0.4267699158520228  1.0000
  C   C247      1.0  0.5002296864535648  0.21919445706809673  0.36911732322507557  1.0000
  C   C248      1.0  0.5088557180161798  0.2226438422987624  0.40151817997849143  1.0000
  C   C249      1.0  0.550700318325961  0.22387894705184477  0.4115491108390661  1.0000
  C   C250      1.0  0.5838905275558702  0.22094669156868757  0.38941362045808886  1.0000
  C   C251      1.0  0.5752571383614387  0.21662011922181051  0.357242263084431  1.0000
  C   C252      1.0  0.5334016994834937  0.2160295608683857  0.3470254920458943  1.0000
  H   H165      1.0  0.4832890843106256  0.22527775354315374  0.4186017990225162  1.0000
  H   H166      1.0  0.5573807205293514  0.2272146785011844  0.436456089005284  1.0000
  H   H167      1.0  0.6008541602139239  0.21442191810366906  0.34005029846098084  1.0000
  H   H168      1.0  0.5267671281197016  0.21336262603460132  0.32191685063585246  1.0000
  C   C253      1.0  0.2968570388916848  0.16153323871145644  0.29991221382084543  1.0000
  C   C254      1.0  0.3332956516834968  0.1488140307713563  0.29968406355059674  1.0000
  C   C255      1.0  0.34785443136887495  0.13969681053849062  0.27082890351754657  1.0000
  C   C256      1.0  0.326105423809737  0.14335574597613493  0.24215193139510724  1.0000
  C   C257      1.0  0.2899895942749605  0.1562642291285865  0.24245162847113175  1.0000
  C   C258      1.0  0.2751156449226421  0.16513378135200002  0.27129538016772875  1.0000
  H   H169      1.0  0.34970232992171935  0.14558384290687942  0.32181113815004864  1.0000
  H   H170      1.0  0.3757250659556741  0.1296516204801074  0.2708148217938288  1.0000
  H   H171      1.0  0.2733837075779544  0.15945128912503825  0.220540080920874  1.0000
  H   H172      1.0  0.2469082477274542  0.17495009512774254  0.2713503062445667  1.0000
  C   C259      1.0  0.3036415651259969  0.2263918412519364  0.5015312802918246  1.0000
  C   C260      1.0  0.3222350669281535  0.2430618958236347  0.4850249724063346  1.0000
  C   C261      1.0  0.3202336561687214  0.2632869068926631  0.49823535476395653  1.0000
  C   C262      1.0  0.29982393795525036  0.26671157570692805  0.52793184981402  1.0000
  C   C263      1.0  0.28293769768303945  0.24984347842412497  0.544936647449608  1.0000
  C   C264      1.0  0.28446366722001065  0.22976423824263087  0.5316032216950904  1.0000
  H   H173      1.0  0.33726885844835136  0.24047342177247388  0.4618202819547215  1.0000
  H   H174      1.0  0.33394764559662354  0.2762442714567706  0.4852219654630305  1.0000
  H   H175      1.0  0.2671609895185991  0.2524401446214299  0.5678576029824942  1.0000
  H   H176      1.0  0.27014370972553237  0.21688101440345492  0.5444232485352776  1.0000
  C   C265      1.0  0.776166542320083  0.8746759821039631  0.9887764178387692  1.0000
  C   C266      1.0  0.7558729261298677  0.8911080319791467  0.005248880365824604  1.0000
  C   C267      1.0  0.7527102549774343  0.8906053411929326  0.03893720891189045  1.0000
  C   C268      1.0  0.769949161394698  0.873707208754424  0.05634484743823687  1.0000
  C   C269      1.0  0.7916988867693295  0.8576166562736734  0.03999298858480804  1.0000
  C   C270      1.0  0.7948755502103223  0.8581429331749157  0.006219016774715813  1.0000
  H   H177      1.0  0.7426348663953616  0.9042456020599162  0.9920630635957531  1.0000
  H   H178      1.0  0.7361654475119368  0.9031590437967322  0.051520376609590655  1.0000
  H   H179      1.0  0.8047426568574043  0.8444206061273668  0.053222209519542485  1.0000
  H   H180      1.0  0.810697085478284  0.8454051070788428  0.9935644259931361  1.0000
  C   C271      1.0  0.25385387218947053  0.8583763463821751  0.983973347074151  1.0000
  C   C272      1.0  0.22795410128165858  0.8762666471204098  0.987152685264522  1.0000
  C   C273      1.0  0.2056273016148951  0.8799453583902104  0.016001829805343926  1.0000
  C   C274      1.0  0.20934038947027842  0.8657953229622979  0.04175491356828398  1.0000
  C   C275      1.0  0.234587249580486  0.8476925427374146  0.03835746574400445  1.0000
  C   C276      1.0  0.25655487137839367  0.8439153620953354  0.009394397374465902  1.0000
  H   H181      1.0  0.22502253007552067  0.8872622324065738  0.9673606637564707  1.0000
  H   H182      1.0  0.18600086127671742  0.8939316057842361  0.018502522976246105  1.0000
  H   H183      1.0  0.2378307484943674  0.8367439194033576  0.05817052666803235  1.0000
  H   H184      1.0  0.276461660661746  0.8300150024902596  0.006973918569212589  1.0000
  C   C277      1.0  0.4530869951829385  0.9195644732080528  0.9480985979110194  1.0000
  C   C278      1.0  0.4486190988792143  0.8978477817991543  0.9500089282394498  1.0000
  C   C279      1.0  0.4843190679584216  0.8845578799784715  0.9496772127301836  1.0000
  C   C280      1.0  0.5245452510122389  0.8929576785635412  0.9469043040327376  1.0000
  C   C281      1.0  0.5291397358783131  0.9146913503844668  0.9454779079188956  1.0000
  C   C282      1.0  0.49338315449602577  0.9279962790928071  0.946373884982983  1.0000
  H   H185      1.0  0.41767566223324837  0.8912795730909803  0.9518306717464381  1.0000
  H   H186      1.0  0.48073213628605327  0.8677406852281079  0.9507906484071468  1.0000
  H   H187      1.0  0.5602000302171465  0.9212693510612967  0.9434936164970963  1.0000
  H   H188      1.0  0.49695066490902157  0.9448116527241212  0.9449396228111475  1.0000
  C   C283      1.0  0.8405017301312349  0.1016122412862539  0.9569654285492322  1.0000
  C   C284      1.0  0.8645254537546283  0.08390996283342145  0.9656930923473228  1.0000
  C   C285      1.0  0.8786954854861468  0.08158795993125745  0.9973385258416417  1.0000
  C   C286      1.0  0.8692043043257163  0.09707078061272068  0.020178254440908372  1.0000
  C   C287      1.0  0.8449863007047583  0.11471227305279726  0.011550740597983333  1.0000
  C   C288      1.0  0.8306297243618296  0.11695836691489636  0.9799384279334853  1.0000
  H   H189      1.0  0.8719883143327524  0.07198981004434768  0.9481646942970253  1.0000
  H   H190      1.0  0.8975414554365684  0.06796156049711577  0.004047558352250347  1.0000
  H   H191      1.0  0.8374021623892538  0.12666488161446482  0.029188242045902202  1.0000
  H   H192      1.0  0.811830521756209  0.13062443174079652  0.9732627262891266  1.0000
  C   C289      1.0  0.8071585600240501  0.9899824945411939  0.9010395901425378  1.0000
  C   C290      1.0  0.7990259685286955  0.972948726349956  0.9214197355808579  1.0000
  C   C291      1.0  0.7581467774285545  0.9650775458878187  0.923880529743065  1.0000
  C   C292      1.0  0.7253272112956389  0.9746163589064365  0.9065738510195981  1.0000
  C   C293      1.0  0.7337434753205159  0.9912841877026858  0.8856626987206646  1.0000
  C   C294      1.0  0.7747889770028815  0.998624827025214  0.882368244772621  1.0000
  H   H193      1.0  0.8240590638492955  0.9660655286252112  0.9356928927855129  1.0000
  H   H194      1.0  0.7517179889355153  0.952059679311808  0.939909702295742  1.0000
  H   H195      1.0  0.7085626695487155  0.9984067018680817  0.8717871052632402  1.0000
  H   H196      1.0  0.7812049977146914  0.011018068055628438  0.8653614005836849  1.0000
  C   C295      1.0  0.043509858298497635  0.09131232113844168  0.8891985263116708  1.0000
  C   C296      1.0  0.06282409738675841  0.08196227222771912  0.8622433346840729  1.0000
  C   C297      1.0  0.03833159684167442  0.07550376408621373  0.8364603080259821  1.0000
  C   C298      1.0  0.9946195998181027  0.07853134292038533  0.8376041517160606  1.0000
  C   C299      1.0  0.9757787269058721  0.08922863397727232  0.8634745065182278  1.0000
  C   C300      1.0  0.00012837874880622307  0.0954724335466044  0.8893971140497894  1.0000
  H   H197      1.0  0.0964030002986398  0.07898387199170398  0.8616384546863497  1.0000
  H   H198      1.0  0.0530664497194695  0.06747716854602515  0.8162459861388642  1.0000
  H   H199      1.0  0.9422409337131623  0.09249385492972895  0.8636830514088926  1.0000
  H   H200      1.0  0.9850589753340617  0.10311161757725107  0.9097321839243503  1.0000
  C   C301      1.0  0.2914737567562484  0.12800309666655618  0.9544584211732442  1.0000
  C   C302      1.0  0.28805048395110555  0.14367970651687845  0.9778000827196988  1.0000
  C   C303      1.0  0.306273925676746  0.1405838723269744  0.008107321496202191  1.0000
  C   C304      1.0  0.3290693276764772  0.12208773132647177  0.014743151505728136  1.0000
  C   C305      1.0  0.33383187883705023  0.10675940941780815  0.9909420312459929  1.0000
  C   C306      1.0  0.3141694190918168  0.10947792577300941  0.9611219455302281  1.0000
  H   H201      1.0  0.27045126236469563  0.15800601650046228  0.972738703916655  1.0000
  H   H202      1.0  0.30305236832401783  0.15263820038717146  0.02618378548741096  1.0000
  H   H203      1.0  0.35187633577604294  0.09254569718039818  0.9957841325929977  1.0000
  H   H204      1.0  0.3170533686066968  0.09735765132005847  0.9430997989695835  1.0000
  C   C307      1.0  0.22604173829058571  0.009503823292740687  0.9525516479738463  1.0000
  C   C308      1.0  0.18668566092534583  0.00513838426083546  0.9397946377984151  1.0000
  C   C309      1.0  0.1801810773619236  0.9858503945813231  0.9249531299480984  1.0000
  C   C310      1.0  0.21323803526689608  0.9710731994834972  0.9224061896681531  1.0000
  C   C311      1.0  0.25231078056036255  0.9752197694639596  0.9358407909266845  1.0000
  C   C312      1.0  0.25860095150906764  0.9943953024520105  0.9511568275850979  1.0000
  H   H205      1.0  0.16125470724560687  0.016617197577600162  0.941449459166893  1.0000
  H   H206      1.0  0.1498924688071414  0.9825582471312746  0.9147606820305825  1.0000
  H   H207      1.0  0.27792153365324146  0.9638336219455045  0.9339613646643437  1.0000
  H   H208      1.0  0.28906861787297367  0.9977624335199428  0.961016762121969  1.0000
  C   C313      1.0  0.7881459208405629  0.8662964503899229  0.5874498884025104  1.0000
  C   C314      1.0  0.7559598645642361  0.856728736590809  0.5705736354913274  1.0000
  C   C315      1.0  0.7627517777471474  0.8500795971726061  0.5387999300970677  1.0000
  C   C316      1.0  0.8022107793273108  0.8523777738793045  0.5240820961376623  1.0000
  C   C317      1.0  0.834691105883567  0.8616410494191971  0.5410955179778872  1.0000
  C   C318      1.0  0.827477076750884  0.8689064553617054  0.5725924838291733  1.0000
  H   H209      1.0  0.7254928039619893  0.8546750333629578  0.5820105152546406  1.0000
  H   H210      1.0  0.7375414805018379  0.8429363951438662  0.5259325926527871  1.0000
  H   H211      1.0  0.8652879333625236  0.8634549692472626  0.5297871461639614  1.0000
  H   H212      1.0  0.8525360170933092  0.8761445087499694  0.5855531187169772  1.0000
  C   C319      1.0  0.7368192639250394  0.9392394789378826  0.7457760039583001  1.0000
  C   C320      1.0  0.7275525582563405  0.9197482218770422  0.7328388254786328  1.0000
  C   C321      1.0  0.7068078933702032  0.9048050131165267  0.751714518890355  1.0000
  C   C322      1.0  0.69565641877803  0.9092352964595838  0.7836713025832558  1.0000
  C   C323      1.0  0.7033449706498079  0.9290695617554298  0.7962548669053606  1.0000
  C   C324      1.0  0.7235608690283866  0.9441646537669005  0.7771695433560084  1.0000
  H   H213      1.0  0.7367701309733066  0.9160219208308358  0.7083457393363501  1.0000
  H   H214      1.0  0.7006794099314902  0.8895236019780687  0.741853349453895  1.0000
  H   H215      1.0  0.6943446532363534  0.9326538565707793  0.8208472734913536  1.0000
  H   H216      1.0  0.730517109716353  0.9592634204365381  0.7872759442552044  1.0000
  C   C325      1.0  0.29329147215507934  0.896462992149502  0.5488677692834633  1.0000
  C   C326      1.0  0.25331365795849253  0.8957697756519639  0.5353802104571047  1.0000
  C   C327      1.0  0.24431866049509332  0.8803850033750231  0.5127708317122671  1.0000
  C   C328      1.0  0.27520744660894253  0.8655853519183327  0.5035957193896134  1.0000
  C   C329      1.0  0.31567273010969576  0.8666064574182877  0.5162674500734069  1.0000
  C   C330      1.0  0.32473028911432794  0.8821004072163479  0.5388544274534871  1.0000
  H   H217      1.0  0.22927707453115212  0.9070832376286027  0.5422708031846046  1.0000
  H   H218      1.0  0.21322692745693014  0.8798807693597734  0.5024707301770481  1.0000
  H   H219      1.0  0.33957845250221047  0.8551270426182971  0.5094630686891536  1.0000
  H   H220      1.0  0.355727355028542  0.8825717966285473  0.5493135464699398  1.0000
  C   C331      1.0  0.2676917035954944  0.9398009205361989  0.7413793136600101  1.0000
  C   C332      1.0  0.2984949977198649  0.926256242829181  0.7281878616413074  1.0000
  C   C333      1.0  0.32295460230034523  0.9133348595430621  0.7485584789753157  1.0000
  C   C334      1.0  0.3160036274887268  0.9137123324675268  0.7819586137601048  1.0000
  C   C335      1.0  0.28416939826930704  0.9267311277003304  0.794828170175181  1.0000
  C   C336      1.0  0.2603707774307911  0.939855551254076  0.7746035998845632  1.0000
  H   H221      1.0  0.30409037006884543  0.9260575328759603  0.702460947332648  1.0000
  H   H222      1.0  0.3472866135454396  0.9031239256762787  0.7384894229060353  1.0000
  H   H223      1.0  0.27772663524211405  0.9266770623972577  0.8204032897146213  1.0000
  H   H224      1.0  0.23567029556732005  0.9498049008895841  0.784642502945395  1.0000
  C   C337      1.0  0.06628907733665579  0.8988401312636052  0.6533429110420623  1.0000
  C   C338      1.0  0.027920474601404566  0.8904043917403691  0.6443472891753076  1.0000
  C   C339      1.0  0.9917614762926167  0.8936326664467595  0.6635280068517699  1.0000
  C   C340      1.0  0.9940414925809113  0.9049136566163585  0.692151493411175  1.0000
  C   C341      1.0  0.03258750028845858  0.913122261464562  0.7014187403412762  1.0000
  C   C342      1.0  0.06860733552903397  0.9103511949615735  0.6817736253533048  1.0000
  H   H225      1.0  0.02605605668328926  0.8814127747050974  0.6224459595166776  1.0000
  H   H226      1.0  0.9623381982683445  0.8868994830246608  0.6565861306573486  1.0000
  H   H227      1.0  0.03448979842573929  0.9218156267171314  0.7236040458463179  1.0000
  H   H228      1.0  0.09827693242822261  0.9167401943983581  0.6889956917475559  1.0000
  C   C343      1.0  0.4226117611142621  0.12867978711575923  0.5457103029358684  1.0000
  C   C344      1.0  0.4298257530577981  0.14751378546636995  0.5293968660872738  1.0000
  C   C345      1.0  0.432274431275173  0.14797193250011942  0.49572742295421696  1.0000
  C   C346      1.0  0.42848294475149273  0.12953007320109808  0.4781577008599118  1.0000
  C   C347      1.0  0.4235769498085979  0.11046083575984852  0.49452187778879025  1.0000
  C   C348      1.0  0.4202676848145144  0.1100490478936865  0.5282792182113671  1.0000
  H   H229      1.0  0.4324403218259929  0.16192259499584538  0.5427668639852988  1.0000
  H   H230      1.0  0.43751150624215523  0.16262731850471224  0.48349662243048824  1.0000
  H   H231      1.0  0.4210640595630365  0.09609566889606658  0.4810422468740878  1.0000
  H   H232      1.0  0.41564555919164514  0.09534209804014625  0.5406066814407686  1.0000
  C   C349      1.0  0.31187244933790004  0.08023623660851364  0.7510694362210946  1.0000
  C   C350      1.0  0.2751287267374719  0.07369895989726039  0.736331156269571  1.0000
  C   C351      1.0  0.2416063991758081  0.06626741400214442  0.7552415519181996  1.0000
  C   C352      1.0  0.24456624993488554  0.06575161849471511  0.7888391431969921  1.0000
  C   C353      1.0  0.28174107751054617  0.07178402165527742  0.8034486802020375  1.0000
  C   C354      1.0  0.3155361550864007  0.07875528453619629  0.7845228359745022  1.0000
  H   H233      1.0  0.2720510639405513  0.07490790516758006  0.7104842606189192  1.0000
  H   H234      1.0  0.21290186298650438  0.061523681503391936  0.7438524003742503  1.0000
  H   H235      1.0  0.28462542057899953  0.07099458591683683  0.8292659071710653  1.0000
  H   H236      1.0  0.34445180713250395  0.08328985993848748  0.7957812521321173  1.0000
  C   C355      1.0  0.21500019496914427  0.053524914899834686  0.5894127096713608  1.0000
  C   C356      1.0  0.23390484670459077  0.035602233548661655  0.6031063495381775  1.0000
  C   C357      1.0  0.21350351929275962  0.016267290645796795  0.6022106223533068  1.0000
  C   C358      1.0  0.17439881420113681  0.01472440402579167  0.5872653108993008  1.0000
  C   C359      1.0  0.15569850550327854  0.03264837382299057  0.5735037326748686  1.0000
  C   C360      1.0  0.17585534872328684  0.05197030120350932  0.5746452743303773  1.0000
  H   H237      1.0  0.26420674012426776  0.03661175561224761  0.6142893170083646  1.0000
  H   H238      1.0  0.22809283132848546  0.0026362765709939673  0.6130158261387149  1.0000
  H   H239      1.0  0.12553298566638452  0.031615363661434026  0.5619095230019197  1.0000
  H   H240      1.0  0.16108176745478203  0.06573989651970624  0.5640070857367693  1.0000
  C   C361      1.0  0.5595766442235535  0.038582659616394954  0.6491205106328993  1.0000
  C   C362      1.0  0.5252061877705931  0.04313677257841575  0.6695110453186894  1.0000
  C   C363      1.0  0.4840598950032602  0.039750040058062375  0.6592389760561201  1.0000
  C   C364      1.0  0.4772527274819563  0.03128330712604166  0.6288490527182294  1.0000
  C   C365      1.0  0.5116541060945747  0.026406942882216233  0.6086106589802738  1.0000
  C   C366      1.0  0.5528109819436987  0.030328641650985366  0.6185671800014575  1.0000
  H   H241      1.0  0.5303452120707701  0.049567282569761506  0.6931392575395299  1.0000
  H   H242      1.0  0.457627125698174  0.0434647995687194  0.6750304898663021  1.0000
  H   H243      1.0  0.5064377423900466  0.019822071276243136  0.5850976162524584  1.0000
  H   H244      1.0  0.5792900240880171  0.02650921023357755  0.6029031606459437  1.0000
  C   C367      1.0  0.6534017534541865  0.11551283993695582  0.5090696653794029  1.0000
  C   C368      1.0  0.6615765529907504  0.09751668342085296  0.49084328770867625  1.0000
  C   C369      1.0  0.6656063895258888  0.09913960710880176  0.4572626085335614  1.0000
  C   C370      1.0  0.6628375487758539  0.11879448048995851  0.4421552589881297  1.0000
  C   C371      1.0  0.6547233028727047  0.13672533842099432  0.4605353176882476  1.0000
  C   C372      1.0  0.6491966502407628  0.13502945306072833  0.49387765705127135  1.0000
  H   H245      1.0  0.6648856350489091  0.08238653176045663  0.5025800743206148  1.0000
  H   H246      1.0  0.6719120305944764  0.08522022924687844  0.4430864997333492  1.0000
  H   H247      1.0  0.6527062502717553  0.15195380743386022  0.4493003686138068  1.0000
  H   H248      1.0  0.643024172471761  0.14896375654357108  0.5080548036619713  1.0000
  C   C373      1.0  0.7855716768259093  0.07496926642013912  0.6878198441138808  1.0000
  C   C374      1.0  0.7456640757777437  0.06749375161919513  0.695617769454361  1.0000
  C   C375      1.0  0.7353168885841036  0.06239281314918621  0.7274142953291566  1.0000
  C   C376      1.0  0.765157724082994  0.06414513405317335  0.7515172955336766  1.0000
  C   C377      1.0  0.8049699483186995  0.07198134659819444  0.7440316739545891  1.0000
  C   C378      1.0  0.8150695123952182  0.0775817229338498  0.7121251759069311  1.0000
  H   H249      1.0  0.7226442279774136  0.06545982513262794  0.677198627777445  1.0000
  H   H250      1.0  0.7041720158814999  0.05699435424932808  0.7332887557422745  1.0000
  H   H251      1.0  0.8281622762253227  0.07343861413042196  0.7626343329575965  1.0000
  H   H252      1.0  0.8459723314580494  0.08342115741997169  0.7062078083546472  1.0000
  C   C379      1.0  0.7763896911908515  0.0005155058668526724  0.5486575862087251  1.0000
  C   C380      1.0  0.8112857847403283  0.9954935012682977  0.529064513323102  1.0000
  C   C381      1.0  0.8452741333639913  0.9837927035534715  0.5415643465852837  1.0000
  C   C382      1.0  0.8438423139351223  0.97658413804279  0.5734004383355772  1.0000
  C   C383      1.0  0.8086191594332861  0.9812590294873252  0.5928171917032358  1.0000
  C   C384      1.0  0.7750351119843653  0.9933321625714668  0.5805315286804749  1.0000
  H   H253      1.0  0.8123051703818388  0.0009672645599301255  0.5043589990926822  1.0000
  H   H254      1.0  0.8723786766135525  0.9801282419634721  0.5264153195804465  1.0000
  H   H255      1.0  0.807390020513533  0.9758009009654472  0.6174190335495687  1.0000
  H   H256      1.0  0.7476294972544054  0.9966636530483228  0.5954509146654886  1.0000
  N   N1        1.0  0.2549621021787787  0.35224152295397493  0.3380141858852495  1.0000
  C   C385      1.0  0.30144059660569456  0.3504448888238521  0.33672213776334864  1.0000
  C   C386      1.0  0.23877645400978653  0.3552904355975153  0.30507308562106356  1.0000
  C   C387      1.0  0.2420361416706558  0.37031306970012096  0.3581992258194477  1.0000
  C   C388      1.0  0.2375739840290314  0.3328600393945974  0.352017248144463  1.0000
  H   H257      1.0  0.31483294552308094  0.34723785907069504  0.36096726437220644  1.0000
  H   H258      1.0  0.3157930859190077  0.3650367985123971  0.32729115444411927  1.0000
  H   H259      1.0  0.31216304619499513  0.33744556243486656  0.32072338893731356  1.0000
  H   H260      1.0  0.2512117518048882  0.36978255911513924  0.2937203522990986  1.0000
  H   H261      1.0  0.248218318708318  0.34189725473686494  0.2892152654555082  1.0000
  H   H262      1.0  0.2037546371523895  0.3565513274898835  0.30512290819977933  1.0000
  H   H263      1.0  0.2071069394359728  0.3719313444573479  0.3601761118278306  1.0000
  H   H264      1.0  0.2543700121688548  0.3852627201870754  0.34837803549340024  1.0000
  H   H265      1.0  0.25381188030786683  0.36844602079374783  0.38317581874103684  1.0000
  H   H266      1.0  0.20277155563991367  0.33419827230783855  0.3553690867936941  1.0000
  H   H267      1.0  0.25112914950391185  0.32933991254112716  0.37610277132631675  1.0000
  H   H268      1.0  0.24431282672772303  0.31914292662253196  0.3362874065760038  1.0000
  N   N2        1.0  0.3523061541157436  0.8919732758056603  0.03137639056175656  1.0000
  C   C389      1.0  0.37271431085129547  0.9114822748618907  0.020709907930860805  1.0000
  C   C390      1.0  0.3729238885927677  0.8838045990811659  0.06070957419052325  1.0000
  C   C391      1.0  0.356244941561571  0.8761575330677484  0.005621753186676681  1.0000
  C   C392      1.0  0.3072722867229782  0.896384125039535  0.0384951479745641  1.0000
  H   H269      1.0  0.4065604111509272  0.9087198078050859  0.014410930904842578  1.0000
  H   H270      1.0  0.37085300127525045  0.9237399078890938  0.039610688395112614  1.0000
  H   H271      1.0  0.3574477536429227  0.9182006971392209  0.9988772317157979  1.0000
  H   H272      1.0  0.35830073173219285  0.8689814907299677  0.06913322424066615  1.0000
  H   H273      1.0  0.4070340661083792  0.8804271543056705  0.05629028386174917  1.0000
  H   H274      1.0  0.37011086502838764  0.8952405697208335  0.08078286064256979  1.0000
  H   H275      1.0  0.3897422382047598  0.8720466933130313  5.619779141552428e-05  1.0000
  H   H276      1.0  0.3417236252238395  0.8819296621240594  0.9829238522674064  1.0000
  H   H277      1.0  0.34012028343574874  0.8614077136760568  0.012370893964702478  1.0000
  H   H278      1.0  0.29032356984605195  0.9020198667038745  0.016717207242121335  1.0000
  H   H279      1.0  0.30289995924676705  0.908553264283522  0.057361389826015685  1.0000
  H   H280      1.0  0.29114509424420115  0.8820819502018411  0.0472339418142802  1.0000
  N   N3        1.0  0.8066026517386389  0.7426779789348272  0.25188855976685154  1.0000
  C   C393      1.0  0.8437613380308799  0.7396896836192823  0.2725985033692976  1.0000
  C   C394      1.0  0.768136522053421  0.7444122036552121  0.2722198002863272  1.0000
  C   C395      1.0  0.8034497111464989  0.7245677758514448  0.2300933614501284  1.0000
  C   C396      1.0  0.8110622922459821  0.7620858640152041  0.23266928846436874  1.0000
  H   H281      1.0  0.8733199339644827  0.7383345757325993  0.2580140949721984  1.0000
  H   H282      1.0  0.8413190530447555  0.7251714584803163  0.28751512741342  1.0000
  H   H283      1.0  0.8469626561178717  0.7530227632929075  0.2894572763172591  1.0000
  H   H284      1.0  0.7395086697162871  0.7467513039595237  0.2573070309757949  1.0000
  H   H285      1.0  0.7638153377469449  0.7300669292108304  0.2872098117442717  1.0000
  H   H286      1.0  0.7694046888268786  0.7580097804389704  0.28882147050403334  1.0000
  H   H287      1.0  0.8300903907849636  0.7238424282232278  0.2124568324433492  1.0000
  H   H288      1.0  0.7738138986654122  0.7253071985344647  0.21615500879426705  1.0000
  H   H289      1.0  0.8036934612231051  0.7095159228433567  0.24366941141088444  1.0000
  H   H290      1.0  0.7829535719989469  0.765176233285339  0.21753526838081716  1.0000
  H   H291      1.0  0.8389972630719745  0.7612582075944854  0.21625075235985877  1.0000
  H   H292      1.0  0.8142783205040937  0.776053096314255  0.2482917275674969  1.0000
  N   N4        1.0  0.14272366283526075  0.5467369138793918  0.7723216055947695  1.0000
  C   C397      1.0  0.1730065976116484  0.5332936751160192  0.7541628411310091  1.0000
  C   C398      1.0  0.15094735289355218  0.5690187128651244  0.7652481470286252  1.0000
  C   C399      1.0  0.14768381161031374  0.5427301059623308  0.807158672408159  1.0000
  C   C400      1.0  0.0993929538407955  0.5419321293705591  0.7626074576485543  1.0000
  H   H293      1.0  0.20605876748260654  0.5362729912405344  0.7611096364806159  1.0000
  H   H294      1.0  0.17077208721895426  0.5362199328121803  0.7278722442298773  1.0000
  H   H295      1.0  0.16729647851768256  0.5163567542655524  0.7583259971167904  1.0000
  H   H296      1.0  0.18352102488881375  0.5731883956692132  0.7721120370175898  1.0000
  H   H297      1.0  0.1473749618928386  0.5725962643110208  0.7391192758404638  1.0000
  H   H298      1.0  0.12871609813123064  0.5796140808642184  0.778588581171349  1.0000
  H   H299      1.0  0.1254177454628993  0.5526117833781417  0.8217121928451965  1.0000
  H   H300      1.0  0.18023621696832157  0.5462836925208735  0.8149909364241165  1.0000
  H   H301      1.0  0.14203024612475715  0.5260262896973853  0.8133491094232967  1.0000
  H   H302      1.0  0.07560191727724405  0.5518831698407748  0.7756026257449459  1.0000
  H   H303      1.0  0.09202275171173464  0.5252260621273923  0.7673587648530201  1.0000
  H   H304      1.0  0.09497934861273707  0.544855516982793  0.7363854704367879  1.0000
  N   N5        1.0  0.27978188795735903  0.27121745368228406  0.06517518469353022  1.0000
  C   C401      1.0  0.30341518644867466  0.2709369354088573  0.03428661336538785  1.0000
  C   C402      1.0  0.25572652933678797  0.25173039286889026  0.06852000156959491  1.0000
  C   C403      1.0  0.2504684157380013  0.28952564011718795  0.0659268954320797  1.0000
  C   C404      1.0  0.3096451438199908  0.27263112011784274  0.0919972061322517  1.0000
  H   H305      1.0  0.28188472228372324  0.2706694877040288  0.013385800264884784  1.0000
  H   H306      1.0  0.3250545851574258  0.25701660500038603  0.03260223417288177  1.0000
  H   H307      1.0  0.3229937109978798  0.28507356555594  0.031438347328939686  1.0000
  H   H308      1.0  0.2384319684836461  0.2510217041510688  0.09199870949439513  1.0000
  H   H309      1.0  0.23227416126586464  0.25027241985918  0.049066851643666226  1.0000
  H   H310      1.0  0.27686022790843834  0.23758434090870373  0.06748342095819897  1.0000
  H   H311      1.0  0.22772117279554902  0.2891338425058188  0.04580781706863712  1.0000
  H   H312      1.0  0.26768325614296  0.3044729775471103  0.0635307840460898  1.0000
  H   H313      1.0  0.2321438807343937  0.29018056364484873  0.08893025406430703  1.0000
  H   H314      1.0  0.3331199940782412  0.2594641062965005  0.09144334284367808  1.0000
  H   H315      1.0  0.29313330342785104  0.27220073663463135  0.11577168534425887  1.0000
  H   H316      1.0  0.3275153337487092  0.28739534540262296  0.09090773382994792  1.0000
  N   N6        1.0  0.512397274854049  0.28344088368551534  0.3425221680572986  1.0000
  C   C405      1.0  0.47559046512231984  0.2789183907937263  0.3634250918587531  1.0000
  C   C406      1.0  0.5099915559391367  0.27121099091781137  0.3125168050104918  1.0000
  C   C407      1.0  0.5514927995661211  0.2776238342803506  0.3596196231880551  1.0000
  C   C408      1.0  0.5125996222262935  0.3060304898576853  0.33448195728853486  1.0000
  H   H317      1.0  0.47670961200004347  0.2625386478468793  0.37264140879705515  1.0000
  H   H318      1.0  0.44561277140811684  0.2807998608528649  0.3502044642820474  1.0000
  H   H319      1.0  0.4736376846957398  0.289447282250159  0.3846958042250957  1.0000
  H   H320      1.0  0.5381401101892245  0.273581688688498  0.29675294384331463  1.0000
  H   H321      1.0  0.5077443570079374  0.2541514244187868  0.31770049240014697  1.0000
  H   H322      1.0  0.4818723762075387  0.2759894700206818  0.29825382574891846  1.0000
  H   H323      1.0  0.579967241954236  0.28089341148433783  0.3446623132952282  1.0000
  H   H324      1.0  0.5525872956572936  0.2606404863615222  0.36575199208677445  1.0000
  H   H325      1.0  0.553987223616727  0.28637942965766433  0.38256751799757455  1.0000
  H   H326      1.0  0.5402131994665764  0.30999205369152133  0.3189823144379426  1.0000
  H   H327      1.0  0.5134432572654357  0.31586268361002995  0.35647038023828936  1.0000
  H   H328      1.0  0.48407751514450814  0.31084396384464974  0.3208347478967158  1.0000
  N   N7        1.0  0.8137827234512359  0.26734653982114687  0.35753763026816365  1.0000
  C   C409      1.0  0.8400866968965452  0.27988819247485297  0.3789122442295725  1.0000
  C   C410      1.0  0.8099260581371758  0.2780403915806431  0.3260132358136152  1.0000
  C   C411      1.0  0.7714791823884871  0.26506732781859393  0.3722428447961412  1.0000
  C   C412      1.0  0.8337195931319024  0.24641058139895744  0.3530014122681986  1.0000
  H   H329      1.0  0.8433531769221905  0.2724320034569869  0.40305935733626896  1.0000
  H   H330      1.0  0.8263635239221859  0.2959017641292179  0.38254667272934934  1.0000
  H   H331      1.0  0.8724223157218225  0.2817245902188058  0.36873050410891767  1.0000
  H   H332      1.0  0.7903850369159103  0.2690490673467268  0.30915850178742377  1.0000
  H   H333      1.0  0.794988932004049  0.2939096077062271  0.32853432610368055  1.0000
  H   H334      1.0  0.8413328979448567  0.2801711666230008  0.31437846884703907  1.0000
  H   H335      1.0  0.7507877387974496  0.2555900718173787  0.35686399205545527  1.0000
  H   H336      1.0  0.7556110044231199  0.28059612304241505  0.3760437819236275  1.0000
  H   H337      1.0  0.773263599205571  0.2570914461060612  0.39608741869861563  1.0000
  H   H338      1.0  0.8146441027878919  0.2363785954714518  0.33724642265959137  1.0000
  H   H339      1.0  0.8372883306205477  0.2379945038308432  0.3763510014399618  1.0000
  H   H340      1.0  0.8657393823549052  0.24756875755342286  0.3419884982466561  1.0000
  N   N8        1.0  0.797501354531707  0.6613749072432608  0.5475738587427972  1.0000
  C   C413      1.0  0.8361036965672997  0.6739070954583577  0.5474266342593013  1.0000
  C   C414      1.0  0.7891211918531902  0.6542849374933324  0.5145093649773067  1.0000
  C   C415      1.0  0.7615244757758679  0.6743903261504882  0.5593718963703258  1.0000
  C   C416      1.0  0.8032857575970841  0.6429488402967356  0.5689484005634362  1.0000
  H   H341      1.0  0.8325634815261005  0.6880885618135236  0.5318092702578953  1.0000
  H   H342      1.0  0.8637784608325475  0.6646312006572439  0.5382588597233622  1.0000
  H   H343      1.0  0.843844232269028  0.6792624206026027  0.5720367856655929  1.0000
  H   H344      1.0  0.8159536487053832  0.6447052934353519  0.504671814483926  1.0000
  H   H345      1.0  0.7605954570095622  0.6445121030892564  0.5136891136193175  1.0000
  H   H346      1.0  0.784095637541882  0.6678193359160209  0.4978398186827255  1.0000
  H   H347      1.0  0.7317891733630366  0.6654829494288336  0.5595943036201687  1.0000
  H   H348      1.0  0.7563839806898687  0.6884692757332681  0.5437799589586727  1.0000
  H   H349      1.0  0.7668326461418132  0.6800383331673217  0.5842424982867519  1.0000
  H   H350      1.0  0.7746860649623604  0.6331933746388682  0.5699512584979199  1.0000
  H   H351      1.0  0.8107282803480795  0.6476361073699346  0.5939624589950505  1.0000
  H   H352      1.0  0.8297892972417701  0.6326790472147219  0.5604624604858398  1.0000
  N   N9        1.0  0.3789886766772419  0.409037973467994  0.05499847702402327  1.0000
  C   C417      1.0  0.3336102188785195  0.4143538745872764  0.05836722081300483  1.0000
  C   C418      1.0  0.40248024245923764  0.4281800160377976  0.04698529761198711  1.0000
  C   C419      1.0  0.3853252880126256  0.39352038480159723  0.02899926742143233  1.0000
  C   C420      1.0  0.39450073782444267  0.4001019481996878  0.08565734176545181  1.0000
  H   H353      1.0  0.3149111734959436  0.4002331882315233  0.06418047031250262  1.0000
  H   H354      1.0  0.32085548249531626  0.4211988833246471  0.035743540818707675  1.0000
  H   H355      1.0  0.3275296185463266  0.4260244643447192  0.07775576311704202  1.0000
  H   H356      1.0  0.4369859055636262  0.42493856365153276  0.045406244228041404  1.0000
  H   H357      1.0  0.3929315795591551  0.4347968554308538  0.023321744837725644  1.0000
  H   H358      1.0  0.39674819727709393  0.44071472670023293  0.06514716093179218  1.0000
  H   H359      1.0  0.3680379697454094  0.37884529096575253  0.034194665286154224  1.0000
  H   H360      1.0  0.4191751725600812  0.38917080723777303  0.025610202621521694  1.0000
  H   H361      1.0  0.37386868872846624  0.39979602075990006  0.00551455539483614  1.0000
  H   H362      1.0  0.390081234509886  0.41137403356545743  0.10581205571541918  1.0000
  H   H363      1.0  0.4285393844046433  0.3957299667864125  0.08401823071932557  1.0000
  H   H364      1.0  0.3773881045371226  0.38569210252751324  0.09252505167107183  1.0000
  N   N10       1.0  0.8720531871763909  0.8652768895481548  0.26928499051054167  1.0000
  C   C421      1.0  0.8522311090819814  0.8789731475439276  0.24469059621001413  1.0000
  C   C422      1.0  0.8643746055255398  0.84310816757512  0.2615572159932697  1.0000
  C   C423      1.0  0.8537825330860479  0.8702311975799222  0.3013420493973125  1.0000
  C   C424      1.0  0.9179095859333639  0.8688078118776558  0.26947888539055703  1.0000
  H   H365      1.0  0.8566988224423143  0.8958414890224295  0.24996119290527188  1.0000
  H   H366      1.0  0.8177345913040754  0.876413311995091  0.2433499840335941  1.0000
  H   H367      1.0  0.8660078248395635  0.8759012307783584  0.22030543763637858  1.0000
  H   H368      1.0  0.8301173055391826  0.839849734716469  0.26134376780475793  1.0000
  H   H369      1.0  0.8773341713966799  0.8389370099991965  0.2373468223160706  1.0000
  H   H370      1.0  0.8792284247392145  0.832285492440064  0.27936305877478085  1.0000
  H   H371      1.0  0.868009153458958  0.8602231120146692  0.3205183972997189  1.0000
  H   H372      1.0  0.8192673581441232  0.867665244300601  0.30218539953844364  1.0000
  H   H373      1.0  0.8585361476981286  0.8868987820172152  0.30783375043502353  1.0000
  H   H374      1.0  0.9340288644544216  0.8586828866616271  0.2876246718131889  1.0000
  H   H375      1.0  0.9248573480647451  0.8854099818660467  0.2749935144355478  1.0000
  H   H376      1.0  0.9327070063490508  0.8652075681408479  0.24563423460339615  1.0000
  N   N11       1.0  0.8348812113885004  0.9084875427816392  0.8097303227535836  1.0000
  C   C425      1.0  0.8734737339286246  0.908404710231908  0.7893758397315256  1.0000
  C   C426      1.0  0.8447807271867933  0.8999908254105475  0.8420199111961769  1.0000
  C   C427      1.0  0.8029173596420882  0.8953542718499693  0.794689499247511  1.0000
  C   C428      1.0  0.8181880963480599  0.9302031217804185  0.8128124686980116  1.0000
  H   H377      1.0  0.8671314714332196  0.9148487353187339  0.7648814761196466  1.0000
  H   H378      1.0  0.886779983693307  0.8922601346275597  0.7860912082064326  1.0000
  H   H379      1.0  0.8984746299530402  0.9180551250208336  0.7999802625139152  1.0000
  H   H380      1.0  0.8162082904232448  0.8997951071978435  0.8579047328762277  1.0000
  H   H381      1.0  0.8573741812192389  0.8836008353170595  0.8406324197434828  1.0000
  H   H382      1.0  0.8686353578778955  0.9095535218047166  0.8542421688281318  1.0000
  H   H383      1.0  0.7734608824733412  0.8948736406678779  0.8095356836046592  1.0000
  H   H384      1.0  0.8144675614125084  0.8788975255860253  0.7916026001346392  1.0000
  H   H385      1.0  0.794251634020895  0.9014554392953413  0.7704717673369743  1.0000
  H   H386      1.0  0.7884505349900213  0.9307953687219821  0.8273521806509339  1.0000
  H   H387      1.0  0.8111664407046978  0.937228765174557  0.7888105034083526  1.0000
  H   H388      1.0  0.8410225034296106  0.9404985048737516  0.8247599933745413  1.0000
  N   N12       1.0  0.47213326325485827  0.9015810986253265  0.8425716786541101  1.0000
  C   C429      1.0  0.4453830124219703  0.9189779051586674  0.8552400691200823  1.0000
  C   C430      1.0  0.5156632729194024  0.9037164769366968  0.8541126426219808  1.0000
  C   C431      1.0  0.4720728478885833  0.9022162976861058  0.8070045199803798  1.0000
  C   C432      1.0  0.45528874657784957  0.8813865658543715  0.8539266865817  1.0000
  H   H389      1.0  0.44413837168903975  0.9188048946258092  0.8819912033305164  1.0000
  H   H390      1.0  0.4123984710025219  0.9179403943520472  0.8467352170955164  1.0000
  H   H391      1.0  0.45738523211362847  0.9345010268243107  0.8475898201287372  1.0000
  H   H392      1.0  0.5167770521558478  0.903139565827905  0.8808382855774927  1.0000
  H   H393      1.0  0.5368678102567295  0.8908850638582854  0.844997271892722  1.0000
  H   H394      1.0  0.5293608126473418  0.9188600161243384  0.8463019701183314  1.0000
  H   H395      1.0  0.4919162907769971  0.8892871972967084  0.7966136966957692  1.0000
  H   H396      1.0  0.48440246894764133  0.9172805968110915  0.7975930379151658  1.0000
  H   H397      1.0  0.4395957244090977  0.9005732333366135  0.7975795602615718  1.0000
  H   H398      1.0  0.4748735603397781  0.8678999889207183  0.845071061047584  1.0000
  H   H399      1.0  0.42254912111540477  0.879203629973685  0.8453597491988857  1.0000
  H   H400      1.0  0.45449781227561187  0.8804616790875717  0.8807056186909578  1.0000
  N   N13       1.0  0.668281455147645  0.003703720089007545  0.7322900483428118  1.0000
  C   C433      1.0  0.6862273358573603  0.007866682355031074  0.6999163047395823  1.0000
  C   C434      1.0  0.7014572476404447  0.005691424091188946  0.7566454196325907  1.0000
  C   C435      1.0  0.6517444774774853  0.9822360000960225  0.7334171619037338  1.0000
  C   C436      1.0  0.6336692464850148  0.01896893015099277  0.7391252210610924  1.0000
  H   H401      1.0  0.6620602696974067  0.006317717245732712  0.680941900417761  1.0000
  H   H402      1.0  0.7126757929951635  0.9967384770924599  0.6941056707878848  1.0000
  H   H403      1.0  0.6982279907594844  0.024099009925182102  0.6979554447952703  1.0000
  H   H404      1.0  0.7279304091264752  0.9943057776373564  0.752393933579788  1.0000
  H   H405      1.0  0.7148562510666623  0.021636061543184537  0.7563049048322563  1.0000
  H   H406      1.0  0.6890561303077668  0.0028940754970014915  0.7814505104086054  1.0000
  H   H407      1.0  0.6392801274487423  0.978249764842361  0.7578133530418196  1.0000
  H   H408      1.0  0.6767536236010909  0.9703892070941407  0.727313025406271  1.0000
  H   H409      1.0  0.6258939908272451  0.9803587470409063  0.7159054442435312  1.0000
  H   H410      1.0  0.6447285708793397  0.03538493203175075  0.737647604915215  1.0000
  H   H411      1.0  0.6199505103018579  0.016603803966929176  0.7636177370472543  1.0000
  H   H412      1.0  0.6078355474924925  0.01771604569700469  0.721411188796895  1.0000
  N   N14       1.0  0.5987526281642198  0.6939262505589785  0.2246889263179404  1.0000
  C   C437      1.0  0.5991813579461089  0.7030018981504805  0.19186725175485758  1.0000
  C   C438      1.0  0.6416322286740546  0.6943736113364852  0.238051022621303  1.0000
  C   C439      1.0  0.5846244495456346  0.6720185978614521  0.2234745147252483  1.0000
  C   C440      1.0  0.5694415839664679  0.7063558593720753  0.2452930507591094  1.0000
  H   H413      1.0  0.6193328630535401  0.6934402947355526  0.17515924619719306  1.0000
  H   H414      1.0  0.6118962882499202  0.7191235757267365  0.19152236005555737  1.0000
  H   H415      1.0  0.5669586308331243  0.7039325634479069  0.18169288508717152  1.0000
  H   H416      1.0  0.6425238670905579  0.688018210883877  0.2630273740454168  1.0000
  H   H417      1.0  0.6642455934796023  0.6848798056813068  0.22321962502994272  1.0000
  H   H418      1.0  0.653802297575669  0.7106036642618165  0.23836485533170382  1.0000
  H   H419      1.0  0.6041814715028874  0.6624816888772632  0.2063226539262059  1.0000
  H   H420      1.0  0.551435918959029  0.6712553925859986  0.21542205738897338  1.0000
  H   H421      1.0  0.5862138823763047  0.6642618153676463  0.2474821310811706  1.0000
  H   H422      1.0  0.5680477843839818  0.6999210392087527  0.27023166916761443  1.0000
  H   H423      1.0  0.5368175429157811  0.7063206056682362  0.23563556296572416  1.0000
  H   H424      1.0  0.5791262632951781  0.7229862299204152  0.2466423212324661  1.0000
  N   N15       1.0  0.023598066988913757  0.16068242886451523  0.2004099594977528  1.0000
  C   C441      1.0  0.03593774202139555  0.15181742446927715  0.2319312802803212  1.0000
  C   C442      1.0  0.060068911483722065  0.17090677320415515  0.18494757068883755  1.0000
  C   C443      1.0  0.9888756597108993  0.1762401001790468  0.20495744287483417  1.0000
  C   C444      1.0  0.009276811634499005  0.14368018583553877  0.17958858310247883  1.0000
  H   H425      1.0  0.00894521825466743  0.1439322278693589  0.24399761803452152  1.0000
  H   H426      1.0  0.0468696745798296  0.1642105533973095  0.24837573306074162  1.0000
  H   H427      1.0  0.06197976670701544  0.13995611722564893  0.2292263171091261  1.0000
  H   H428      1.0  0.0724233910672496  0.1835766313678533  0.20020812886972392  1.0000
  H   H429      1.0  0.08636065812893823  0.15945300692310282  0.18010719030835515  1.0000
  H   H430      1.0  0.051363997849234844  0.17808276252938238  0.16134789143589506  1.0000
  H   H431      1.0  0.9604671528413323  0.1688996250808581  0.21588866016583588  1.0000
  H   H432      1.0  0.9790947018939075  0.183296445358907  0.18154795198721407  1.0000
  H   H433      1.0  0.9982096545949194  0.18923460222408317  0.2208841448373394  1.0000
  H   H434      1.0  0.9996050347246674  0.14999254623323965  0.15578783985785774  1.0000
  H   H435      1.0  0.9816384319610976  0.13558983321492302  0.19034587947159848  1.0000
  H   H436      1.0  0.03463060964094722  0.1316736589252705  0.17519401423428904  1.0000
  N   N16       1.0  0.8433111071238512  0.49652549574311766  0.71453177599425  1.0000
  C   C445      1.0  0.8735015125662037  0.4876314007044131  0.6906505091721995  1.0000
  C   C446      1.0  0.8657217404041245  0.5102655042536124  0.7367179063444566  1.0000
  C   C447      1.0  0.823853430616267  0.47927272714789354  0.7328870717474426  1.0000
  C   C448      1.0  0.8100960709861711  0.5088310193892217  0.6978551301369521  1.0000
  H   H437      1.0  0.8580047730200483  0.47626136176485856  0.6748795294542491  1.0000
  H   H438      1.0  0.9001073770833374  0.4790519115501277  0.7023328928625127  1.0000
  H   H439      1.0  0.886963925724287  0.4999663430317862  0.6747273193543383  1.0000
  H   H440      1.0  0.8440850609858885  0.5167915421339363  0.7555590483777334  1.0000
  H   H441      1.0  0.8920312674275487  0.5017422168668232  0.7488326493914844  1.0000
  H   H442      1.0  0.8792399965972871  0.5238439966175201  0.7236016359064469  1.0000
  H   H443      1.0  0.8068297745098555  0.468623145441245  0.7166157370265817  1.0000
  H   H444      1.0  0.8006212753206144  0.4852660773970628  0.751031871407363  1.0000
  H   H445      1.0  0.8480271684314751  0.46955230231305023  0.7455179600051703  1.0000
  H   H446      1.0  0.7891203012495731  0.5174546113834325  0.7151181196658671  1.0000
  H   H447      1.0  0.7899026631285572  0.4985761948732166  0.6833513707830906  1.0000
  H   H448      1.0  0.8237690609724522  0.5207194985049047  0.6811987387427856  1.0000
  N   N17       1.0  0.05164278107186093  0.6144493317225854  0.5764735295795286  1.0000
  C   C449      1.0  0.044378519120854776  0.6071330815368748  0.609905228790544  1.0000
  C   C450      1.0  0.03436172390214276  0.6360148541898384  0.572746025975662  1.0000
  C   C451      1.0  0.03035662960896146  0.6004562414218549  0.5539351397909168  1.0000
  C   C452      1.0  0.09736223158723134  0.6142086641379103  0.5692050632567129  1.0000
  H   H449      1.0  0.05601985685664013  0.5906945645033188  0.613483215691974  1.0000
  H   H450      1.0  0.010222684024624451  0.6075826978722256  0.6164265366476241  1.0000
  H   H451      1.0  0.060691355531814484  0.6170070370781072  0.6276164785333169  1.0000
  H   H452      1.0  0.03849762089445585  0.6418641691840671  0.5476180661164379  1.0000
  H   H453      1.0  1.7047026126038034e-05  0.6367771742769722  0.5784751203708943  1.0000
  H   H454      1.0  0.05019641018750454  0.6471234930096833  0.5888959987143916  1.0000
  H   H455      1.0  0.035186645325838484  0.6055641082561183  0.5284908209988821  1.0000
  H   H456      1.0  0.9957728813925795  0.600354370977711  0.5586274858690597  1.0000
  H   H457      1.0  0.042304226344833884  0.5839881214134676  0.5562052368751993  1.0000
  H   H458      1.0  0.10389150735219266  0.619699298438542  0.5441344221035262  1.0000
  H   H459      1.0  0.11142553237541408  0.5981520130521404  0.5717837510407302  1.0000
  H   H460      1.0  0.11447213407159729  0.6246496653459984  0.5856618805425828  1.0000
  N   N18       1.0  0.06077140077468557  0.8433090766271334  0.07591226803573531  1.0000
  C   C453      1.0  0.078937039186608  0.8488956778569332  0.10713194175180271  1.0000
  C   C454      1.0  0.04295515517642512  0.8623875425083657  0.06046871165723579  1.0000
  C   C455      1.0  0.027251200998248848  0.8279140072429445  0.08134382589579552  1.0000
  C   C456      1.0  0.09412742803205788  0.8340353739892328  0.05494070340719703  1.0000
  H   H461      1.0  0.09348861865589107  0.8349087752880326  0.1190013596341009  1.0000
  H   H462      1.0  0.05458304077919562  0.8554935043137905  0.12393981969916087  1.0000
  H   H463      1.0  0.10383507256073726  0.8607794430516307  0.10421542885642736  1.0000
  H   H464      1.0  0.017858251598786404  0.8698106407897283  0.07582572596445634  1.0000
  H   H465      1.0  0.06772773563696166  0.8742547369872194  0.05621258124412381  1.0000
  H   H466      1.0  0.028897852560921145  0.8588027480309711  0.036798007403036515  1.0000
  H   H467      1.0  0.04005809107672387  0.8133074406366724  0.09280114531415598  1.0000
  H   H468      1.0  0.012310694714302793  0.8234489379206894  0.05840088457737293  1.0000
  H   H469      1.0  0.00200514784340955  0.834243667473035  0.09769996410780485  1.0000
  H   H470      1.0  0.12034939830183758  0.8451106152200751  0.05087061440184048  1.0000
  H   H471      1.0  0.08177297587952315  0.8298301879427361  0.03097091211271041  1.0000
  H   H472      1.0  0.10806875562711836  0.8195392675427136  0.0658828328684149  1.0000
  N   N19       1.0  0.5479314547915882  0.7970684096284245  0.4381903301078009  1.0000
  C   C457      1.0  0.578702801264175  0.8044383867929804  0.46175270113546013  1.0000
  C   C458      1.0  0.5528501915733587  0.8090054801870681  0.40780701418562504  1.0000
  C   C459      1.0  0.5046967790597822  0.8002995931517858  0.4511330655029556  1.0000
  C   C460      1.0  0.5555821972106458  0.7745147170961695  0.4320034572270838  1.0000
  H   H473      1.0  0.5758662423434154  0.7959443014731742  0.4851081632284718  1.0000
  H   H474      1.0  0.574198160157295  0.8214808076683651  0.4667180557850373  1.0000
  H   H475      1.0  0.6116066490041984  0.8020817634748604  0.4526862377166514  1.0000
  H   H476      1.0  0.5296164586368393  0.8042596367179369  0.3895785307622602  1.0000
  H   H477      1.0  0.5481529818014773  0.8261275472060569  0.41176542635029967  1.0000
  H   H478      1.0  0.5849836341091204  0.8066082785477778  0.3971432066860797  1.0000
  H   H479      1.0  0.480643284060558  0.795135278409682  0.4337968344170928  1.0000
  H   H480      1.0  0.49796105748657526  0.8170845882453954  0.45641934145273577  1.0000
  H   H481      1.0  0.4995942718704692  0.7912906071048227  0.47384448506445787  1.0000
  H   H482      1.0  0.5878904398537684  0.7714970641258585  0.4220854075611696  1.0000
  H   H483      1.0  0.5328239104748659  0.7684593997693427  0.41437436473582834  1.0000
  H   H484      1.0  0.5523943024367746  0.7650653805045979  0.45447917249080805  1.0000
  N   N20       1.0  0.7913920035894537  0.3255936898039615  0.5461008380651835  1.0000
  C   C461      1.0  0.7474613816130143  0.33371934221219973  0.5469246069103118  1.0000
  C   C462      1.0  0.8136237457014627  0.33439494992882896  0.5177857525961492  1.0000
  C   C463      1.0  0.7916782188824926  0.30247814075840146  0.5438525219419359  1.0000
  C   C464      1.0  0.8128739790158113  0.33179704155220946  0.5757957721169419  1.0000
  H   H485      1.0  0.7304270314140909  0.32944037438914314  0.5247388963152105  1.0000
  H   H486      1.0  0.7462799817392666  0.351135771012896  0.5488092478523617  1.0000
  H   H487      1.0  0.7296522739389995  0.32732148289634394  0.5679206349555674  1.0000
  H   H488      1.0  0.8471566540581106  0.3290516657888298  0.5169112655884966  1.0000
  H   H489      1.0  0.7991145288830038  0.32951566556822043  0.49484977350140813  1.0000
  H   H490      1.0  0.8134153852075859  0.3518527320533976  0.5182216651083644  1.0000
  H   H491      1.0  0.8244390613726776  0.2958758134954364  0.5424665674798483  1.0000
  H   H492      1.0  0.7754080771448573  0.29719653303600363  0.52183874795547  1.0000
  H   H493      1.0  0.7757849220507873  0.29518805048248553  0.5650134767440372  1.0000
  H   H494      1.0  0.8458195901581793  0.32551237484046847  0.5762951343030766  1.0000
  H   H495      1.0  0.7964830872937616  0.3258738354064779  0.5977619031612177  1.0000
  H   H496      1.0  0.8142756843974774  0.3491626082428565  0.5778635777875922  1.0000
  N   N21       1.0  0.7920586372938335  0.13112688463993308  0.47277236670786066  1.0000
  C   C465      1.0  0.7722738069887402  0.12451785733490917  0.44258066232199533  1.0000
  C   C466      1.0  0.8232685567264175  0.11497394372182515  0.48293900094576775  1.0000
  C   C467      1.0  0.7594086061302036  0.13372745814436995  0.49819646753510965  1.0000
  C   C468      1.0  0.8132351749454101  0.15127661682598975  0.4673623816186094  1.0000
  H   H497      1.0  0.7481648449265654  0.13619171306204977  0.43442863064644577  1.0000
  H   H498      1.0  0.7561092628047853  0.1093011829211754  0.44559218639692477  1.0000
  H   H499      1.0  0.7958233648950177  0.1227272382495961  0.42265169269100106  1.0000
  H   H500      1.0  0.8388320568593973  0.1194492731730125  0.5056699755838651  1.0000
  H   H501      1.0  0.8081295237400439  0.09959845757121033  0.4873013880592857  1.0000
  H   H502      1.0  0.848333702822357  0.11256854046230676  0.46425693766345894  1.0000
  H   H503      1.0  0.7731576496316089  0.1385425208640742  0.521440008702006  1.0000
  H   H504      1.0  0.7425142822223025  0.11886379337789975  0.5027479113201188  1.0000
  H   H505      1.0  0.7354675241926829  0.14590760733687755  0.4914176923542336  1.0000
  H   H506      1.0  0.8379615178400008  0.14998282821610898  0.448162433847442  1.0000
  H   H507      1.0  0.8285565637064891  0.156844677487115  0.48956108980398755  1.0000
  H   H508      1.0  0.7905522425796688  0.16381150368937367  0.45956160108254684  1.0000
  N   N22       1.0  0.7726428780933194  0.3561785156125044  0.8080923355072961  1.0000
  C   C469      1.0  0.773681515170204  0.37915652687409734  0.8035744589630063  1.0000
  C   C470      1.0  0.728528011698778  0.34974990995671884  0.8127181446628821  1.0000
  C   C471      1.0  0.7975189790957103  0.3501028727488547  0.8366525874856161  1.0000
  C   C472      1.0  0.7908429898897925  0.3457372182411741  0.7792915024710513  1.0000
  H   H509      1.0  0.8063619184854657  0.3844877257013355  0.7994525744682228  1.0000
  H   H510      1.0  0.7607916876229701  0.3876117006698133  0.824979101803523  1.0000
  H   H511      1.0  0.7549475118239495  0.3843156311382258  0.7823629468931352  1.0000
  H   H512      1.0  0.7090511548746393  0.35416168328532555  0.7914620234834979  1.0000
  H   H513      1.0  0.7264443512634708  0.3324810799056359  0.8160301406090922  1.0000
  H   H514      1.0  0.7137259485729579  0.3573745877906611  0.8341862551554492  1.0000
  H   H515      1.0  0.7970918310309109  0.3328871075061277  0.8410645494746921  1.0000
  H   H516      1.0  0.7853495556120822  0.3580039062137243  0.8588017890647603  1.0000
  H   H517      1.0  0.8311233994907283  0.35441266907206126  0.8336009332506372  1.0000
  H   H518      1.0  0.7725782732245622  0.3498672971559981  0.7573128306067087  1.0000
  H   H519      1.0  0.790862670400789  0.3283757341637261  0.7819078401910018  1.0000
  H   H520      1.0  0.824041933127949  0.3504150873914216  0.7748631611558996  1.0000
  N   N23       1.0  0.0999624499472711  0.3608293356004728  0.8951839231737249  1.0000
  C   C473      1.0  0.06589084794618794  0.3681055094079362  0.8736356601611089  1.0000
  C   C474      1.0  0.13289316644432292  0.3494801045116428  0.876316066507492  1.0000
  C   C475      1.0  0.08239349904208848  0.34666603752509784  0.9199710142004214  1.0000
  C   C476      1.0  0.11868925596633195  0.37906230559262394  0.9109202806017388  1.0000
  H   H521      1.0  0.04059886536523272  0.3767654491773256  0.8872259670057105  1.0000
  H   H522      1.0  0.05076766994952919  0.3547180543821261  0.8615816454590646  1.0000
  H   H523      1.0  0.07799192051008763  0.3787719460980672  0.8545162384108257  1.0000
  H   H524      1.0  0.15917259321295396  0.3438588258977912  0.8919002535246817  1.0000
  H   H525      1.0  0.12013973828617641  0.33557932896019216  0.864069730596519  1.0000
  H   H526      1.0  0.1471439935531833  0.35972281129327716  0.8574823680230127  1.0000
  H   H527      1.0  0.10708462858218537  0.3410562932269948  0.9369389326007505  1.0000
  H   H528      1.0  0.06819248675237266  0.33263768393386794  0.9090895246159343  1.0000
  H   H529      1.0  0.05722999533469286  0.3547043333369464  0.9344868003307853  1.0000
  H   H530      1.0  0.14423230460210568  0.37410346319442234  0.9275896089567316  1.0000
  H   H531      1.0  0.09487257991655085  0.38807106550724063  0.9254307867528503  1.0000
  H   H532      1.0  0.13279835910418814  0.39000526209530245  0.8930503156580696  1.0000
  N   N24       1.0  0.795129426259523  0.6035534358096725  0.3569100686457144  1.0000
  C   C477      1.0  0.7756908900114722  0.605390712329898  0.38932593344409555  1.0000
  C   C478      1.0  0.7680754126685262  0.6144873615217435  0.33314230209800477  1.0000
  C   C479      1.0  0.7997462010578373  0.5811775767756038  0.34825870396045333  1.0000
  C   C480      1.0  0.837096722461062  0.6131316033653004  0.3569685445041459  1.0000
  H   H533      1.0  0.7436768850910914  0.5986648292718857  0.39020242700855223  1.0000
  H   H534      1.0  0.7728790533440814  0.6220697960630469  0.39698133355230414  1.0000
  H   H535      1.0  0.7950413026836679  0.5970121402208609  0.4077529436952267  1.0000
  H   H536      1.0  0.7808096205575917  0.6125885792095033  0.3081842118872214  1.0000
  H   H537      1.0  0.7356540210842822  0.6082286608281223  0.333343296671422  1.0000
  H   H538      1.0  0.7654777511037864  0.631621804035652  0.33803249292147236  1.0000
  H   H539      1.0  0.7686875827180292  0.5734268808870785  0.3479879452788162  1.0000
  H   H540      1.0  0.8200368613869189  0.5724668846446744  0.3657151466980895  1.0000
  H   H541      1.0  0.8144171613931103  0.5792477140604247  0.3239127899718855  1.0000
  H   H542      1.0  0.8526589171417769  0.6122168171267424  0.332867224121364  1.0000
  H   H543      1.0  0.858352292748308  0.605174859297029  0.3745799103206212  1.0000
  H   H544      1.0  0.8349011351553441  0.6299486677129297  0.36392014999722494  1.0000
  N   N25       1.0  0.758257656652153  0.2181050205954802  0.1930413098010124  1.0000
  C   C481      1.0  0.7798287064039707  0.2051230789431046  0.1682556814129115  1.0000
  C   C482      1.0  0.7822194727102053  0.21692033001967717  0.2232671894458822  1.0000
  C   C483      1.0  0.7151690164185557  0.21045984095331172  0.19870777581571883  1.0000
  C   C484      1.0  0.7558021912565495  0.24010620088235052  0.18199243542480228  1.0000
  H   H545      1.0  0.782295504095636  0.18840256106495398  0.17577213719641388  1.0000
  H   H546      1.0  0.812406044059005  0.21050286483811262  0.16338428023462784  1.0000
  H   H547      1.0  0.7626809662947256  0.20565596827353202  0.1450560549254194  1.0000
  H   H548      1.0  0.7658325360668169  0.2257929229445507  0.24289168946891213  1.0000
  H   H549      1.0  0.786145497928607  0.20048273834391836  0.23171941075751257  1.0000
  H   H550      1.0  0.8143308275759598  0.22331386348837196  0.22001837404707328  1.0000
  H   H551      1.0  0.6980933715448121  0.21985670631135915  0.2174582474505961  1.0000
  H   H552      1.0  0.7156250586028331  0.19388692103366784  0.20707154802081687  1.0000
  H   H553      1.0  0.6961839037607007  0.21139255037994312  0.17640782107529135  1.0000
  H   H554      1.0  0.7381644291214027  0.2417380395941849  0.159104629480921  1.0000
  H   H555      1.0  0.787684069502631  0.24661308261342935  0.17803856362704862  1.0000
  H   H556      1.0  0.7391961612071654  0.25010256784165863  0.2000997328200602  1.0000
  N   N26       1.0  0.3221611341840841  0.5914309777267932  0.26580142222416436  1.0000
  C   C485      1.0  0.365446504058183  0.5971438488348215  0.25638021401178485  1.0000
  C   C486      1.0  0.3046606608540314  0.6071211930518409  0.2886715386147228  1.0000
  C   C487      1.0  0.3230773992925267  0.5705285441669269  0.2813186609260006  1.0000
  C   C488      1.0  0.2956712021108401  0.5909225019787814  0.23680872508452397  1.0000
  H   H557      1.0  0.37955756671125646  0.5859306720342329  0.23864219982246035  1.0000
  H   H558      1.0  0.38645945305407386  0.5978377280616679  0.2775781781054163  1.0000
  H   H559      1.0  0.3657061614692484  0.6128521612178958  0.2448919849908559  1.0000
  H   H560      1.0  0.2721246256718393  0.6033146128829088  0.2965940562339241  1.0000
  H   H561      1.0  0.32443825995139125  0.6082225240419008  0.3105300475445432  1.0000
  H   H562      1.0  0.3034595569038063  0.6230879346157338  0.27772463532286595  1.0000
  H   H563      1.0  0.34288847021650937  0.5704065168370966  0.3032464730704084  1.0000
  H   H564      1.0  0.3362792929770454  0.5583684743153734  0.2646870669438207  1.0000
  H   H565      1.0  0.2909038215646811  0.5656812555991833  0.2887325754391144  1.0000
  H   H566      1.0  0.26277051923869127  0.5865685274639332  0.24280867014034554  1.0000
  H   H567      1.0  0.30846679825003254  0.579531873431699  0.21875191984710257  1.0000
  H   H568      1.0  0.29434104485236523  0.606437764500989  0.22441493950010646  1.0000
  N   N27       1.0  0.18620620945509558  0.2552018627405444  0.46011454829910287  1.0000
  C   C489      1.0  0.21187291058560165  0.23622124150334178  0.4524208405333277  1.0000
  C   C490      1.0  0.18499012797896208  0.2692910321369731  0.43172871051926703  1.0000
  C   C491      1.0  0.2052398867558165  0.26615118180258274  0.487346672203323  1.0000
  C   C492      1.0  0.142876668146948  0.24918578943321643  0.46904626885161027  1.0000
  H   H569      1.0  0.2139593829889046  0.22532714105125048  0.4734410952999666  1.0000
  H   H570      1.0  0.24480874311369827  0.2402242989620009  0.4456319066053046  1.0000
  H   H571      1.0  0.19855577441427652  0.22739868720549158  0.4320554517875607  1.0000
  H   H572      1.0  0.21714858279219462  0.2743485619595418  0.4245978095309199  1.0000
  H   H573      1.0  0.17105253458535996  0.26147909358341537  0.41063331458682517  1.0000
  H   H574      1.0  0.1656539894594946  0.2837066482990811  0.4366612617410106  1.0000
  H   H575      1.0  0.1867557035589038  0.2804063062160628  0.494261182314918  1.0000
  H   H576      1.0  0.23757670207622805  0.2712485292400981  0.4812036708981136  1.0000
  H   H577      1.0  0.20738945576866108  0.25590170025530473  0.5090567730756793  1.0000
  H   H578      1.0  0.12269412235379118  0.26317773564332303  0.4750323122957615  1.0000
  H   H579      1.0  0.14260368651495425  0.2386334761898722  0.49048380433375366  1.0000
  H   H580      1.0  0.12741320578949478  0.24091267596865393  0.4490443926116332  1.0000
  N   N28       1.0  0.26991454620372735  0.13716550010598438  0.8174667730652714  1.0000
  C   C493      1.0  0.29714391515751193  0.12342500423887033  0.8374822887455264  1.0000
  C   C494      1.0  0.2965449320791316  0.1508899313110353  0.7973391266537367  1.0000
  C   C495      1.0  0.24227822743114635  0.15013932100165744  0.8386225777062528  1.0000
  C   C496      1.0  0.24384520179276148  0.12422624918674507  0.7964486968269782  1.0000
  H   H581      1.0  0.2782811919852657  0.11211701519355775  0.8518376733085714  1.0000
  H   H582      1.0  0.3154786344394982  0.13263037647241163  0.8549290999696498  1.0000
  H   H583      1.0  0.3201021579551282  0.11429515663183672  0.8225222756034454  1.0000
  H   H584      1.0  0.31685881577648556  0.16076678364593502  0.8124241343310659  1.0000
  H   H585      1.0  0.31769755226271146  0.1415125784886605  0.781010495384254  1.0000
  H   H586      1.0  0.2770869103638831  0.16153729962761823  0.7819544708802871  1.0000
  H   H587      1.0  0.26094881970450756  0.15985771698220128  0.8551804424701428  1.0000
  H   H588      1.0  0.22189650396641447  0.14022731650847964  0.8541741193639367  1.0000
  H   H589      1.0  0.22134723463727224  0.16083822950400137  0.8245169755692432  1.0000
  H   H590      1.0  0.22158336666191336  0.1340397933249461  0.7820432086124407  1.0000
  H   H591      1.0  0.22486370239246845  0.11285910783754352  0.8106331626739834  1.0000
  H   H592      1.0  0.2636508310790291  0.1149999434456968  0.779120872931999  1.0000
  N   N29       1.0  0.8744004913167499  0.4812267237681385  0.8476872777371353  1.0000
  C   C497      1.0  0.8835414888444967  0.4777674493087622  0.8821211272054784  1.0000
  C   C498      1.0  0.9059903848342011  0.46964955317449886  0.8278658941146856  1.0000
  C   C499      1.0  0.8761827794025538  0.5038799502210007  0.8402513496243311  1.0000
  C   C500      1.0  0.8318095175829495  0.47367891281591945  0.8406680166002876  1.0000
  H   H593      1.0  0.8820208473095273  0.46087130139842103  0.8888803178775432  1.0000
  H   H594      1.0  0.8604045153363129  0.48637767060305115  0.8976652597976974  1.0000
  H   H595      1.0  0.9153772837081781  0.48326646182091104  0.888428134954004  1.0000
  H   H596      1.0  0.8994476838910666  0.4713117825979332  0.8017282260440549  1.0000
  H   H597      1.0  0.9383745774354476  0.47522290761824365  0.8321510813305962  1.0000
  H   H598      1.0  0.905967314699571  0.4525725715387556  0.8334569628666559  1.0000
  H   H599      1.0  0.852520320750817  0.5129897999385651  0.8547895661646103  1.0000
  H   H600      1.0  0.8696387575635247  0.5072156207502266  0.8145110113834179  1.0000
  H   H601      1.0  0.907542319600315  0.5103485067068966  0.845784776448424  1.0000
  H   H602      1.0  0.8279986078610184  0.45712331397387107  0.8484436326176326  1.0000
  H   H603      1.0  0.8249755359264085  0.4744803879150749  0.8145172301663417  1.0000
  H   H604      1.0  0.8070075681906115  0.48306920610184484  0.8535397017175982  1.0000
  N   N30       1.0  0.5361895758430935  0.09682082619579524  0.5862244641526988  1.0000
  C   C501      1.0  0.5679620091289479  0.09662198991435034  0.6119003597381284  1.0000
  C   C502      1.0  0.4954595206850341  0.09032937212036773  0.6000183788309097  1.0000
  C   C503      1.0  0.5493438152998604  0.08209194373769413  0.5605257898020133  1.0000
  C   C504      1.0  0.531728034122337  0.1182086984707813  0.5726042197164889  1.0000
  H   H605      1.0  0.5988661381481668  0.1020305092228182  0.6026909759097031  1.0000
  H   H606      1.0  0.5729786298855378  0.08060642593879397  0.62214816120235  1.0000
  H   H607      1.0  0.5583228376848625  0.10715489515005183  0.6320483851935743  1.0000
  H   H608      1.0  0.47075917998391664  0.08980130796397123  0.5813627684929085  1.0000
  H   H609      1.0  0.49791792618240177  0.07449139794305148  0.6112944579758877  1.0000
  H   H610      1.0  0.4841201355130051  0.10152695800794187  0.6188073838218813  1.0000
  H   H611      1.0  0.5527521985114034  0.06579342059126536  0.5699972062038593  1.0000
  H   H612      1.0  0.5800751501165439  0.08651806656732841  0.5495681779725069  1.0000
  H   H613      1.0  0.5259092465219277  0.08191904862803856  0.5408522049294543  1.0000
  H   H614      1.0  0.5088304397019366  0.11875820883139587  0.5525920687226374  1.0000
  H   H615      1.0  0.5622750193271202  0.12388034934585801  0.5628614163085881  1.0000
  H   H616      1.0  0.5202139968831891  0.12960870424463478  0.5910728145811786  1.0000
  N   N31       1.0  0.4843425843575808  0.6115628786503566  0.07263622402131298  1.0000
  C   C505      1.0  0.518156898618852  0.5955235721638449  0.07680586654116328  1.0000
  C   C506      1.0  0.46010125046572015  0.606805824600302  0.043582454653960934  1.0000
  C   C507      1.0  0.5030259474326044  0.6324625154093626  0.06892010336592813  1.0000
  C   C508      1.0  0.4559484287081092  0.6114623974187996  0.10111525374835972  1.0000
  H   H617      1.0  0.5050595390558872  0.5795084697091666  0.07913674373746771  1.0000
  H   H618      1.0  0.537085523007967  0.5985134863254551  0.09860303299746298  1.0000
  H   H619      1.0  0.5401820227693446  0.5951998757239628  0.05575313346035382  1.0000
  H   H620      1.0  0.4351598790591553  0.618955867953637  0.039034164122434545  1.0000
  H   H621      1.0  0.48073091025583287  0.6057132502627056  0.02177145876381803  1.0000
  H   H622      1.0  0.4439813106321218  0.5915970261362674  0.046160613177831156  1.0000
  H   H623      1.0  0.4782680647841054  0.6449312906458307  0.0659533742731453  1.0000
  H   H624      1.0  0.5245564711084411  0.633085551118517  0.04761369124901571  1.0000
  H   H625      1.0  0.5215333419758347  0.6365982841523682  0.0903578060372614  1.0000
  H   H626      1.0  0.4732472952928974  0.6143300175700602  0.12367088317456276  1.0000
  H   H627      1.0  0.4400395113267176  0.5961611060638724  0.10396857294684758  1.0000
  H   H628      1.0  0.43086943416200146  0.6238329129810708  0.09922372588938311  1.0000
  N   N32       1.0  0.894635426681047  0.6965988813999218  0.07996540796268199  1.0000
  C   C509      1.0  0.8583035726899553  0.6914946793401554  0.10094867953000301  1.0000
  C   C510      1.0  0.8881798917226892  0.7177204769741554  0.06575314720483227  1.0000
  C   C511      1.0  0.8985833576084243  0.6809169886392553  0.05399023388024968  1.0000
  C   C512      1.0  0.933423679007691  0.6961922243892061  0.09924523648306874  1.0000
  H   H629      1.0  0.8540567194330602  0.7029607538681066  0.12085812103773617  1.0000
  H   H630      1.0  0.8620999730503077  0.6755908013261832  0.11187435933886028  1.0000
  H   H631      1.0  0.8284847366156927  0.6914523411683751  0.08713439209234729  1.0000
  H   H632      1.0  0.8597298126406705  0.7184465175313961  0.05038547811557002  1.0000
  H   H633      1.0  0.8837637275152223  0.7299184501418308  0.08469523395007779  1.0000
  H   H634      1.0  0.9154842164731899  0.7223243132403768  0.050430109891280724  1.0000
  H   H635      1.0  0.9257047319310293  0.6841283703222909  0.037620262790885484  1.0000
  H   H636      1.0  0.8696051914269242  0.680710436331925  0.039161823558487185  1.0000
  H   H637      1.0  0.902953541180646  0.6647495756109496  0.06391360712479602  1.0000
  H   H638      1.0  0.9615952487801173  0.6998381598010693  0.08416391659664549  1.0000
  H   H639      1.0  0.939057972407684  0.6804943336170507  0.11046702353612807  1.0000
  H   H640      1.0  0.9314413022891621  0.7079293364303717  0.11896618824919816  1.0000
  N   N33       1.0  0.8928112153558133  0.2882314216301806  0.04019091780278994  1.0000
  C   C513      1.0  0.8492998017657531  0.2891731271015444  0.0532825947023031  1.0000
  C   C514      1.0  0.9101420474017852  0.3095313510878175  0.03900128113734613  1.0000
  C   C515      1.0  0.8924965609154326  0.2795354131058875  0.007309207557510522  1.0000
  C   C516      1.0  0.9192241613558078  0.27469522174784855  0.061122943250146264  1.0000
  H   H641      1.0  0.8356346751426219  0.2732875097498409  0.054972072830719775  1.0000
  H   H642      1.0  0.8281830286820362  0.2988794832577381  0.03777632407200615  1.0000
  H   H643      1.0  0.8480789246681704  0.29603468261564314  0.07788497260643142  1.0000
  H   H644      1.0  0.9099498495732492  0.3168231017995822  0.06327937116761613  1.0000
  H   H645      1.0  0.9432924344445022  0.3093821235441426  0.02980219218844904  1.0000
  H   H646      1.0  0.8914998872454363  0.3199176437683889  0.022706427952448704  1.0000
  H   H647      1.0  0.9247777992811621  0.27879391142762505  0.996536697488928  1.0000
  H   H648      1.0  0.8724514985165016  0.2894004786036296  0.99106987393664  1.0000
  H   H649      1.0  0.8797650468155589  0.2634139153946359  0.007276024604867315  1.0000
  H   H650      1.0  0.9525309758068987  0.2739788363810996  0.05246787255653334  1.0000
  H   H651      1.0  0.9075335147694682  0.2583751667549848  0.06199935615264107  1.0000
  H   H652      1.0  0.9190760520832959  0.28059300989899905  0.08634014885454822  1.0000
  N   N34       1.0  0.37394278947380793  0.4131966556512885  0.8391507643361942  1.0000
  C   C517      1.0  0.40813357312036735  0.4022555762576153  0.821075799107875  1.0000
  C   C518      1.0  0.3528993094629177  0.3981093462524901  0.8607628505546627  1.0000
  C   C519      1.0  0.3428502283508745  0.42212093817558655  0.816434407277508  1.0000
  C   C520      1.0  0.39177751537589794  0.430230766574202  0.8582911515214379  1.0000
  H   H653      1.0  0.4316692126673512  0.3949522501545369  0.837537544890039  1.0000
  H   H654      1.0  0.4250600401191547  0.41316966870950966  0.804714365398788  1.0000
  H   H655      1.0  0.39568449654008964  0.389482999853689  0.8061087755030356  1.0000
  H   H656      1.0  0.32725512476055996  0.4058284382531629  0.8751581670445453  1.0000
  H   H657      1.0  0.3386527675712165  0.38529379969102284  0.8469855269971147  1.0000
  H   H658      1.0  0.3754241428193588  0.39073493101917295  0.8779749057004813  1.0000
  H   H659      1.0  0.31697425997984763  0.43070723242216785  0.8293964042781788  1.0000
  H   H660      1.0  0.32828406860776604  0.40960153675276195  0.8020232078456766  1.0000
  H   H661      1.0  0.35774808091740895  0.43333400431957375  0.799331616421622  1.0000
  H   H662      1.0  0.3669063401414043  0.4386476227211074  0.8726415686495194  1.0000
  H   H663      1.0  0.40761687826936843  0.44197444111672646  0.8425785289138772  1.0000
  H   H664      1.0  0.41530446175244146  0.42401177407115287  0.8757523843171077  1.0000
  N   N35       1.0  0.3123246272797128  0.6787051529714719  0.5869788025371061  1.0000
  C   C521      1.0  0.33020279754904647  0.6997651863570094  0.5902649084919713  1.0000
  C   C522      1.0  0.26690392886019976  0.6796859290769336  0.5952115540889623  1.0000
  C   C523      1.0  0.33404525176927413  0.6638193018721645  0.6089105429486928  1.0000
  C   C524      1.0  0.3180339420744622  0.6715382010291876  0.5534310180468704  1.0000
  H   H665      1.0  0.32650963786392545  0.7056561418379054  0.6153064088745616  1.0000
  H   H666      1.0  0.314219226039983  0.711352525622271  0.5740823813331238  1.0000
  H   H667      1.0  0.36433469005410923  0.6996768911764748  0.5838614213165657  1.0000
  H   H668      1.0  0.25231408856611165  0.6641185948953133  0.5924791578149833  1.0000
  H   H669      1.0  0.2613551466232535  0.6846979028917528  0.6205313543245462  1.0000
  H   H670      1.0  0.2495945985397749  0.6909548981779619  0.5793045094506702  1.0000
  H   H671      1.0  0.3215329017934522  0.6477700769941467  0.6066205971374377  1.0000
  H   H672      1.0  0.3296889178156732  0.6683903895114611  0.6345631566306368  1.0000
  H   H673      1.0  0.36842568958682964  0.6627104004519357  0.6035593090353295  1.0000
  H   H674      1.0  0.35185583349118515  0.6706585344889121  0.5461858144095685  1.0000
  H   H675      1.0  0.3015602168952685  0.6822581113919979  0.5363385397437799  1.0000
  H   H676      1.0  0.3050532861118573  0.6556767594659083  0.5500838572613789  1.0000
  N   N36       1.0  0.31000079792848206  0.7329778288532799  0.3899590622749602  1.0000
  C   C525      1.0  0.28970358656481976  0.7311793494426998  0.35830134691436444  1.0000
  C   C526      1.0  0.34841032465732713  0.7455076460451774  0.3865500450268169  1.0000
  C   C527      1.0  0.32146799021837763  0.7118436224752606  0.402173789472608  1.0000
  C   C528      1.0  0.2803923389799062  0.7433928633068262  0.41282287871806633  1.0000
  H   H677      1.0  0.3108822551651678  0.7231714472129709  0.34047313331729817  1.0000
  H   H678      1.0  0.28097845470824623  0.7468974146554123  0.3482425136489648  1.0000
  H   H679      1.0  0.26041795676307367  0.7219429937132172  0.36013919048206317  1.0000
  H   H680      1.0  0.364449356167939  0.747183287833166  0.41002762143021104  1.0000
  H   H681      1.0  0.3713549367331782  0.7381978994478677  0.3693326022522671  1.0000
  H   H682      1.0  0.3408895934604057  0.7616071591971169  0.3776179566089684  1.0000
  H   H683      1.0  0.33811363238485215  0.7126251011355685  0.42546876973689846  1.0000
  H   H684      1.0  0.3422879657309848  0.703142804989932  0.3848529195109205  1.0000
  H   H685      1.0  0.29306874310105263  0.7022916045402849  0.4062969786150726  1.0000
  H   H686      1.0  0.2703068387684915  0.7591872286380703  0.4038134628797031  1.0000
  H   H687      1.0  0.29499368299296835  0.7455584076087282  0.4367556259882107  1.0000
  H   H688      1.0  0.2514962779312276  0.7340833886993425  0.4166743027910164  1.0000
  N   N37       1.0  0.3532213115607607  0.6091035593139231  0.9028342516595087  1.0000
  C   C529      1.0  0.3624597380228228  0.6044848210033782  0.8685863038869894  1.0000
  C   C530      1.0  0.39083259942334664  0.6179163696272486  0.9178312429135137  1.0000
  C   C531      1.0  0.3421409583994698  0.5895597051916168  0.9197696535710608  1.0000
  C   C532      1.0  0.31753312812346074  0.6242668979019034  0.9053714656536754  1.0000
  H   H689      1.0  0.3354112536691855  0.5969039856058214  0.8568324299470562  1.0000
  H   H690      1.0  0.39002597992277055  0.5934768277249737  0.8659869996767212  1.0000
  H   H691      1.0  0.369865216131695  0.6189224101003308  0.8547035056036161  1.0000
  H   H692      1.0  0.3853717076011599  0.6208082197525121  0.9440260433511838  1.0000
  H   H693      1.0  0.4184626582450312  0.6069216713824651  0.9156284812335304  1.0000
  H   H694      1.0  0.3996944970381692  0.6329773470067241  0.9062569239009908  1.0000
  H   H695      1.0  0.33509973112653724  0.5923102875988288  0.9457459370351408  1.0000
  H   H696      1.0  0.3685637316451057  0.5778874481626415  0.918262886288257  1.0000
  H   H697      1.0  0.3139908150901514  0.582296080966816  0.909206283883908  1.0000
  H   H698      1.0  0.3097603993046676  0.6278448316638311  0.9310354691104992  1.0000
  H   H699      1.0  0.28871050066665205  0.6179758869933203  0.8942969726745833  1.0000
  H   H700      1.0  0.3247807111428507  0.6393039608364303  0.8930043736453299  1.0000
  N   N38       1.0  0.8360132703392938  0.7817878283966436  0.4573891182848005  1.0000
  C   C533      1.0  0.8127245879578069  0.7728255002878555  0.43035556075155107  1.0000
  C   C534      1.0  0.8059449983704232  0.7886517796516914  0.4828756889483634  1.0000
  C   C535      1.0  0.8600152250239724  0.7999957781396814  0.4457896824619022  1.0000
  C   C536      1.0  0.8653068956821189  0.7656619285834219  0.4705513761574561  1.0000
  H   H701      1.0  0.8342641660887838  0.768110518372592  0.41022617091252156  1.0000
  H   H702      1.0  0.7888734931031708  0.7841493940393202  0.42064095890342423  1.0000
  H   H703      1.0  0.7956019228858286  0.7586323310342189  0.4380716555930264  1.0000
  H   H704      1.0  0.8221952618711647  0.7965498756487289  0.5029077937392522  1.0000
  H   H705      1.0  0.7821429247960614  0.8001019563348437  0.4734141934715861  1.0000
  H   H706      1.0  0.7887113103497716  0.7752125456042505  0.4933364147283197  1.0000
  H   H707      1.0  0.8770381748809427  0.8075231923155947  0.4657850270919693  1.0000
  H   H708      1.0  0.8387602779435986  0.8123099709942323  0.43537984514922595  1.0000
  H   H709      1.0  0.8836094779428159  0.7954233505757818  0.4269584763162253  1.0000
  H   H710      1.0  0.8834251997974653  0.7718637597818064  0.49102921280137685  1.0000
  H   H711      1.0  0.8884057809488837  0.7600247882346514  0.451944437254291  1.0000
  H   H712      1.0  0.8480392794270165  0.7516940307881332  0.4794768851452317  1.0000
  N   N39       1.0  0.6467861136992489  0.8516826014224242  0.014104425080727179  1.0000
  C   C537      1.0  0.6665573211351036  0.8487414953432796  0.9819925861128049  1.0000
  C   C538      1.0  0.674786215838087  0.8426612100754307  0.038977957823595366  1.0000
  C   C539      1.0  0.6059389523811927  0.841033308261074  0.015321496112834065  1.0000
  C   C540      1.0  0.6398661215297856  0.8743180583196054  0.020076203995810005  1.0000
  H   H713      1.0  0.6458551231229265  0.854961773614018  0.9626175012460685  1.0000
  H   H714      1.0  0.6733086312002542  0.8319131071372863  0.9768753660876933  1.0000
  H   H715      1.0  0.6969208466049839  0.8570616911983775  0.9798893220012806  1.0000
  H   H716      1.0  0.6619360501159962  0.845335274612513  0.0637055292210329  1.0000
  H   H717      1.0  0.6799877590153304  0.8255029453727478  0.03576565247829322  1.0000
  H   H718      1.0  0.7061968113734546  0.8499026459702431  0.0379034309830113  1.0000
  H   H719      1.0  0.6099365500970602  0.8239661649706435  0.010544017731174415  1.0000
  H   H720      1.0  0.5840101365775459  0.8475935374232288  0.9969201576253959  1.0000
  H   H721      1.0  0.5902761333824705  0.8428916981358332  0.039273525210782534  1.0000
  H   H722      1.0  0.625583992724191  0.8772048618848384  0.04427018012109163  1.0000
  H   H723      1.0  0.6186003553714197  0.8815943313936424  0.0018437763960201803  1.0000
  H   H724      1.0  0.6699787676011013  0.8828687502972774  0.01891170453070612  1.0000
  N   N40       1.0  0.2482417303694924  0.9975197051044524  0.8300002420209569  1.0000
  C   C541      1.0  0.2644969038513785  0.9765416323983122  0.8394702370451472  1.0000
  C   C542      1.0  0.28315369603278384  0.012455116156846469  0.8295818416115883  1.0000
  C   C543      1.0  0.2157461379239101  0.004511343191221151  0.8535654035793717  1.0000
  C   C544      1.0  0.22956776709676954  0.9965721832193628  0.7976347430229173  1.0000
  H   H725      1.0  0.23912510982003019  0.9647598743082028  0.8395358565566815  1.0000
  H   H726      1.0  0.2774236110640432  0.976642737072108  0.8642471849458649  1.0000
  H   H727      1.0  0.28986089916192775  0.9708392138250174  0.8227923885491684  1.0000
  H   H728      1.0  0.2717458743024904  0.028515333863692982  0.8232010491133797  1.0000
  H   H729      1.0  0.29816435378065065  0.01338191043969239  0.8535901510683086  1.0000
  H   H730      1.0  0.30795037320693164  0.007875802277702348  0.8116706987810167  1.0000
  H   H731      1.0  0.19028586681716064  0.9928706963652704  0.8560750715607894  1.0000
  H   H732      1.0  0.20085208500785426  0.01970963842051754  0.8463849930932257  1.0000
  H   H733      1.0  0.2294802314903151  0.006705790626300612  0.8777733726505875  1.0000
  H   H734      1.0  0.2528500320972707  0.9907782725122325  0.7793115052795083  1.0000
  H   H735      1.0  0.217802773969463  0.012316739521941455  0.7895628121950174  1.0000
  H   H736      1.0  0.20244928510332907  0.9858136041899817  0.7973340201177898  1.0000
  N   N41       1.0  0.0240443100158525  0.957402827104457  0.6046805246341405  1.0000
  C   C545      1.0  0.9940701051553971  0.9460792945973313  0.625654664486252  1.0000
  C   C546      1.0  0.03862874501117197  0.9762223185134173  0.6214514933880761  1.0000
  C   C547      1.0  0.0029499966251929077  0.9637747572032449  0.5745522023699358  1.0000
  C   C548      1.0  0.06068260594492947  0.9435588460732792  0.5970556480368937  1.0000
  H   H737      1.0  0.9833347504567238  0.9314647596328811  0.6141018465952285  1.0000
  H   H738      1.0  0.9654249021837187  0.955836819519863  0.6311294986790159  1.0000
  H   H739      1.0  0.008628520942475237  0.9414781199076006  0.6489417457481942  1.0000
  H   H740      1.0  0.05545604549642924  0.9719462398371822  0.6439951115366137  1.0000
  H   H741      1.0  0.06106088894043116  0.9852174359385626  0.6061256184310838  1.0000
  H   H742      1.0  0.011887885509820562  0.9869898984849155  0.6279030164728534  1.0000
  H   H743      1.0  0.975375407435071  0.9744291087429584  0.5793991624100527  1.0000
  H   H744      1.0  0.9909218215948984  0.9499657016299128  0.5615713766383534  1.0000
  H   H745      1.0  0.024852756877618898  0.9721464672376428  0.557997051152232  1.0000
  H   H746      1.0  0.051171633972676434  0.9291391739611791  0.5843636967203178  1.0000
  H   H747      1.0  0.07701096888306913  0.9383712011366468  0.6193112119229638  1.0000
  H   H748      1.0  0.08429075319465507  0.9517189152975696  0.5816397941976582  1.0000
  N   N42       1.0  0.7447463584899954  0.9222119577541695  0.5326357353011246  1.0000
  C   C549      1.0  0.7054059529461321  0.9262627241597128  0.5147817817936995  1.0000
  C   C550      1.0  0.7345689369572911  0.9130424428517001  0.5644848963051963  1.0000
  C   C551      1.0  0.7669471111744741  0.9421055894330373  0.5370362054861327  1.0000
  C   C552      1.0  0.7720886497475948  0.9073843863960874  0.514309232001218  1.0000
  H   H749      1.0  0.6839979114036457  0.9374052797711262  0.5279197566969601  1.0000
  H   H750      1.0  0.6878777127032739  0.911532829510497  0.5110698988088037  1.0000
  H   H751      1.0  0.7119307312922232  0.9331734494495042  0.4905925676526241  1.0000
  H   H752      1.0  0.7143287867830682  0.923830306291659  0.5792185355453835  1.0000
  H   H753      1.0  0.7176878237138835  0.8980209729836068  0.5622094506949793  1.0000
  H   H754      1.0  0.7635958237698828  0.9095765159772482  0.5784427507823813  1.0000
  H   H755      1.0  0.7471939785304786  0.9537047518866196  0.5507165799813468  1.0000
  H   H756      1.0  0.7752782561077171  0.9495452300372966  0.5135551697025345  1.0000
  H   H757      1.0  0.7967268945128401  0.9396094572280544  0.5505613140375593  1.0000
  H   H758      1.0  0.8019640936984952  0.9038624499654603  0.5271874909293629  1.0000
  H   H759      1.0  0.7805244861819312  0.9137431894651727  0.49012602986553827  1.0000
  H   H760      1.0  0.7562863409859696  0.892194813110265  0.5105658842323361  1.0000
  N   N43       1.0  0.9914507002927481  0.1261354744935121  0.9941251332556821  1.0000
  C   C553      1.0  0.02254807036003048  0.1346603929711727  0.9710212011835584  1.0000
  C   C554      1.0  0.9490975318634611  0.13470934341525126  0.9865983103825502  1.0000
  C   C555      1.0  0.002707257017696696  0.13212033554906719  0.027176493583396688  1.0000
  C   C556      1.0  0.9913574053837352  0.10302958302417431  0.9917959109549538  1.0000
  H   H761      1.0  0.014724991692258715  0.13065618605283053  0.945780948751218  1.0000
  H   H762      1.0  0.05478450077108277  0.1281560884629217  0.9755220039173765  1.0000
  H   H763      1.0  0.023951750368042646  0.15202956646128402  0.9725750195490007  1.0000
  H   H764      1.0  0.9389243236648046  0.13000053514429497  0.9621709507861602  1.0000
  H   H765      1.0  0.9252094226319395  0.12894532610987494  0.0040779866308584545  1.0000
  H   H766      1.0  0.9480070903073148  0.15213408248902602  0.987654033665297  1.0000
  H   H767      1.0  0.034873853768433216  0.12629138538155923  0.03344024244595367  1.0000
  H   H768      1.0  0.980331546683226  0.12555984762994352  0.04529690869444991  1.0000
  H   H769      1.0  0.002160196070835285  0.14946224177669892  0.03018842537013966  1.0000
  H   H770      1.0  0.98242393113801  0.09792985948444642  0.9673145286016472  1.0000
  H   H771      1.0  0.968514108418074  0.09613494533720535  0.009285937792182342  1.0000
  H   H772      1.0  0.023074028698870208  0.09605362681739237  0.9967070069706481  1.0000
  N   N44       1.0  0.23496841568636073  0.07540476882989532  0.04582981536800742  1.0000
  C   C557      1.0  0.27090757818650885  0.06848023293977734  0.02530168525911458  1.0000
  C   C558      1.0  0.22882048187957024  0.09833737955284261  0.04249250807518212  1.0000
  C   C559      1.0  0.243891985820187  0.07003852583976977  0.0797361229310408  1.0000
  C   C560      1.0  0.19642240969644204  0.06476333449688965  0.035909359944242825  1.0000
  H   H773      1.0  0.27569385705106636  0.05115706813743093  0.02624429198967571  1.0000
  H   H774      1.0  0.300655873408714  0.075759103369337  0.03291228324505657  1.0000
  H   H775      1.0  0.2658624245006829  0.07285418553880718  0.9996120195539736  1.0000
  H   H776      1.0  0.20159384133894226  0.10418308864152359  0.057292322517883194  1.0000
  H   H777      1.0  0.25713036701244707  0.10675654622189355  0.050364691802908534  1.0000
  H   H778      1.0  0.22307176595015468  0.103045525435844  0.017053998042628526  1.0000
  H   H779      1.0  0.21784667466504318  0.07550007411867488  0.09605213402828197  1.0000
  H   H780      1.0  0.27321812060168793  0.07748742881510927  0.08779319330487641  1.0000
  H   H781      1.0  0.24791119274271345  0.05281293319638669  0.08317743155728939  1.0000
  H   H782      1.0  0.16876988105915403  0.06968804919969918  0.05102449182272257  1.0000
  H   H783      1.0  0.20022210582586247  0.047408774737043524  0.03777578158830308  1.0000
  H   H784      1.0  0.18884871216473792  0.0683312319318592  0.01042337452144615  1.0000
  N   N45       1.0  0.8488055028764111  0.014386900840674288  0.6780559320417338  1.0000
  C   C561      1.0  0.8632262732535193  0.028747318929725596  0.7032071820757537  1.0000
  C   C562      1.0  0.8234687016058791  0.026273983392006706  0.6543267432648049  1.0000
  C   C563      1.0  0.8226594164900226  0.9980596167347012  0.6931291563010683  1.0000
  C   C564      1.0  0.8856328578445808  0.004548535493661632  0.6615722208290218  1.0000
  H   H785      1.0  0.8844627630158215  0.020617132849610083  0.7205840297960445  1.0000
  H   H786      1.0  0.836147282864403  0.035336280807688684  0.7173615607093599  1.0000
  H   H787      1.0  0.8804044859753386  0.042247816422715356  0.6926306670205435  1.0000
  H   H788      1.0  0.8122883258119405  0.016073752111211537  0.6347833745053196  1.0000
  H   H789      1.0  0.7952634133277257  0.03378450960612445  0.6658553903318667  1.0000
  H   H790      1.0  0.841902492530339  0.03898431747414066  0.6427298287582878  1.0000
  H   H791      1.0  0.8110697092382396  0.9868877332876228  0.6749887784979656  1.0000
  H   H792      1.0  0.7945365918604294  0.005025522686349815  0.7056493711016981  1.0000
  H   H793      1.0  0.8405369521343599  0.9888329803194233  0.7114409251057359  1.0000
  H   H794      1.0  0.9054101587269352  0.9953125261713515  0.6786885449710105  1.0000
  H   H795      1.0  0.9058553168892646  0.01658144609887402  0.6500453567212165  1.0000
  H   H796      1.0  0.8757587597897278  0.9937311946472364  0.6422638720713151  1.0000
  N   N46       1.0  0.7510821602606522  0.6089690237765588  0.8389534994701492  1.0000
  C   C565      1.0  0.7396704845566373  0.6180825258632915  0.8705963979922978  1.0000
  C   C566      1.0  0.7292287740704377  0.588948697763325  0.8350950601384216  1.0000
  C   C567      1.0  0.7971546816583649  0.6051713298462625  0.8370462474471829  1.0000
  C   C568      1.0  0.7381668414640508  0.623641546944548  0.8130603719124416  1.0000
  H   H797      1.0  0.7548851413865739  0.6334003673317045  0.8742674237161124  1.0000
  H   H798      1.0  0.7494914980371635  0.607496101369618  0.8906501987427444  1.0000
  H   H799      1.0  0.704953027492743  0.6205130739206003  0.8732873490194076  1.0000
  H   H800      1.0  0.7368714742311747  0.5815799399099661  0.8114721920864459  1.0000
  H   H801      1.0  0.7382183713214144  0.577573498232628  0.8542887254940156  1.0000
  H   H802      1.0  0.6943769448358306  0.5911341444935353  0.8369586379581666  1.0000
  H   H803      1.0  0.8078540232269077  0.5934764874626938  0.8553885512212537  1.0000
  H   H804      1.0  0.8147781319027757  0.6197726418803813  0.8411054126413869  1.0000
  H   H805      1.0  0.8071088523919937  0.5990080242706691  0.8130551394042698  1.0000
  H   H806      1.0  0.7461502063510362  0.6171330299870703  0.7888549287089557  1.0000
  H   H807      1.0  0.7542020337152836  0.6389035713520977  0.8151168333301668  1.0000
  H   H808      1.0  0.7035609728802119  0.6268568071941532  0.8138855815243847  1.0000
  N   N47       1.0  0.5878778735770297  0.32689814891241403  0.13804557613592974  1.0000
  C   C569      1.0  0.5636550614511328  0.3296458620806995  0.1683892863269818  1.0000
  C   C570      1.0  0.6126599595648756  0.3458290366240205  0.1315650920460877  1.0000
  C   C571      1.0  0.5585228851501345  0.32354919696009576  0.1113491221383381  1.0000
  C   C572      1.0  0.616767109605461  0.30853433489728094  0.14094653069740298  1.0000
  H   H809      1.0  0.5848506553446238  0.33156043807115404  0.18926359658310998  1.0000
  H   H810      1.0  0.543757328390371  0.3158770427989024  0.17355569018943592  1.0000
  H   H811      1.0  0.5422200914933104  0.3436530931370042  0.1674956150372764  1.0000
  H   H812      1.0  0.6352916894052042  0.3486750428846677  0.151274294889699  1.0000
  H   H813      1.0  0.6315923575499492  0.3442759978195486  0.10892101140372354  1.0000
  H   H814      1.0  0.592131331245634  0.3600832626215949  0.12930282352753117  1.0000
  H   H815      1.0  0.5360583400728105  0.3370533514139295  0.10860386686607436  1.0000
  H   H816      1.0  0.539508930956479  0.30928490085501525  0.1156024610421732  1.0000
  H   H817      1.0  0.5757793929228491  0.32143756069781554  0.08805445875029992  1.0000
  H   H818      1.0  0.6390309068535572  0.3104526374607394  0.16108970384143786  1.0000
  H   H819      1.0  0.6361054000104442  0.30612328750296713  0.11869040354065448  1.0000
  H   H820      1.0  0.5993391585467935  0.2938675044140014  0.1458011035775375  1.0000
  N   N48       1.0  0.308839326571749  0.4710527053387923  0.6512693638910914  1.0000
  C   C573      1.0  0.3092556744429059  0.45681671050056416  0.6233316302486505  1.0000
  C   C574      1.0  0.3332823820861435  0.46129663977810054  0.6776792392727414  1.0000
  C   C575      1.0  0.26490945274409095  0.47496618911455885  0.6622360341928282  1.0000
  C   C576      1.0  0.327878951797096  0.4911485756803624  0.6418532069644988  1.0000
  H   H821      1.0  0.2919036969177236  0.4638369144227851  0.602668681853701  1.0000
  H   H822      1.0  0.2941953247845458  0.44168035105013065  0.6294582010646643  1.0000
  H   H823      1.0  0.3419853834062082  0.4530259937377472  0.6149684404032345  1.0000
  H   H824      1.0  0.33384379263062264  0.47163369427615603  0.6991746343455219  1.0000
  H   H825      1.0  0.31997339185614176  0.44598807784055056  0.6852497647164333  1.0000
  H   H826      1.0  0.3665791606302973  0.45821580754779806  0.6701730637711145  1.0000
  H   H827      1.0  0.2455881016080185  0.48246854212725354  0.6429618171148042  1.0000
  H   H828      1.0  0.26338145173891087  0.48572168469628507  0.6832336172933012  1.0000
  H   H829      1.0  0.24945823791475633  0.4601481817244003  0.6695149580085028  1.0000
  H   H830      1.0  0.31037285340916293  0.4990119188685184  0.6219563846955939  1.0000
  H   H831      1.0  0.3612902465299285  0.48896893167513034  0.6338757670193687  1.0000
  H   H832      1.0  0.327738530802634  0.5022561794895289  0.6623503973392898  1.0000
  N   N49       1.0  0.3412500509682945  0.7903074598280141  0.21519791277059996  1.0000
  C   C577      1.0  0.30487761843007716  0.7763845524031666  0.2187829775217764  1.0000
  C   C578      1.0  0.3275812559108767  0.8101463051117411  0.19958271135433647  1.0000
  C   C579      1.0  0.37412124213254155  0.7799521142047572  0.1950226788845875  1.0000
  C   C580      1.0  0.35829452472306916  0.7947695718007829  0.2472878971763849  1.0000
  H   H833      1.0  0.29030995934765325  0.7734233622692153  0.19521117740604405  1.0000
  H   H834      1.0  0.2798438496125735  0.7834253264241661  0.2344835997771616  1.0000
  H   H835      1.0  0.31408016697655505  0.760867816825477  0.22921300141212764  1.0000
  H   H836      1.0  0.301961727740204  0.818115118489269  0.21356329000033827  1.0000
  H   H837      1.0  0.3538441444554505  0.8213008779873666  0.19712329702392772  1.0000
  H   H838      1.0  0.31520153667501233  0.8073798928877269  0.17508412706680693  1.0000
  H   H839      1.0  0.40265229880213244  0.7896727325797671  0.19274647492511918  1.0000
  H   H840      1.0  0.3625993438729683  0.7773527518299012  0.17021285290185748  1.0000
  H   H841      1.0  0.38368686929532897  0.7643698856057927  0.2050417355492602  1.0000
  H   H842      1.0  0.3860916815348012  0.8050430717908915  0.24557889468045277  1.0000
  H   H843      1.0  0.36786168333352093  0.7801033207361739  0.2601185085612642  1.0000
  H   H844      1.0  0.33439837129514244  0.803014404352249  0.2626844874782689  1.0000
  N   N50       1.0  0.8034285097114995  0.41116592798580404  0.04668533666469887  1.0000
  C   C581      1.0  0.8096559526688514  0.43392602273640646  0.042599174465198786  1.0000
  C   C582      1.0  0.7664197504012039  0.4077448518495762  0.06785876742129426  1.0000
  C   C583      1.0  0.8413458579135492  0.4014604383061952  0.061334122165868976  1.0000
  C   C584      1.0  0.7963509097539009  0.40154145103346134  0.01497982732801062  1.0000
  H   H845      1.0  0.8388034032205243  0.437063521149561  0.028455343625799934  1.0000
  H   H846      1.0  0.8129478165489458  0.4418389344188363  0.06618348791238438  1.0000
  H   H847      1.0  0.7829702110484559  0.4416432045493867  0.02967588530916121  1.0000
  H   H848      1.0  0.760509374613417  0.3907788399608919  0.07120536339849015  1.0000
  H   H849      1.0  0.7709034898053798  0.4143969820060988  0.09224248875311503  1.0000
  H   H850      1.0  0.7373520076164257  0.415042542646967  0.05765202305992312  1.0000
  H   H851      1.0  0.869880563743276  0.4039146718191121  0.045937245185921904  1.0000
  H   H852      1.0  0.8379312573093404  0.38426182467405856  0.06459901788636446  1.0000
  H   H853      1.0  0.8476258510731228  0.4082370375843702  0.08535934067780548  1.0000
  H   H854      1.0  0.7912060968935455  0.3843869944397364  0.01725386305885812  1.0000
  H   H855      1.0  0.8238778301722719  0.4035968683177758  0.9985421763510129  1.0000
  H   H856      1.0  0.768418117040418  0.40867268820118263  0.0028875507440324633  1.0000
  N   N51       1.0  0.4283037907799654  0.10170407086839672  0.14136768261298652  1.0000
  C   C585      1.0  0.41114002964154367  0.09190455932391517  0.17097463283350786  1.0000
  C   C586      1.0  0.4130030062421774  0.09057045958215326  0.11284274106318516  1.0000
  C   C587      1.0  0.47480858129727593  0.10067358809454352  0.14179252475125437  1.0000
  C   C588      1.0  0.41394196796501387  0.123827467101403  0.13985401836535236  1.0000
  H   H857      1.0  0.42102896768922016  0.10036061806302476  0.19292429685086304  1.0000
  H   H858      1.0  0.4215690848140298  0.07522938641826382  0.1733388416026459  1.0000
  H   H859      1.0  0.3760107636268818  0.09243731223676276  0.1712917256133498  1.0000
  H   H860      1.0  0.4231888239509634  0.07378822442660615  0.11297099451042293  1.0000
  H   H861      1.0  0.3779648883829313  0.09123141457290695  0.11176382318250908  1.0000
  H   H862      1.0  0.42474593627812496  0.09781590063041601  0.09003414061032426  1.0000
  H   H863      1.0  0.4868115683239371  0.08417142496041728  0.1428419037028735  1.0000
  H   H864      1.0  0.4871912973519597  0.10899172129363888  0.16305402802904023  1.0000
  H   H865      1.0  0.4885628567161618  0.10812276020139677  0.11984386194586298  1.0000
  H   H866      1.0  0.42489444791980574  0.13175028108705147  0.11738397244062959  1.0000
  H   H867      1.0  0.4248874821877132  0.13291948532888584  0.1608374625049209  1.0000
  H   H868      1.0  0.3790917152094039  0.12488937154177361  0.1403842379679981  1.0000
  N   N52       1.0  0.202850038155723  0.8518461682132915  0.6007697645382007  1.0000
  C   C589      1.0  0.19919252344625576  0.8296410477529523  0.5915106562753859  1.0000
  C   C590      1.0  0.2474186007187263  0.8579489578092028  0.5982648698264624  1.0000
  C   C591      1.0  0.187574858049665  0.8546736527774238  0.634260897130209  1.0000
  C   C592      1.0  0.17716900376222675  0.865121759145451  0.5789450147148961  1.0000
  H   H869      1.0  0.21813086868902296  0.8191329440194696  0.6074734247154222  1.0000
  H   H870      1.0  0.21058876418536235  0.8270169778297403  0.566314654544612  1.0000
  H   H871      1.0  0.16588070971203547  0.8245878256348582  0.5929506788414878  1.0000
  H   H872      1.0  0.2601707949615399  0.855555443154492  0.5734537442893511  1.0000
  H   H873      1.0  0.25126304688686807  0.8748067979675646  0.6041983558927703  1.0000
  H   H874      1.0  0.2676600630878339  0.8486227012969004  0.6149325145312657  1.0000
  H   H875      1.0  0.20599250111416276  0.844851850087429  0.6514937385432457  1.0000
  H   H876      1.0  0.1537686138981189  0.8505967725382452  0.6369437059345904  1.0000
  H   H877      1.0  0.1899444886727404  0.8712694853276391  0.6419250167354075  1.0000
  H   H878      1.0  0.18611516905933556  0.8624743994936479  0.5533240431362391  1.0000
  H   H879      1.0  0.18097449586677847  0.8820790940035654  0.5840492940008473  1.0000
  H   H880      1.0  0.14299471965016514  0.8618610848069181  0.5816378577891104  1.0000
  N   N53       1.0  0.2909626804683423  0.1399504552850918  0.5355413155891672  1.0000
  C   C593      1.0  0.2644802329430184  0.14432562188589995  0.5071952917409523  1.0000
  C   C594      1.0  0.32185333570549723  0.15679134757582117  0.5387461458301261  1.0000
  C   C595      1.0  0.3134267961588628  0.11961588059726731  0.5313407089360285  1.0000
  C   C596      1.0  0.26419065730800523  0.1390295321795803  0.5648743032346796  1.0000
  H   H881      1.0  0.24043179513508087  0.13208321330430042  0.5041964904847885  1.0000
  H   H882      1.0  0.2838872105077729  0.1448471192557358  0.4846802230327504  1.0000
  H   H883      1.0  0.24785244853490176  0.1598164944382739  0.5092309315048731  1.0000
  H   H884      1.0  0.3060268128889029  0.1723688954892159  0.5421693823543583  1.0000
  H   H885      1.0  0.342897571867452  0.15392394114673552  0.5596235076036664  1.0000
  H   H886      1.0  0.34217557258817394  0.15808040003095106  0.5167898797735003  1.0000
  H   H887      1.0  0.3340102201051842  0.1160184040948533  0.5522133630190841  1.0000
  H   H888      1.0  0.33373721103928017  0.11961798381653033  0.5092905609803058  1.0000
  H   H889      1.0  0.2910959488117351  0.10646371521798347  0.5293889180691509  1.0000
  H   H890      1.0  0.28351647033959854  0.13615071949912558  0.5866917831388597  1.0000
  H   H891      1.0  0.24135807534924986  0.1260237028804018  0.563688769341128  1.0000
  H   H892      1.0  0.24599816308709618  0.15392945911320885  0.5685520667593487  1.0000
  N   N54       1.0  0.34915284464529545  0.22283141822746674  0.2765416461654511  1.0000
  C   C597      1.0  0.37157877594438415  0.23712132093720414  0.2979245996183819  1.0000
  C   C598      1.0  0.3676504310368944  0.2014600680919139  0.2794711168302879  1.0000
  C   C599      1.0  0.35313888850850694  0.23021621503198544  0.24285215229744325  1.0000
  C   C600      1.0  0.3041360611056516  0.22256522311712867  0.2859974452935399  1.0000
  H   H893      1.0  0.3590451652952197  0.2534600511397293  0.2958345613722615  1.0000
  H   H894      1.0  0.405859780908027  0.23736049698788222  0.292070077846088  1.0000
  H   H895      1.0  0.3683300486941663  0.2322746877596266  0.3236152758852274  1.0000
  H   H896      1.0  0.3521762731643157  0.19034535402711616  0.26306492283069344  1.0000
  H   H897      1.0  0.40189769502665423  0.20116864322228672  0.27346641841378966  1.0000
  H   H898      1.0  0.36397071723811936  0.1952178478098721  0.3044333573489485  1.0000
  H   H899      1.0  0.38669051622112527  0.23069421655061795  0.23481115692810103  1.0000
  H   H900      1.0  0.3393319236077546  0.2463111660125696  0.23989730415335098  1.0000
  H   H901      1.0  0.3365425760621337  0.2197769030108286  0.22602497559452514  1.0000
  H   H902      1.0  0.28927346761363887  0.238505441616535  0.28418630298159786  1.0000
  H   H903      1.0  0.29990534771322686  0.2169369159059744  0.31125431917817636  1.0000
  H   H904      1.0  0.28625364709260104  0.21187436353125283  0.27042161322213054  1.0000
  N   N55       1.0  0.7680803905239374  0.038826700243749235  0.9728090557944785  1.0000
  C   C601      1.0  0.7618642553994112  0.06171854445828861  0.9685491759708983  1.0000
  C   C602      1.0  0.7588445985571768  0.03302856409256071  0.0066293487256949835  1.0000
  C   C603      1.0  0.8122113029409334  0.032882517222101  0.9648099216216968  1.0000
  C   C604      1.0  0.7394726708271041  0.027625701972991964  0.9513803426874625  1.0000
  H   H905      1.0  0.7286261874946763  0.06672611726422861  0.9733610790360658  1.0000
  H   H906      1.0  0.7699947938952029  0.06685798530249264  0.9435880474802208  1.0000
  H   H907      1.0  0.7820328866200362  0.07065475155407053  0.9850855730615187  1.0000
  H   H908      1.0  0.7632530602335023  0.01584759734215457  0.010650967275651402  1.0000
  H   H909      1.0  0.7799452483937445  0.04119054834184599  0.023470737191430002  1.0000
  H   H910      1.0  0.7257958871312182  0.03730555644713518  0.013530225043884458  1.0000
  H   H911      1.0  0.8206374697134887  0.03744174970198211  0.9397082388143165  1.0000
  H   H912      1.0  0.8177671164956267  0.015624534782791688  0.966776287694107  1.0000
  H   H913      1.0  0.83463276659942  0.04065047131808841  0.9809996064827782  1.0000
  H   H914      1.0  0.7437398883021414  0.010299291491161265  0.9536296435597617  1.0000
  H   H915      1.0  0.7452809602885181  0.03173412897152694  0.9256868025471059  1.0000
  H   H916      1.0  0.7058306926261525  0.031504126146315585  0.9568632659691217  1.0000
  N   N56       1.0  0.35712184754309323  0.9053673047151523  0.43799111978141947  1.0000
  C   C605      1.0  0.31261841129496204  0.9007569975400023  0.4454604764032982  1.0000
  C   C606      1.0  0.36577134893816743  0.9271988347246933  0.4470712243443661  1.0000
  C   C607      1.0  0.3653509571346196  0.9025824816096992  0.40315281315602464  1.0000
  C   C608      1.0  0.3848585495061456  0.8909067470811706  0.4563540275284778  1.0000
  H   H917      1.0  0.30529889264049054  0.8841528661270867  0.44000418275053316  1.0000
  H   H918      1.0  0.290690562543541  0.9109175360897911  0.4313030212474962  1.0000
  H   H919      1.0  0.30508595016862755  0.9033363904259794  0.4713970700346294  1.0000
  H   H920      1.0  0.39912401719598506  0.9311766064302684  0.44170657578361255  1.0000
  H   H921      1.0  0.34526249422526967  0.9385724876599135  0.4337891397652672  1.0000
  H   H922      1.0  0.3600634349957177  0.9297617888775505  0.47330095271177697  1.0000
  H   H923      1.0  0.3989626005599139  0.9054141126050316  0.39678896312773587  1.0000
  H   H924      1.0  0.3454474959207696  0.9134077666097086  0.3884195092094602  1.0000
  H   H925      1.0  0.3588044995826916  0.886304601838959  0.39547889286208515  1.0000
  H   H926      1.0  0.41871131350339014  0.8937902082224765  0.45099905769241555  1.0000
  H   H927      1.0  0.3790688550497067  0.8743105724602748  0.4501043228803146  1.0000
  H   H928      1.0  0.3797576988124782  0.892600930582614  0.48276719080623254  1.0000
  N   N57       1.0  0.365254698680823  0.32968283276415117  0.601711193640651  1.0000
  C   C609      1.0  0.3936582676387574  0.34702693041179844  0.5935275600021553  1.0000
  C   C610      1.0  0.37955316746805956  0.31050306198930233  0.5846619948643071  1.0000
  C   C611      1.0  0.3219414956312254  0.3353873400989404  0.5918414506982705  1.0000
  C   C612      1.0  0.36574937145017505  0.3258665628482124  0.6368465089166155  1.0000
  H   H929      1.0  0.42693074455586394  0.3430595265496574  0.5995826532067559  1.0000
  H   H930      1.0  0.3846756905300697  0.36143208850213154  0.6070743711867855  1.0000
  H   H931      1.0  0.39264025598754104  0.3510528604655834  0.5673800528795536  1.0000
  H   H932      1.0  0.37898941120470514  0.3128080957535937  0.558089182766479  1.0000
  H   H933      1.0  0.4122194206573845  0.30576817164386666  0.5913264556629819  1.0000
  H   H934      1.0  0.3587412904636389  0.2970922948542661  0.590266765704149  1.0000
  H   H935      1.0  0.29984745868202106  0.3223946243982613  0.5967054656767026  1.0000
  H   H936      1.0  0.32057132172773756  0.3389669947768043  0.5656038650947744  1.0000
  H   H937      1.0  0.30971857658905  0.3494357983484771  0.6049465886323582  1.0000
  H   H938      1.0  0.3449762527127175  0.31271740587613306  0.6438297625607681  1.0000
  H   H939      1.0  0.3544601414314809  0.3399865048749852  0.6503686154820517  1.0000
  H   H940      1.0  0.3980930597271326  0.3218972701727411  0.6453054090166322  1.0000
  N   N58       1.0  0.3403003215113357  0.992352964875185  0.6701187363687328  1.0000
  C   C613      1.0  0.2994841629450629  0.00011709324089248518  0.6834129012234319  1.0000
  C   C614      1.0  0.37505970977649616  0.003665688811452572  0.685109310405742  1.0000
  C   C615      1.0  0.3416167814587067  0.9959130551193782  0.6349153515944274  1.0000
  C   C616      1.0  0.3452194526873837  0.9696827733090682  0.6770720306752995  1.0000
  H   H941      1.0  0.29712554599963786  0.9973775249030568  0.709843562467586  1.0000
  H   H942      1.0  0.27257017411736295  0.992026767939715  0.672432807451512  1.0000
  H   H943      1.0  0.2946206254205793  0.017172885528468074  0.6789136360412906  1.0000
  H   H944      1.0  0.40626268594492954  0.998360451739829  0.6752185268842966  1.0000
  H   H945      1.0  0.3725255132010705  0.020811889649947624  0.6803069117841871  1.0000
  H   H946      1.0  0.37527048704106963  0.001349874012956498  0.7116521386524588  1.0000
  H   H947      1.0  0.37201684903799115  0.9902533274964099  0.6240892749361798  1.0000
  H   H948      1.0  0.3382412329501587  0.01285974099318321  0.628794150095922  1.0000
  H   H949      1.0  0.3159796702588603  0.9877626648318408  0.6225718234040607  1.0000
  H   H950      1.0  0.37557123907697293  0.9632362911295161  0.6672861762210455  1.0000
  H   H951      1.0  0.31948714106865356  0.9606372370899774  0.6662808755880656  1.0000
  H   H952      1.0  0.3440920627991861  0.966431811823259  0.7034317131011681  1.0000
  N   N59       1.0  0.5437887437787572  0.14880830629864242  0.3962293681139591  1.0000
  C   C617      1.0  0.5731353634706989  0.1648572729288994  0.40703191124945853  1.0000
  C   C618      1.0  0.5596920637379538  0.1395542367954902  0.3657692565877403  1.0000
  C   C619      1.0  0.5019155015990929  0.1586770550580395  0.3910118013579678  1.0000
  C   C620      1.0  0.5404993864387992  0.13219706275054477  0.4210600233569278  1.0000
  H   H953      1.0  0.562921447025262  0.1718289862722582  0.4304281601304214  1.0000
  H   H954      1.0  0.5754208816860181  0.17784008113630537  0.3892422413540459  1.0000
  H   H955      1.0  0.6053857076218992  0.1581236991315832  0.40986372858039205  1.0000
  H   H956      1.0  0.5912521887189219  0.1318857284762902  0.3689207789656789  1.0000
  H   H957      1.0  0.5381606136003314  0.12742126521043956  0.35684744016170467  1.0000
  H   H958      1.0  0.5630055560326355  0.1517080598245036  0.34660428613979444  1.0000
  H   H959      1.0  0.47903336826456666  0.14701269681641202  0.3825676426736201  1.0000
  H   H960      1.0  0.5032699752135446  0.1714947165587073  0.37273059807292663  1.0000
  H   H961      1.0  0.48878773166135886  0.16554503549765784  0.41366969683291926  1.0000
  H   H962      1.0  0.5184064406432338  0.11983858875382308  0.41370671788209007  1.0000
  H   H963      1.0  0.5282658433510015  0.13860023568059246  0.4443227142986485  1.0000
  H   H964      1.0  0.5716690247983621  0.1244682919883083  0.4256170833249958  1.0000
  N   N60       1.0  0.006927752450054392  0.018368326934128376  0.8906175915196606  1.0000
  C   C621      1.0  0.01646537341786769  0.038320028903228165  0.9065725632300078  1.0000
  C   C622      1.0  0.9957135594789227  0.022564827927242126  0.8567310428771898  1.0000
  C   C623      1.0  0.9711380231178685  0.00841884294786377  0.9074152475900032  1.0000
  C   C624      1.0  0.04439168159712281  0.004226221180425371  0.8916900273912924  1.0000
  H   H965      1.0  0.023287969390605623  0.035976269610132894  0.9325505169915984  1.0000
  H   H966      1.0  0.9897447357090586  0.04984014955949556  0.9047051955994548  1.0000
  H   H967      1.0  0.04448104625699845  0.045753467195755126  0.8953847789330261  1.0000
  H   H968      1.0  0.9891896219951808  0.007880647028805088  0.8436058996123356  1.0000
  H   H969      1.0  0.9669670948970993  0.03276759645739835  0.8550584290124366  1.0000
  H   H970      1.0  0.02129285296705863  0.030769159261263557  0.8434601866061862  1.0000
  H   H971      1.0  0.942673678751906  0.018910164411134245  0.9076560809854655  1.0000
  H   H972      1.0  0.978630243917088  0.004555826124103213  0.9328785260286752  1.0000
  H   H973      1.0  0.96202227340294  0.9936670359015212  0.8954176906939739  1.0000
  H   H974      1.0  0.03823126955490941  0.9889249703380579  0.8801231946808851  1.0000
  H   H975      1.0  0.05410563805353563  0.0009465242486248471  0.9169150576245292  1.0000
  H   H976      1.0  0.07177689555200795  0.011247739103741772  0.878875676955693  1.0000
  N   N61       1.0  0.034162345279512785  0.37002861002599  0.5061909934798074  1.0000
  C   C625      1.0  0.08002937538871069  0.3696592002647154  0.5118611790596542  1.0000
  C   C626      1.0  0.017321214853800893  0.3490513853942904  0.5129877410531763  1.0000
  C   C627      1.0  0.02610252979301264  0.37575546625128053  0.47225197733310986  1.0000
  C   C628      1.0  0.013009636075047348  0.3855388979081604  0.5275757862741547  1.0000
  H   H977      1.0  0.09391248796727236  0.38525128908922984  0.5070449806041151  1.0000
  H   H978      1.0  0.0967302938194281  0.35811778699667196  0.4958941216017581  1.0000
  H   H979      1.0  0.0872432413509392  0.3651694627779078  0.5371640126354746  1.0000
  H   H980      1.0  0.9831504458001148  0.34862163319893763  0.50785212628759  1.0000
  H   H981      1.0  0.033087282200132906  0.33688003101569974  0.49782152918525285  1.0000
  H   H982      1.0  0.02164970732878735  0.34433035872664447  0.5385821913169995  1.0000
  H   H983      1.0  0.9916685657215452  0.3762131631720695  0.4672076688224607  1.0000
  H   H984      1.0  0.04126800405331843  0.3642388253671559  0.4554386092735545  1.0000
  H   H985      1.0  0.038490408662245734  0.3914865893695973  0.46617815293285425  1.0000
  H   H986      1.0  0.025103895734194914  0.40157494395012755  0.5233970386697382  1.0000
  H   H987      1.0  0.017582266843443772  0.3814902376051778  0.5534209650325178  1.0000
  H   H988      1.0  0.9783756108703756  0.3862815300743932  0.5234799874884999  1.0000
  N   N62       1.0  0.09758048285866971  0.6796001198552599  0.37357068658833825  1.0000
  C   C629      1.0  0.11614363337164679  0.6760442511603628  0.3411918528972094  1.0000
  C   C630      1.0  0.11228943042537565  0.6628544337744514  0.39575966638165505  1.0000
  C   C631      1.0  0.051153009317495  0.6793493600442546  0.37172443132257965  1.0000
  C   C632      1.0  0.11072390471810967  0.7001662766514599  0.38563200237656314  1.0000
  H   H989      1.0  0.10578507005887494  0.6884273841541291  0.3238535510290924  1.0000
  H   H990      1.0  0.10713129641620456  0.6606139809921131  0.33140223235139266  1.0000
  H   H991      1.0  0.15119895836134578  0.676187134027705  0.34172795625346586  1.0000
  H   H992      1.0  0.10239443564019557  0.6471251626821969  0.3877957957637405  1.0000
  H   H993      1.0  0.1472151603318821  0.6623921620467371  0.39735656039838463  1.0000
  H   H994      1.0  0.09959125229760413  0.6652548038752603  0.4205909146530284  1.0000
  H   H995      1.0  0.036307183923025343  0.6815876452849188  0.3958415667421744  1.0000
  H   H996      1.0  0.040047514008723084  0.664181378726465  0.36232031215791255  1.0000
  H   H997      1.0  0.03870914425891492  0.6921306653368201  0.355906074442689  1.0000
  H   H998      1.0  0.09774490783818424  0.7032507791980802  0.41015846322987864  1.0000
  H   H999      1.0  0.09979703401112006  0.7132178288978437  0.3697109316875434  1.0000
  H   H1000     1.0  0.14560502069623205  0.7009565857037238  0.3871362409676459  1.0000
  N   N63       1.0  0.6894233442579436  0.5838786512826167  0.04517575841530408  1.0000
  C   C633      1.0  0.7056959897138524  0.574217703323866  0.015121258738942434  1.0000
  C   C634      1.0  0.7018010249502599  0.6060560684145486  0.046236345881051744  1.0000
  C   C635      1.0  0.7072478268838363  0.5725450471945531  0.07316915339046859  1.0000
  C   C636      1.0  0.6429852117998899  0.5827038114239993  0.04624692048502399  1.0000
  H   H1001     1.0  0.6963053532784061  0.5575618759979797  0.013330313557841755  1.0000
  H   H1002     1.0  0.7407229985871984  0.5744363270307645  0.01373774206154943  1.0000
  H   H1003     1.0  0.6934584643332271  0.5825631826206842  0.9934446421593656  1.0000
  H   H1004     1.0  0.6899277238343744  0.6138221363471686  0.06862596228007778  1.0000
  H   H1005     1.0  0.736661943690064  0.6074518765327274  0.04567940186420438  1.0000
  H   H1006     1.0  0.6891993297274231  0.6151042461043876  0.02537709947703104  1.0000
  H   H1007     1.0  0.74230113105594  0.5730476054513698  0.07296907044547862  1.0000
  H   H1008     1.0  0.698481903048303  0.5557531807363503  0.07321786174946254  1.0000
  H   H1009     1.0  0.6957628297794528  0.5795502817097171  0.09626764367535379  1.0000
  H   H1010     1.0  0.6285330292399095  0.5911300166094802  0.02548112186919327  1.0000
  H   H1011     1.0  0.6296435962000764  0.5897323397656957  0.06872659173471751  1.0000
  H   H1012     1.0  0.6324569925813537  0.5661733836371068  0.0452662083547275  1.0000
  N   N64       1.0  0.5714222957407444  0.4469976761336513  0.7135525983064896  1.0000
  C   C637      1.0  0.5425204588487461  0.4576709987481997  0.7366475205102665  1.0000
  C   C638      1.0  0.5913852650463723  0.4285690066741561  0.7293488297146411  1.0000
  C   C639      1.0  0.6043338582426485  0.4615864961114944  0.7027431523475163  1.0000
  C   C640      1.0  0.5474449537513736  0.44009181261794306  0.6854298486943556  1.0000
  H   H1013     1.0  0.5172238659241339  0.4470549991740904  0.74509512323415  1.0000
  H   H1014     1.0  0.5268368830737111  0.4717053230097852  0.7256577901862733  1.0000
  H   H1015     1.0  0.5593525865455741  0.46299994936488686  0.7583263553102688  1.0000
  H   H1016     1.0  0.6143408300893229  0.42054661922657705  0.7129045674130317  1.0000
  H   H1017     1.0  0.6087927669042358  0.4330251030728318  0.751232269526137  1.0000
  H   H1018     1.0  0.5676026332699081  0.4168178719180594  0.7366875283799722  1.0000
  H   H1019     1.0  0.6265992022234127  0.4539508981077776  0.6852069942350573  1.0000
  H   H1020     1.0  0.62321100471775  0.4670475108918114  0.7233175097560893  1.0000
  H   H1021     1.0  0.5903289137078666  0.47567803940020553  0.6906788062154815  1.0000
  H   H1022     1.0  0.568219379163404  0.43191952576231313  0.6674694215891173  1.0000
  H   H1023     1.0  0.5316729998409288  0.4535256712894326  0.6729284718320068  1.0000
  H   H1024     1.0  0.5226363418142236  0.4288696626254422  0.6926298092530818  1.0000
