data_image0
_chemical_formula_structural       SNCH4SHC3H2SH2CFeCH4CH2NCSH3FeC3HFeHCHSFeH2C2H2CSHNC4H3CH4CH2CFeS2FeS2FeHFeCS2C2HCH2SH3CH2C4H4CNH7SC2HCH3CHCH2CHSHCFeS2FeSC2FeSHSCSH2C2HCHC3H3NHNHCH3CH2C2SHSH2C4H2CFeCHCHCH2NC4H3S2H3SHCHSHC4FeSCHC2HCHNCH6CH2NHCH5SH3FeH3CHFeHSC2SHC2H6SFeHSC2NSHCSNH4FeSHSCH2CH2C6H2CHS2FeH2CHCSH4CH3CHC2H2NC2H2CH2C2HC2HCHS2HC2FeHSHFeHFeSHSC3HCHC4SHCNH4SCH3CH3C3HCHFeCH2CSH2FeH3SCHNCH2C3H3CSHC2NCHCHCFeS2FeS2FeSFeHS2H4SHC4H3CH3C2H2C3H5SH4C2HCHSH3FeSFeS2Fe2S2HCHCH5C2SCHCH2FeHSHCHSCHC2H5CHNHSNCH9C4H2SFeNFeS2H2C2FeHCHCHSH3CH2C2HCSHCHCFeCSCH2CHCH4CFeH2CHSH2S2CH3SHC2H2CHCHCHCHCHNHC2NH2FeS2FeCFeSHS2NH3FeH2C5H3C4HFeH7CHC3H2CHCH2S2H2CH2C2HSH2CH3SHCHCHCH2C2NS2C2HNCHC2H3SHSCH2CNHC2H2FeHNC2H4CHCH2CSCH2CHSCH3CHCH2CS2CHCFeS3C2H3CHC2H2C3FeH2CHCH4NH3C3HCH2S2HSFeS2FeSFeSFeS3HCH2C4H4CH2CH3CHC4H4CHCHC3H2CHC2H3FeH6CH2SH2CNHCSFeHSHSHCHCHCHNCH2CHCHC2HFeCFeHSH4CH3FeS2HSHFeCFeSHSFeS4HCFeSCSFeHFeHSH3CHC6H6CH2C2H2CNC4H8SH3SH2CNH2CFeH2CH5CHCSNHCHCHCHC3H3CHCH2C3SH2NHCH3C2H3NCH2CHSFeSHS2FeS2FeCHFeSFeCS2HFeH3C2H3C6H4CNC4H6CFeHCH2CHCHNSH2SH3SHFeH2C2HC2H4C2H4SH4CH2CHSH2CHCSCHCHNH8SHSHCH3NCH2FeH2C3HCSHCNH5CFeSHFeCFe2S2HC2HCH5FeS2HC2H2SH2FeC3HSC3HSHCNHC2NH2CH2SH3SC3H3C2H2CHCH2CFe2HFeSHSC2FeS3CHC2HCH2NH2CH2C2HC2H3SH5SCHCH2FeHCH3C2FeCH5C2HCH2CS2C2HC2H2S2CH2C2H2CH3SCHCH3C2SFeCH4C4SCHCH5SH3FeS2FeSFeSFeS2C2H2CHFeSCHSNH2NC9H4CH3SC2H4CHCHSHCNH4SHCHCH4FeCSFeS2FeHFeS2HC2FeCHFeSNCSCH2CHC6H4C3H7CH3FeSC2S3H3NH2CHCH2FeC2H3CH4NHCHCH3CH2SCH4C2HNHSFeS2FeHFeHS2FeS2Fe2HS2HC3HC6H4NH3CH7CH2CHC5H4S2H2C2H3SH3SHFeHSCNHFeHCHC2H2C4H7FeSHFeSCFeSH2SCFeS2CH3SC2H2SC6H6CHCHC2Fe2H3SHC3HCH2C2SCH2CH2SH3FeHCH3CH4CSH2CHCNHNCNCHC3HNCHCH3FeH4CH2SC3H6C2H3SCH2C3H3C2HC3SH2FeHNHSH2CSHSHFeCNHSCH2CHFeH2FeS2HCH2FeS3CNHSH3CHC2H4CHC5H5CHSCH3C3H2CHC2FeS2FeSNFeSFeS3HC3H2C2H2C2H3CH3CHCH2FeH3C2H2CH2CHC2HCH2CNFeH3C2HNHSHCH7CFeH3C2HCHSC3H5C2H2NHSHNH2CHCHCH2CFeHCH2NHNHC2HCHCH2C4H3SH3CH2CH2SC2FeSFeS2FeSFeHS2C2H2C4H3CH2CH2CSCH6CH2CHNH3CHC3HCH12CH3SC2SHSCFeH2C2FeH3SCHSC2H3CHSH2NCH5FeSHFeS2FeSFeS2H3CSC5HCH7C2H3FeHNCHSC2H3NCHCHCHCHCHCHCH2CFeSCFeS2FeSFeS3H2C3H2SCHCHCH2CH2CHCHNH5CH2CH2CSHFeH2CHC2S2H3CHCH4NSC2SC2H6CHFeH2C2H3FeCH2CHC2H2C2H4CNH5CH7NCH2C2H2SFeS2Fe2SFeS2CHCH3C3H3C2SH2SH2CHCH2NC3SH3CHC2SH4CHNC2FeCHCSHSHC2HC2H2CH2FeH3SH6C2H3CHC2HCNH2CHSHCSH2SH5C2H2C2HCH2CSHC2S2Fe3S2HFeS2HCH3CH4C2H2CHCHCH2CH2SC3HNHFeCFeS2FeSFeSFeHS2C3HC2H4SC3HSH2C2H5CSC2HC2H2C2H2NHCHSH4CHCNH2CH2NH2CH4SHC2HCH2CH2CSC2HFeCSHSCNH2CH4C2HC2H7FeC
_chemical_formula_sum              "S320 N80 C800 H1280 Fe160"
_cell_length_a       45.8792
_cell_length_b       51.5897
_cell_length_c       50.5213
_cell_angle_alpha    88.8729
_cell_angle_beta     89.7812
_cell_angle_gamma    92.2054

_space_group_name_H-M_alt    "P 1"
_space_group_IT_number       1

loop_
  _space_group_symop_operation_xyz
  'x, y, z'

loop_
  _atom_site_type_symbol
  _atom_site_label
  _atom_site_symmetry_multiplicity
  _atom_site_fract_x
  _atom_site_fract_y
  _atom_site_fract_z
  _atom_site_occupancy
  S   S1        1.0  0.33935  0.27230  0.29238  1.0000
  N   N1        1.0  0.27655  0.10135  0.39144  1.0000
  C   C1        1.0  0.42451  0.14047  0.14715  1.0000
  H   H1        1.0  0.21208  0.24846  0.34344  1.0000
  H   H2        1.0  0.24176  0.10681  0.41929  1.0000
  H   H3        1.0  0.13244  0.13482  0.41695  1.0000
  H   H4        1.0  0.23118  0.10906  0.38531  1.0000
  S   S2        1.0  0.41863  0.29848  0.38588  1.0000
  H   H5        1.0  0.27208  0.13917  0.37343  1.0000
  C   C2        1.0  0.26385  0.26596  0.29753  1.0000
  C   C3        1.0  0.40740  0.20199  0.24143  1.0000
  C   C4        1.0  0.40314  0.22617  0.25292  1.0000
  H   H6        1.0  0.28955  0.06764  0.41343  1.0000
  H   H7        1.0  0.27260  0.19233  0.37775  1.0000
  S   S3        1.0  0.41583  0.27841  0.25768  1.0000
  H   H8        1.0  0.39855  0.18441  0.25093  1.0000
  H   H9        1.0  0.39078  0.22724  0.27111  1.0000
  C   C5        1.0  0.40841  0.13873  0.10174  1.0000
  Fe  Fe1       1.0  0.33853  0.30760  0.31738  1.0000
  C   C6        1.0  0.22543  0.29176  0.31431  1.0000
  H   H10       1.0  0.28224  0.13946  0.40756  1.0000
  H   H11       1.0  0.42288  0.08826  0.14333  1.0000
  H   H12       1.0  0.30865  0.13202  0.38294  1.0000
  H   H13       1.0  0.27744  0.28375  0.29262  1.0000
  C   C7        1.0  0.26256  0.27654  0.34384  1.0000
  H   H14       1.0  0.27887  0.24988  0.30156  1.0000
  H   H15       1.0  0.27633  0.29451  0.34021  1.0000
  N   N2        1.0  0.24462  0.27009  0.32047  1.0000
  C   C8        1.0  0.41090  0.09922  0.12792  1.0000
  S   S4        1.0  0.39298  0.25295  0.33013  1.0000
  H   H16       1.0  0.23782  0.07792  0.40015  1.0000
  H   H17       1.0  0.27746  0.26068  0.34897  1.0000
  H   H18       1.0  0.41048  0.08727  0.10979  1.0000
  Fe  Fe2       1.0  0.38780  0.27836  0.29404  1.0000
  C   C9        1.0  0.42468  0.20047  0.21862  1.0000
  C   C10       1.0  0.11515  0.17303  0.41903  1.0000
  C   C11       1.0  0.22685  0.24612  0.32618  1.0000
  H   H19       1.0  0.40195  0.14292  0.15463  1.0000
  Fe  Fe3       1.0  0.34397  0.25075  0.33082  1.0000
  H   H20       1.0  0.24098  0.22952  0.33091  1.0000
  C   C12       1.0  0.24550  0.09867  0.39936  1.0000
  H   H21       1.0  0.38543  0.14156  0.10781  1.0000
  S   S5        1.0  0.31361  0.21682  0.34073  1.0000
  Fe  Fe4       1.0  0.38813  0.28994  0.35222  1.0000
  H   H22       1.0  0.21309  0.24057  0.30894  1.0000
  H   H23       1.0  0.38800  0.10062  0.13495  1.0000
  C   C13       1.0  0.33883  0.22017  0.41699  1.0000
  C   C14       1.0  0.29152  0.19772  0.41642  1.0000
  H   H24       1.0  0.24880  0.27977  0.36155  1.0000
  H   H25       1.0  0.43028  0.20662  0.11327  1.0000
  C   C15       1.0  0.28529  0.12918  0.38869  1.0000
  S   S6        1.0  0.33958  0.28562  0.35599  1.0000
  H   H26       1.0  0.26705  0.09726  0.35007  1.0000
  N   N3        1.0  0.42474  0.12519  0.12269  1.0000
  C   C16       1.0  0.28063  0.08852  0.36586  1.0000
  C   C17       1.0  0.33830  0.22267  0.38937  1.0000
  C   C18       1.0  0.31452  0.21255  0.37518  1.0000
  C   C19       1.0  0.29118  0.19989  0.38867  1.0000
  H   H27       1.0  0.25113  0.26100  0.27950  1.0000
  H   H28       1.0  0.30381  0.09014  0.35925  1.0000
  H   H29       1.0  0.35655  0.23219  0.37905  1.0000
  C   C20       1.0  0.41608  0.24873  0.24144  1.0000
  H   H30       1.0  0.21037  0.29534  0.33105  1.0000
  H   H31       1.0  0.21196  0.28782  0.29644  1.0000
  H   H32       1.0  0.27429  0.06743  0.36740  1.0000
  H   H33       1.0  0.31837  0.09144  0.40711  1.0000
  C   C21       1.0  0.29472  0.08888  0.41179  1.0000
  H   H34       1.0  0.41848  0.15828  0.09706  1.0000
  H   H35       1.0  0.23844  0.31013  0.31026  1.0000
  C   C22       1.0  0.43164  0.24730  0.21769  1.0000
  Fe  Fe5       1.0  0.23085  0.17276  0.52123  1.0000
  S   S7        1.0  0.21684  0.13354  0.50674  1.0000
  S   S8        1.0  0.20406  0.19029  0.55308  1.0000
  Fe  Fe6       1.0  0.27939  0.17986  0.48087  1.0000
  S   S9        1.0  0.26990  0.14116  0.46306  1.0000
  S   S10       1.0  0.31598  0.20593  0.46526  1.0000
  Fe  Fe7       1.0  0.22313  0.15133  0.46625  1.0000
  H   H36       1.0  0.29562  0.11946  0.67926  1.0000
  Fe  Fe8       1.0  0.26468  0.12673  0.50487  1.0000
  C   C23       1.0  0.16019  0.07470  0.69855  1.0000
  S   S11       1.0  0.23286  0.19151  0.48080  1.0000
  S   S12       1.0  0.27864  0.16467  0.52271  1.0000
  C   C24       1.0  0.28216  0.10561  0.69187  1.0000
  C   C25       1.0  0.24006  0.16578  0.58798  1.0000
  H   H37       1.0  0.10665  0.07970  0.42568  1.0000
  C   C26       1.0  0.30128  0.27837  0.46694  1.0000
  H   H38       1.0  0.30880  0.08086  0.65287  1.0000
  H   H39       1.0  0.23428  0.10543  0.66112  1.0000
  S   S13       1.0  0.19195  0.14003  0.43389  1.0000
  H   H40       1.0  0.18416  0.25019  0.73328  1.0000
  H   H41       1.0  0.26452  0.11698  0.70062  1.0000
  H   H42       1.0  0.19329  0.19575  0.43910  1.0000
  C   C27       1.0  0.14915  0.17353  0.50256  1.0000
  H   H43       1.0  0.25058  0.15813  0.57091  1.0000
  H   H44       1.0  0.14047  0.18875  0.55267  1.0000
  C   C28       1.0  0.21623  0.18164  0.58488  1.0000
  C   C29       1.0  0.13035  0.20053  0.53669  1.0000
  C   C30       1.0  0.16525  0.16306  0.42908  1.0000
  C   C31       1.0  0.24766  0.07282  0.47429  1.0000
  H   H45       1.0  0.16030  0.16135  0.51756  1.0000
  H   H46       1.0  0.35420  0.28904  0.44697  1.0000
  H   H47       1.0  0.10309  0.13112  0.72966  1.0000
  H   H48       1.0  0.30089  0.29020  0.44829  1.0000
  C   C32       1.0  0.14951  0.20730  0.43163  1.0000
  N   N4        1.0  0.32803  0.28414  0.48231  1.0000
  H   H49       1.0  0.18425  0.28440  0.73858  1.0000
  H   H50       1.0  0.27314  0.18853  0.42685  1.0000
  H   H51       1.0  0.34754  0.27185  0.51888  1.0000
  H   H52       1.0  0.29112  0.09701  0.43174  1.0000
  H   H53       1.0  0.30830  0.27173  0.51940  1.0000
  H   H54       1.0  0.28130  0.28227  0.47853  1.0000
  H   H55       1.0  0.15374  0.26385  0.74936  1.0000
  S   S14       1.0  0.15533  0.16351  0.75271  1.0000
  C   C33       1.0  0.29394  0.06862  0.66584  1.0000
  C   C34       1.0  0.25081  0.06696  0.69347  1.0000
  H   H56       1.0  0.35417  0.25720  0.46191  1.0000
  C   C35       1.0  0.35388  0.27825  0.46626  1.0000
  H   H57       1.0  0.23483  0.08928  0.47873  1.0000
  H   H58       1.0  0.26641  0.10746  0.64100  1.0000
  H   H59       1.0  0.14415  0.16133  0.48510  1.0000
  C   C36       1.0  0.12117  0.19911  0.42475  1.0000
  H   H60       1.0  0.14654  0.21638  0.53118  1.0000
  C   C37       1.0  0.31538  0.20788  0.43059  1.0000
  H   H61       1.0  0.11089  0.20951  0.54533  1.0000
  H   H62       1.0  0.26934  0.14800  0.61542  1.0000
  C   C38       1.0  0.10867  0.20073  0.49320  1.0000
  H   H63       1.0  0.32666  0.24692  0.50236  1.0000
  S   S15       1.0  0.14385  0.09264  0.72323  1.0000
  H   H64       1.0  0.24379  0.07827  0.64147  1.0000
  C   C39       1.0  0.21225  0.18430  0.63277  1.0000
  Fe  Fe9       1.0  0.16172  0.19050  0.71783  1.0000
  S   S16       1.0  0.20958  0.19810  0.72395  1.0000
  S   S17       1.0  0.13362  0.22426  0.70986  1.0000
  Fe  Fe10      1.0  0.16587  0.13225  0.72434  1.0000
  S   S18       1.0  0.21386  0.13489  0.73207  1.0000
  C   C40       1.0  0.27214  0.06734  0.48947  1.0000
  C   C41       1.0  0.20224  0.19083  0.60733  1.0000
  Fe  Fe11      1.0  0.21484  0.16374  0.69828  1.0000
  S   S19       1.0  0.24939  0.16037  0.66726  1.0000
  H   H65       1.0  0.18383  0.20316  0.60509  1.0000
  S   S20       1.0  0.16735  0.15880  0.68876  1.0000
  C   C42       1.0  0.13721  0.15502  0.42109  1.0000
  S   S21       1.0  0.28275  0.08804  0.51500  1.0000
  H   H66       1.0  0.37455  0.28351  0.47666  1.0000
  H   H67       1.0  0.29971  0.25763  0.46126  1.0000
  C   C43       1.0  0.17797  0.26515  0.74763  1.0000
  C   C44       1.0  0.25286  0.09412  0.65399  1.0000
  H   H68       1.0  0.20163  0.19176  0.65000  1.0000
  C   C45       1.0  0.23649  0.16885  0.63573  1.0000
  H   H69       1.0  0.16521  0.18911  0.49603  1.0000
  C   C46       1.0  0.25048  0.15976  0.61330  1.0000
  C   C47       1.0  0.16884  0.08666  0.67456  1.0000
  C   C48       1.0  0.32763  0.26801  0.50685  1.0000
  H   H70       1.0  0.35762  0.22752  0.42771  1.0000
  H   H71       1.0  0.16508  0.10692  0.67091  1.0000
  H   H72       1.0  0.18892  0.08173  0.63648  1.0000
  N   N5        1.0  0.26995  0.08382  0.67631  1.0000
  H   H73       1.0  0.29599  0.09873  0.70840  1.0000
  N   N6        1.0  0.12252  0.18450  0.51364  1.0000
  H   H74       1.0  0.10881  0.11680  0.68253  1.0000
  C   C49       1.0  0.17148  0.18927  0.43391  1.0000
  H   H75       1.0  0.23155  0.07746  0.70053  1.0000
  H   H76       1.0  0.11191  0.15023  0.53717  1.0000
  H   H77       1.0  0.12401  0.21630  0.48534  1.0000
  C   C50       1.0  0.18227  0.07234  0.65501  1.0000
  H   H78       1.0  0.15432  0.22752  0.43577  1.0000
  H   H79       1.0  0.10123  0.18896  0.47611  1.0000
  C   C51       1.0  0.32933  0.31189  0.48916  1.0000
  C   C52       1.0  0.10194  0.16316  0.52213  1.0000
  S   S22       1.0  0.22021  0.17650  0.79806  1.0000
  H   H80       1.0  0.31604  0.20693  0.86979  1.0000
  S   S23       1.0  0.32207  0.26213  0.80224  1.0000
  H   H81       1.0  0.24006  0.20934  0.83968  1.0000
  H   H82       1.0  0.38166  0.16755  0.85899  1.0000
  C   C53       1.0  0.24875  0.19996  0.79913  1.0000
  C   C54       1.0  0.25361  0.21365  0.82244  1.0000
  C   C55       1.0  0.27560  0.23323  0.82340  1.0000
  C   C56       1.0  0.29323  0.23880  0.80122  1.0000
  H   H83       1.0  0.33028  0.23445  0.85097  1.0000
  H   H84       1.0  0.42326  0.23127  0.97157  1.0000
  C   C57       1.0  0.36568  0.18024  0.86840  1.0000
  Fe  Fe12      1.0  0.32764  0.28576  0.83905  1.0000
  C   C58       1.0  0.38497  0.24958  0.00674  1.0000
  H   H85       1.0  0.27881  0.24388  0.84132  1.0000
  C   C59       1.0  0.18234  0.23571  0.78504  1.0000
  H   H86       1.0  0.38499  0.23305  0.02131  1.0000
  C   C60       1.0  0.22416  0.26185  0.76986  1.0000
  H   H87       1.0  0.32206  0.17929  0.83181  1.0000
  H   H88       1.0  0.39435  0.22609  0.85911  1.0000
  N   N7        1.0  0.19216  0.26116  0.77353  1.0000
  C   C61       1.0  0.33645  0.21792  0.86387  1.0000
  C   C62       1.0  0.28857  0.22486  0.77800  1.0000
  C   C63       1.0  0.38314  0.21718  0.84185  1.0000
  C   C64       1.0  0.41703  0.06555  0.94251  1.0000
  H   H89       1.0  0.37724  0.23333  0.82810  1.0000
  H   H90       1.0  0.19282  0.23184  0.80450  1.0000
  H   H91       1.0  0.23561  0.25921  0.78904  1.0000
  S   S24       1.0  0.35039  0.25876  0.93248  1.0000
  S   S25       1.0  0.37095  0.28678  0.85975  1.0000
  H   H92       1.0  0.40430  0.25602  0.90235  1.0000
  H   H93       1.0  0.41363  0.09810  0.96816  1.0000
  H   H94       1.0  0.37608  0.18809  0.88657  1.0000
  S   S26       1.0  0.41144  0.15101  0.99978  1.0000
  H   H95       1.0  0.39922  0.20535  0.83145  1.0000
  C   C65       1.0  0.42849  0.26950  0.02541  1.0000
  H   H96       1.0  0.35173  0.20818  0.95591  1.0000
  S   S27       1.0  0.30116  0.28061  0.87625  1.0000
  H   H97       1.0  0.38829  0.17433  0.95464  1.0000
  C   C66       1.0  0.40065  0.23807  0.91351  1.0000
  C   C67       1.0  0.37565  0.23438  0.92931  1.0000
  C   C68       1.0  0.37124  0.21128  0.94397  1.0000
  C   C69       1.0  0.18418  0.28193  0.79163  1.0000
  Fe  Fe13      1.0  0.34413  0.28494  0.89699  1.0000
  S   S28       1.0  0.41438  0.07666  0.02120  1.0000
  C   C70       1.0  0.39210  0.19221  0.94352  1.0000
  H   H98       1.0  0.41953  0.07748  0.92472  1.0000
  C   C71       1.0  0.26624  0.20556  0.77689  1.0000
  C   C72       1.0  0.41762  0.19617  0.92857  1.0000
  H   H99       1.0  0.37129  0.26480  0.01509  1.0000
  C   C73       1.0  0.34283  0.19012  0.82657  1.0000
  H   H100      1.0  0.30229  0.22897  0.76082  1.0000
  N   N8        1.0  0.35704  0.20133  0.85018  1.0000
  C   C74       1.0  0.41394  0.28098  0.98088  1.0000
  H   H101      1.0  0.35725  0.17657  0.81641  1.0000
  H   H102      1.0  0.41604  0.28553  0.03379  1.0000
  H   H103      1.0  0.34617  0.22633  0.88206  1.0000
  H   H104      1.0  0.33743  0.20553  0.81186  1.0000
  H   H105      1.0  0.18799  0.21956  0.77198  1.0000
  H   H106      1.0  0.40793  0.12768  0.08301  1.0000
  C   C75       1.0  0.42161  0.21890  0.91309  1.0000
  H   H107      1.0  0.15827  0.23437  0.78795  1.0000
  H   H108      1.0  0.40389  0.27414  0.96210  1.0000
  N   N9        1.0  0.41493  0.25970  0.00086  1.0000
  H   H109      1.0  0.40070  0.29712  0.98792  1.0000
  C   C76       1.0  0.41400  0.07721  0.96712  1.0000
  H   H110      1.0  0.19143  0.30141  0.78366  1.0000
  H   H111      1.0  0.43258  0.22189  0.00463  1.0000
  H   H112      1.0  0.34649  0.16780  0.87486  1.0000
  H   H113      1.0  0.19450  0.27939  0.81139  1.0000
  H   H114      1.0  0.37389  0.24250  0.98857  1.0000
  S   S29       1.0  0.42255  0.20005  0.05726  1.0000
  H   H115      1.0  0.16013  0.28202  0.79470  1.0000
  H   H116      1.0  0.10522  0.20161  0.75663  1.0000
  H   H117      1.0  0.26281  0.19481  0.75892  1.0000
  Fe  Fe14      1.0  0.20380  0.16882  0.75707  1.0000
  H   H118      1.0  0.23101  0.24617  0.75662  1.0000
  H   H119      1.0  0.23237  0.28063  0.76092  1.0000
  H   H120      1.0  0.42927  0.25391  0.04093  1.0000
  C   C77       1.0  0.43234  0.23863  0.99044  1.0000
  H   H121      1.0  0.41666  0.35924  0.36935  1.0000
  Fe  Fe15      1.0  0.17184  0.39387  0.19115  1.0000
  H   H122      1.0  0.25288  0.35715  0.28705  1.0000
  S   S30       1.0  0.30425  0.33698  0.31104  1.0000
  C   C78       1.0  0.40970  0.37962  0.37116  1.0000
  C   C79       1.0  0.25505  0.34750  0.24575  1.0000
  S   S31       1.0  0.25990  0.33648  0.19285  1.0000
  H   H123      1.0  0.23424  0.35548  0.24111  1.0000
  C   C80       1.0  0.27127  0.33598  0.22597  1.0000
  C   C81       1.0  0.26554  0.34828  0.27180  1.0000
  H   H124      1.0  0.40057  0.42269  0.39894  1.0000
  H   H125      1.0  0.41781  0.43163  0.36788  1.0000
  H   H126      1.0  0.15986  0.46998  0.12193  1.0000
  H   H127      1.0  0.34411  0.37822  0.17045  1.0000
  H   H128      1.0  0.33895  0.42578  0.16384  1.0000
  H   H129      1.0  0.21193  0.52609  0.12327  1.0000
  S   S32       1.0  0.18384  0.36091  0.16549  1.0000
  Fe  Fe16      1.0  0.22855  0.36744  0.18243  1.0000
  H   H130      1.0  0.29993  0.42144  0.16469  1.0000
  S   S33       1.0  0.13072  0.38746  0.21476  1.0000
  C   C82       1.0  0.11184  0.43577  0.20041  1.0000
  C   C83       1.0  0.20271  0.50646  0.11849  1.0000
  N   N10       1.0  0.17337  0.50780  0.10671  1.0000
  S   S34       1.0  0.38681  0.31568  0.31604  1.0000
  H   H131      1.0  0.32583  0.36166  0.19779  1.0000
  C   C84       1.0  0.15422  0.52183  0.12464  1.0000
  S   S35       1.0  0.18143  0.42490  0.16025  1.0000
  N   N11       1.0  0.32198  0.40308  0.19707  1.0000
  H   H132      1.0  0.35041  0.39204  0.22869  1.0000
  H   H133      1.0  0.22759  0.43030  0.10704  1.0000
  H   H134      1.0  0.12783  0.41096  0.11134  1.0000
  H   H135      1.0  0.10765  0.36217  0.14351  1.0000
  Fe  Fe17      1.0  0.22666  0.42556  0.17715  1.0000
  S   S36       1.0  0.25600  0.46079  0.18208  1.0000
  H   H136      1.0  0.27606  0.39612  0.20251  1.0000
  S   S37       1.0  0.17376  0.55540  0.18237  1.0000
  C   C85       1.0  0.29568  0.40187  0.21408  1.0000
  H   H137      1.0  0.31758  0.44345  0.18684  1.0000
  H   H138      1.0  0.23580  0.55269  0.17207  1.0000
  C   C86       1.0  0.31965  0.42434  0.17723  1.0000
  H   H139      1.0  0.30505  0.37388  0.17078  1.0000
  H   H140      1.0  0.16279  0.54202  0.12785  1.0000
  C   C87       1.0  0.23433  0.48770  0.18528  1.0000
  C   C88       1.0  0.20512  0.48419  0.19293  1.0000
  C   C89       1.0  0.18690  0.50534  0.19289  1.0000
  C   C90       1.0  0.19786  0.53003  0.18515  1.0000
  C   C91       1.0  0.22728  0.53371  0.17818  1.0000
  C   C92       1.0  0.24558  0.51253  0.17836  1.0000
  H   H141      1.0  0.19651  0.46515  0.19889  1.0000
  H   H142      1.0  0.16421  0.50248  0.19856  1.0000
  C   C93       1.0  0.16103  0.48124  0.10290  1.0000
  H   H143      1.0  0.26817  0.51525  0.17236  1.0000
  S   S38       1.0  0.24300  0.39549  0.15018  1.0000
  S   S39       1.0  0.18319  0.39135  0.09362  1.0000
  Fe  Fe18      1.0  0.19693  0.39228  0.13607  1.0000
  H   H144      1.0  0.13366  0.44029  0.19323  1.0000
  H   H145      1.0  0.34656  0.42642  0.22447  1.0000
  C   C94       1.0  0.29211  0.33730  0.27815  1.0000
  H   H146      1.0  0.20221  0.49464  0.13714  1.0000
  C   C95       1.0  0.32446  0.37817  0.18340  1.0000
  S   S40       1.0  0.21550  0.39794  0.21063  1.0000
  H   H147      1.0  0.29152  0.42097  0.22298  1.0000
  H   H148      1.0  0.29751  0.38732  0.23048  1.0000
  H   H149      1.0  0.15257  0.51213  0.14453  1.0000
  H   H150      1.0  0.38839  0.37876  0.38186  1.0000
  C   C96       1.0  0.34802  0.40791  0.21364  1.0000
  H   H151      1.0  0.13868  0.48150  0.09448  1.0000
  H   H152      1.0  0.36831  0.40913  0.20146  1.0000
  H   H153      1.0  0.12111  0.39221  0.15677  1.0000
  C   C97       1.0  0.42146  0.42246  0.38764  1.0000
  H   H154      1.0  0.31034  0.31586  0.21720  1.0000
  C   C98       1.0  0.30831  0.32583  0.25836  1.0000
  C   C99       1.0  0.29773  0.32487  0.23241  1.0000
  H   H155      1.0  0.13175  0.52307  0.11667  1.0000
  H   H156      1.0  0.40580  0.38733  0.35082  1.0000
  N   N12       1.0  0.43172  0.39577  0.38527  1.0000
  C   C100      1.0  0.10513  0.41171  0.21269  1.0000
  C   C101      1.0  0.37710  0.32792  0.40875  1.0000
  H   H157      1.0  0.11528  0.38053  0.09841  1.0000
  H   H158      1.0  0.21830  0.49748  0.10489  1.0000
  C   C102      1.0  0.10788  0.39952  0.10552  1.0000
  H   H159      1.0  0.36470  0.32553  0.39077  1.0000
  H   H160      1.0  0.32922  0.31796  0.26290  1.0000
  C   C103      1.0  0.21978  0.43446  0.08734  1.0000
  C   C104      1.0  0.40385  0.31606  0.41166  1.0000
  H   H161      1.0  0.17462  0.47033  0.08902  1.0000
  C   C105      1.0  0.10106  0.38168  0.14973  1.0000
  C   C106      1.0  0.40443  0.52774  0.66977  1.0000
  H   H162      1.0  0.31065  0.31688  0.50196  1.0000
  C   C107      1.0  0.38369  0.34810  0.45149  1.0000
  H   H163      1.0  0.34978  0.31729  0.49989  1.0000
  S   S41       1.0  0.42043  0.45400  0.69079  1.0000
  S   S42       1.0  0.37265  0.37045  0.47478  1.0000
  H   H164      1.0  0.41558  0.50974  0.67114  1.0000
  C   C108      1.0  0.40993  0.33557  0.45475  1.0000
  C   C109      1.0  0.38106  0.46813  0.57384  1.0000
  Fe  Fe19      1.0  0.42590  0.45254  0.50339  1.0000
  H   H165      1.0  0.42658  0.44529  0.62100  1.0000
  S   S43       1.0  0.41428  0.41573  0.52614  1.0000
  H   H166      1.0  0.37842  0.50068  0.61505  1.0000
  Fe  Fe20      1.0  0.41005  0.39742  0.48628  1.0000
  H   H167      1.0  0.39176  0.45979  0.55633  1.0000
  Fe  Fe21      1.0  0.41910  0.48729  0.71841  1.0000
  S   S44       1.0  0.41304  0.49285  0.51313  1.0000
  H   H168      1.0  0.41917  0.50757  0.58313  1.0000
  S   S45       1.0  0.41663  0.43513  0.46385  1.0000
  C   C110      1.0  0.42083  0.51279  0.48516  1.0000
  C   C111      1.0  0.41101  0.53814  0.48377  1.0000
  C   C112      1.0  0.40866  0.54404  0.64749  1.0000
  H   H169      1.0  0.37326  0.48745  0.56745  1.0000
  C   C113      1.0  0.36694  0.34383  0.42875  1.0000
  H   H170      1.0  0.40091  0.48219  0.63677  1.0000
  C   C114      1.0  0.41994  0.31949  0.43490  1.0000
  C   C115      1.0  0.41678  0.55377  0.46109  1.0000
  C   C116      1.0  0.41209  0.44441  0.60340  1.0000
  C   C117      1.0  0.38621  0.48085  0.61936  1.0000
  S   S46       1.0  0.38381  0.51593  0.71946  1.0000
  H   H171      1.0  0.34667  0.35361  0.42613  1.0000
  C   C118      1.0  0.38650  0.53510  0.69054  1.0000
  N   N13       1.0  0.40143  0.47032  0.59634  1.0000
  H   H172      1.0  0.39829  0.54538  0.49987  1.0000
  H   H173      1.0  0.42302  0.53853  0.63170  1.0000
  H   H174      1.0  0.42484  0.43627  0.58690  1.0000
  H   H175      1.0  0.36162  0.45541  0.57889  1.0000
  S   S47       1.0  0.41990  0.39229  0.73376  1.0000
  C   C119      1.0  0.42643  0.48790  0.58880  1.0000
  H   H176      1.0  0.36698  0.46829  0.62544  1.0000
  H   H177      1.0  0.42267  0.33844  0.47249  1.0000
  H   H178      1.0  0.39378  0.43034  0.60830  1.0000
  C   C120      1.0  0.43183  0.54384  0.43960  1.0000
  H   H179      1.0  0.42530  0.55913  0.54136  1.0000
  H   H180      1.0  0.41580  0.38457  0.42396  1.0000
  H   H181      1.0  0.32875  0.32461  0.47114  1.0000
  C   C121      1.0  0.37265  0.55876  0.68899  1.0000
  C   C122      1.0  0.27412  0.55651  0.00123  1.0000
  C   C123      1.0  0.39380  0.35374  0.80071  1.0000
  H   H182      1.0  0.37976  0.33706  0.80578  1.0000
  C   C124      1.0  0.40759  0.36800  0.82065  1.0000
  H   H183      1.0  0.19593  0.32877  0.97442  1.0000
  Fe  Fe22      1.0  0.30137  0.32400  0.87644  1.0000
  C   C125      1.0  0.11587  0.43043  0.94898  1.0000
  H   H184      1.0  0.37564  0.41801  0.79694  1.0000
  H   H185      1.0  0.20250  0.40002  0.98269  1.0000
  C   C126      1.0  0.31903  0.44211  0.83112  1.0000
  S   S48       1.0  0.40030  0.36061  0.85421  1.0000
  H   H186      1.0  0.37305  0.44626  0.85072  1.0000
  H   H187      1.0  0.18127  0.37143  0.99099  1.0000
  Fe  Fe23      1.0  0.36502  0.32975  0.86120  1.0000
  H   H188      1.0  0.31285  0.37591  0.89479  1.0000
  H   H189      1.0  0.24810  0.46854  0.08187  1.0000
  H   H190      1.0  0.18513  0.54171  0.08309  1.0000
  S   S49       1.0  0.26020  0.34480  0.88451  1.0000
  C   C127      1.0  0.24726  0.37617  0.95981  1.0000
  H   H191      1.0  0.32737  0.46261  0.83231  1.0000
  N   N14       1.0  0.21727  0.36551  0.96458  1.0000
  C   C128      1.0  0.39813  0.36109  0.77405  1.0000
  H   H192      1.0  0.25822  0.36572  0.94370  1.0000
  H   H193      1.0  0.23137  0.33383  0.98898  1.0000
  C   C129      1.0  0.43031  0.39681  0.78714  1.0000
  C   C130      1.0  0.29444  0.38831  0.89485  1.0000
  C   C131      1.0  0.26641  0.37807  0.88960  1.0000
  H   H194      1.0  0.15384  0.52320  0.07141  1.0000
  H   H195      1.0  0.24734  0.39701  0.95364  1.0000
  H   H196      1.0  0.21676  0.37671  0.00550  1.0000
  C   C132      1.0  0.20397  0.37892  0.98697  1.0000
  S   S50       1.0  0.32403  0.32898  0.83725  1.0000
  H   H197      1.0  0.30259  0.44112  0.81500  1.0000
  C   C133      1.0  0.19962  0.36938  0.94051  1.0000
  C   C134      1.0  0.41611  0.38279  0.76722  1.0000
  N   N15       1.0  0.34295  0.42430  0.82649  1.0000
  C   C135      1.0  0.35794  0.43149  0.80128  1.0000
  H   H198      1.0  0.18980  0.51146  0.06685  1.0000
  C   C136      1.0  0.36401  0.42610  0.84851  1.0000
  H   H199      1.0  0.38731  0.35007  0.75867  1.0000
  C   C137      1.0  0.19843  0.41815  0.07591  1.0000
  Fe  Fe24      1.0  0.18212  0.45313  0.95271  1.0000
  S   S51       1.0  0.19491  0.47581  0.91591  1.0000
  S   S52       1.0  0.15068  0.41894  0.95494  1.0000
  Fe  Fe25      1.0  0.22034  0.48597  0.98854  1.0000
  S   S53       1.0  0.23737  0.51158  0.95529  1.0000
  S   S54       1.0  0.23329  0.49050  0.03097  1.0000
  Fe  Fe26      1.0  0.19081  0.51045  0.94163  1.0000
  S   S55       1.0  0.16689  0.54631  0.93173  1.0000
  Fe  Fe27      1.0  0.24017  0.47475  0.93264  1.0000
  H   H200      1.0  0.35374  0.41980  0.86767  1.0000
  S   S56       1.0  0.17359  0.48787  0.97690  1.0000
  S   S57       1.0  0.22763  0.44917  0.96738  1.0000
  H   H201      1.0  0.22582  0.54957  0.91110  1.0000
  H   H202      1.0  0.32014  0.42243  0.90554  1.0000
  H   H203      1.0  0.31523  0.39509  0.80842  1.0000
  H   H204      1.0  0.38273  0.41343  0.84532  1.0000
  S   S58       1.0  0.27975  0.46332  0.91010  1.0000
  H   H205      1.0  0.17644  0.36287  0.94372  1.0000
  C   C138      1.0  0.22076  0.46215  0.04788  1.0000
  C   C139      1.0  0.19956  0.44571  0.03643  1.0000
  C   C140      1.0  0.18852  0.42370  0.05036  1.0000
  C   C141      1.0  0.24270  0.39431  0.88988  1.0000
  H   H206      1.0  0.13143  0.46352  0.92557  1.0000
  H   H207      1.0  0.30736  0.43728  0.85005  1.0000
  H   H208      1.0  0.17195  0.41120  0.04145  1.0000
  C   C142      1.0  0.24679  0.42049  0.89623  1.0000
  H   H209      1.0  0.22832  0.43285  0.89656  1.0000
  H   H210      1.0  0.19129  0.45005  0.01694  1.0000
  H   H211      1.0  0.34841  0.38346  0.82211  1.0000
  C   C143      1.0  0.23118  0.45627  0.07320  1.0000
  C   C144      1.0  0.21823  0.33747  0.97090  1.0000
  H   H212      1.0  0.22821  0.32682  0.95436  1.0000
  H   H213      1.0  0.26097  0.37462  0.97784  1.0000
  C   C145      1.0  0.33084  0.39740  0.82507  1.0000
  C   C146      1.0  0.27473  0.43069  0.90171  1.0000
  C   C147      1.0  0.29860  0.41464  0.90084  1.0000
  H   H214      1.0  0.20828  0.35853  0.92353  1.0000
  H   H215      1.0  0.19953  0.39027  0.93446  1.0000
  H   H216      1.0  0.31912  0.39133  0.84363  1.0000
  H   H217      1.0  0.34266  0.43069  0.78423  1.0000
  H   H218      1.0  0.22108  0.38664  0.88527  1.0000
  S   S59       1.0  0.34204  0.32804  0.90059  1.0000
  H   H219      1.0  0.26642  0.53747  0.01005  1.0000
  H   H220      1.0  0.27731  0.55367  0.97962  1.0000
  H   H221      1.0  0.24152  0.56201  0.04500  1.0000
  H   H222      1.0  0.21570  0.55059  0.00361  1.0000
  C   C148      1.0  0.17559  0.52170  0.08087  1.0000
  C   C149      1.0  0.42614  0.38934  0.81382  1.0000
  H   H223      1.0  0.36804  0.45143  0.80177  1.0000
  C   C150      1.0  0.11254  0.45324  0.93403  1.0000
  H   H224      1.0  0.10378  0.54628  0.96809  1.0000
  S   S60       1.0  0.43286  0.46535  0.75457  1.0000
  H   H225      1.0  0.29585  0.56149  0.00985  1.0000
  H   H226      1.0  0.25955  0.69453  0.17974  1.0000
  H   H227      1.0  0.30023  0.66084  0.21750  1.0000
  Fe  Fe28      1.0  0.19379  0.59391  0.16955  1.0000
  S   S61       1.0  0.18529  0.60908  0.12860  1.0000
  Fe  Fe29      1.0  0.22156  0.64509  0.18741  1.0000
  S   S62       1.0  0.21507  0.66485  0.14811  1.0000
  S   S63       1.0  0.23623  0.66423  0.22488  1.0000
  Fe  Fe30      1.0  0.17108  0.64463  0.14868  1.0000
  Fe  Fe31      1.0  0.23025  0.62747  0.13150  1.0000
  S   S64       1.0  0.17611  0.62815  0.18955  1.0000
  S   S65       1.0  0.24025  0.60909  0.17103  1.0000
  H   H228      1.0  0.32695  0.69660  0.26063  1.0000
  C   C151      1.0  0.26408  0.70497  0.19769  1.0000
  H   H229      1.0  0.17444  0.66653  0.23257  1.0000
  C   C152      1.0  0.31012  0.65274  0.23580  1.0000
  H   H230      1.0  0.14549  0.73288  0.23551  1.0000
  H   H231      1.0  0.36938  0.78771  0.19691  1.0000
  H   H232      1.0  0.36229  0.70016  0.24560  1.0000
  H   H233      1.0  0.10924  0.72311  0.22532  1.0000
  H   H234      1.0  0.35242  0.62939  0.26188  1.0000
  C   C153      1.0  0.37377  0.74728  0.39622  1.0000
  C   C154      1.0  0.33988  0.69159  0.24287  1.0000
  S   S66       1.0  0.13091  0.66532  0.13684  1.0000
  C   C155      1.0  0.10184  0.65278  0.15642  1.0000
  H   H235      1.0  0.18437  0.69987  0.23798  1.0000
  C   C156      1.0  0.26063  0.70818  0.24531  1.0000
  H   H236      1.0  0.11103  0.66708  0.24768  1.0000
  H   H237      1.0  0.35866  0.63631  0.21270  1.0000
  Fe  Fe32      1.0  0.37737  0.74169  0.29142  1.0000
  H   H238      1.0  0.30928  0.63126  0.23404  1.0000
  S   S67       1.0  0.38703  0.69997  0.29922  1.0000
  H   H239      1.0  0.12249  0.61700  0.16591  1.0000
  C   C157      1.0  0.37241  0.80874  0.19185  1.0000
  H   H240      1.0  0.25636  0.67779  0.11004  1.0000
  S   S68       1.0  0.32241  0.79585  0.35186  1.0000
  C   C158      1.0  0.35794  0.65757  0.21589  1.0000
  H   H241      1.0  0.37625  0.65744  0.26577  1.0000
  C   C159      1.0  0.11737  0.67175  0.22680  1.0000
  C   C160      1.0  0.28059  0.72850  0.19658  1.0000
  H   H242      1.0  0.38082  0.66526  0.21799  1.0000
  H   H243      1.0  0.34884  0.66659  0.19765  1.0000
  H   H244      1.0  0.34120  0.65602  0.28152  1.0000
  H   H245      1.0  0.29575  0.65757  0.25270  1.0000
  H   H246      1.0  0.25305  0.70036  0.26426  1.0000
  C   C161      1.0  0.35304  0.65090  0.26316  1.0000
  H   H247      1.0  0.36108  0.69712  0.38558  1.0000
  N   N16       1.0  0.34024  0.66320  0.23945  1.0000
  H   H248      1.0  0.33013  0.70150  0.22546  1.0000
  S   S69       1.0  0.34861  0.81032  0.27613  1.0000
  N   N17       1.0  0.39384  0.72551  0.39733  1.0000
  C   C162      1.0  0.25437  0.69470  0.22215  1.0000
  H   H249      1.0  0.12881  0.70305  0.18487  1.0000
  H   H250      1.0  0.39799  0.68827  0.37962  1.0000
  H   H251      1.0  0.40640  0.65551  0.32760  1.0000
  H   H252      1.0  0.16493  0.71387  0.19473  1.0000
  H   H253      1.0  0.37311  0.80359  0.12488  1.0000
  H   H254      1.0  0.12220  0.71350  0.25743  1.0000
  H   H255      1.0  0.37686  0.77838  0.14960  1.0000
  H   H256      1.0  0.12501  0.65358  0.21799  1.0000
  H   H257      1.0  0.16125  0.68201  0.26137  1.0000
  C   C163      1.0  0.41887  0.69516  0.31739  1.0000
  C   C164      1.0  0.14809  0.69786  0.19695  1.0000
  C   C165      1.0  0.38313  0.70485  0.37956  1.0000
  C   C166      1.0  0.12876  0.71666  0.23634  1.0000
  H   H258      1.0  0.32306  0.81197  0.14196  1.0000
  H   H259      1.0  0.38157  0.71216  0.35873  1.0000
  S   S70       1.0  0.39232  0.77616  0.31472  1.0000
  Fe  Fe33      1.0  0.39464  0.79703  0.27517  1.0000
  N   N18       1.0  0.14009  0.69283  0.22501  1.0000
  Fe  Fe34      1.0  0.33774  0.77283  0.25595  1.0000
  S   S71       1.0  0.31084  0.76938  0.21887  1.0000
  S   S72       1.0  0.38405  0.76134  0.25193  1.0000
  H   H260      1.0  0.28862  0.73617  0.17773  1.0000
  H   H261      1.0  0.28129  0.74208  0.26210  1.0000
  C   C167      1.0  0.28754  0.74158  0.21993  1.0000
  C   C168      1.0  0.27702  0.73162  0.24418  1.0000
  Fe  Fe35      1.0  0.34530  0.78656  0.31394  1.0000
  H   H262      1.0  0.15717  0.68047  0.18787  1.0000
  C   C169      1.0  0.16612  0.68506  0.23992  1.0000
  H   H263      1.0  0.32729  0.78602  0.16572  1.0000
  C   C170      1.0  0.10429  0.62902  0.16986  1.0000
  H   H264      1.0  0.37215  0.75564  0.37576  1.0000
  S   S73       1.0  0.33012  0.75022  0.29377  1.0000
  H   H265      1.0  0.35127  0.74097  0.40251  1.0000
  H   H266      1.0  0.40357  0.80475  0.14716  1.0000
  H   H267      1.0  0.42309  0.74270  0.36801  1.0000
  C   C171      1.0  0.37982  0.79964  0.14569  1.0000
  H   H268      1.0  0.17711  0.67806  0.09950  1.0000
  H   H269      1.0  0.38115  0.76333  0.40932  1.0000
  C   C172      1.0  0.42329  0.73484  0.38870  1.0000
  C   C173      1.0  0.42254  0.67112  0.32999  1.0000
  H   H270      1.0  0.43209  0.75051  0.40158  1.0000
  C   C174      1.0  0.33141  0.80721  0.16205  1.0000
  S   S74       1.0  0.25922  0.62363  0.09588  1.0000
  H   H271      1.0  0.16462  0.71016  0.09372  1.0000
  C   C175      1.0  0.26001  0.67668  0.08906  1.0000
  H   H272      1.0  0.40867  0.57316  0.45975  1.0000
  C   C176      1.0  0.41808  0.58358  0.74300  1.0000
  Fe  Fe36      1.0  0.41513  0.67542  0.66737  1.0000
  C   C177      1.0  0.39555  0.56804  0.64634  1.0000
  S   S75       1.0  0.41913  0.67167  0.48095  1.0000
  C   C178      1.0  0.37107  0.73257  0.72651  1.0000
  H   H273      1.0  0.41464  0.59116  0.50532  1.0000
  H   H274      1.0  0.39825  0.69321  0.52943  1.0000
  C   C179      1.0  0.42116  0.68948  0.53170  1.0000
  H   H275      1.0  0.32489  0.79851  0.65527  1.0000
  C   C180      1.0  0.42977  0.74833  0.73046  1.0000
  H   H276      1.0  0.43307  0.64048  0.55548  1.0000
  H   H277      1.0  0.38887  0.78180  0.69552  1.0000
  H   H278      1.0  0.36248  0.80483  0.64615  1.0000
  H   H279      1.0  0.31033  0.79824  0.70323  1.0000
  C   C181      1.0  0.42266  0.57494  0.55575  1.0000
  Fe  Fe37      1.0  0.42184  0.62634  0.63649  1.0000
  H   H280      1.0  0.33575  0.77300  0.70822  1.0000
  H   H281      1.0  0.36750  0.59408  0.66619  1.0000
  C   C182      1.0  0.33356  0.79439  0.70761  1.0000
  H   H282      1.0  0.41747  0.62513  0.51171  1.0000
  S   S76       1.0  0.38033  0.69706  0.68832  1.0000
  H   H283      1.0  0.39952  0.57413  0.56261  1.0000
  H   H284      1.0  0.34833  0.72643  0.72505  1.0000
  S   S77       1.0  0.40324  0.58937  0.61976  1.0000
  S   S78       1.0  0.40995  0.66647  0.62413  1.0000
  C   C183      1.0  0.39191  0.72074  0.71095  1.0000
  H   H285      1.0  0.42300  0.70207  0.57222  1.0000
  H   H286      1.0  0.40396  0.62134  0.57069  1.0000
  H   H287      1.0  0.41330  0.60079  0.73032  1.0000
  S   S79       1.0  0.42270  0.63418  0.67990  1.0000
  H   H288      1.0  0.33808  0.80155  0.72788  1.0000
  C   C184      1.0  0.37760  0.57546  0.66708  1.0000
  C   C185      1.0  0.42131  0.72851  0.71314  1.0000
  H   H289      1.0  0.38860  0.60558  0.52667  1.0000
  H   H290      1.0  0.38890  0.80998  0.71568  1.0000
  C   C186      1.0  0.34781  0.79575  0.66159  1.0000
  H   H291      1.0  0.40337  0.72999  0.43878  1.0000
  C   C187      1.0  0.38406  0.80279  0.69545  1.0000
  H   H292      1.0  0.35144  0.77448  0.66189  1.0000
  C   C188      1.0  0.41205  0.60579  0.52090  1.0000
  H   H293      1.0  0.40311  0.56737  0.73680  1.0000
  C   C189      1.0  0.39525  0.71501  0.42475  1.0000
  H   H294      1.0  0.35877  0.56452  0.70504  1.0000
  C   C190      1.0  0.37953  0.75242  0.74384  1.0000
  H   H295      1.0  0.41024  0.69854  0.42625  1.0000
  N   N19       1.0  0.43086  0.60064  0.54392  1.0000
  H   H296      1.0  0.37348  0.70765  0.43200  1.0000
  C   C191      1.0  0.40889  0.76049  0.74566  1.0000
  C   C192      1.0  0.42700  0.62093  0.56371  1.0000
  N   N20       1.0  0.35350  0.80706  0.68782  1.0000
  H   H297      1.0  0.39979  0.81288  0.68155  1.0000
  H   H298      1.0  0.30986  0.74105  0.86869  1.0000
  Fe  Fe38      1.0  0.23984  0.67362  0.94343  1.0000
  S   S80       1.0  0.19866  0.68788  0.92583  1.0000
  S   S81       1.0  0.26073  0.63886  0.92695  1.0000
  Fe  Fe39      1.0  0.23999  0.71252  0.98766  1.0000
  C   C193      1.0  0.27340  0.68255  0.87471  1.0000
  Fe  Fe40      1.0  0.18297  0.68883  0.96777  1.0000
  S   S82       1.0  0.14261  0.66762  0.98278  1.0000
  H   H299      1.0  0.23718  0.78321  0.85407  1.0000
  S   S83       1.0  0.22273  0.67161  0.98478  1.0000
  S   S84       1.0  0.26133  0.71307  0.94760  1.0000
  N   N21       1.0  0.28474  0.70606  0.86030  1.0000
  H   H300      1.0  0.18347  0.64858  0.06327  1.0000
  H   H301      1.0  0.29127  0.67154  0.88393  1.0000
  H   H302      1.0  0.24449  0.72556  0.86468  1.0000
  Fe  Fe41      1.0  0.21826  0.72747  0.93357  1.0000
  H   H303      1.0  0.25826  0.68753  0.89097  1.0000
  H   H304      1.0  0.13412  0.72242  0.97233  1.0000
  C   C194      1.0  0.29724  0.78582  0.90783  1.0000
  C   C195      1.0  0.18506  0.59684  0.93662  1.0000
  C   C196      1.0  0.20609  0.61724  0.93620  1.0000
  C   C197      1.0  0.23417  0.61345  0.92646  1.0000
  C   C198      1.0  0.24124  0.58902  0.91733  1.0000
  H   H305      1.0  0.16348  0.59993  0.94441  1.0000
  H   H306      1.0  0.20043  0.63579  0.94370  1.0000
  H   H307      1.0  0.41230  0.58811  0.76375  1.0000
  C   C199      1.0  0.26078  0.69943  0.07336  1.0000
  C   C200      1.0  0.18513  0.66560  0.04940  1.0000
  C   C201      1.0  0.26535  0.69809  0.04605  1.0000
  C   C202      1.0  0.30368  0.79477  0.88206  1.0000
  H   H308      1.0  0.22640  0.56639  0.97307  1.0000
  Fe  Fe42      1.0  0.38437  0.80918  0.78390  1.0000
  H   H309      1.0  0.24756  0.70809  0.83458  1.0000
  H   H310      1.0  0.27105  0.58580  0.04444  1.0000
  H   H311      1.0  0.20117  0.70243  0.08462  1.0000
  H   H312      1.0  0.31402  0.78633  0.92283  1.0000
  H   H313      1.0  0.12833  0.67246  0.04079  1.0000
  H   H314      1.0  0.12291  0.69468  0.06707  1.0000
  H   H315      1.0  0.15900  0.72638  0.04687  1.0000
  C   C203      1.0  0.19221  0.57237  0.92787  1.0000
  H   H316      1.0  0.26773  0.73839  0.83857  1.0000
  C   C204      1.0  0.26932  0.77552  0.91412  1.0000
  C   C205      1.0  0.26417  0.65268  0.07750  1.0000
  C   C206      1.0  0.26009  0.72012  0.84896  1.0000
  H   H317      1.0  0.20818  0.58431  0.99764  1.0000
  H   H318      1.0  0.26293  0.58595  0.90982  1.0000
  C   C207      1.0  0.30098  0.72303  0.87881  1.0000
  H   H319      1.0  0.24841  0.61738  0.99636  1.0000
  C   C208      1.0  0.13670  0.67874  0.06043  1.0000
  H   H320      1.0  0.32333  0.68800  0.84670  1.0000
  H   H321      1.0  0.27539  0.63340  0.04176  1.0000
  S   S85       1.0  0.21445  0.75756  0.90114  1.0000
  S   S86       1.0  0.26015  0.72540  0.02581  1.0000
  H   H322      1.0  0.31962  0.71306  0.88797  1.0000
  H   H323      1.0  0.29295  0.68582  0.82439  1.0000
  C   C209      1.0  0.27149  0.67436  0.03481  1.0000
  H   H324      1.0  0.27637  0.67348  0.01390  1.0000
  H   H325      1.0  0.28667  0.72908  0.89518  1.0000
  C   C210      1.0  0.30447  0.69863  0.83878  1.0000
  C   C211      1.0  0.11185  0.68650  0.98427  1.0000
  H   H326      1.0  0.26699  0.59956  0.97185  1.0000
  S   S87       1.0  0.19845  0.72999  0.97414  1.0000
  H   H327      1.0  0.26108  0.66912  0.86146  1.0000
  H   H328      1.0  0.31341  0.71603  0.82760  1.0000
  C   C212      1.0  0.27105  0.65170  0.05057  1.0000
  H   H329      1.0  0.23447  0.59580  0.03953  1.0000
  H   H330      1.0  0.25675  0.71790  0.08219  1.0000
  H   H331      1.0  0.13316  0.66221  0.07473  1.0000
  S   S88       1.0  0.34014  0.79283  0.79584  1.0000
  H   H332      1.0  0.28536  0.60821  0.00180  1.0000
  C   C213      1.0  0.11360  0.71315  0.97840  1.0000
  H   H333      1.0  0.26453  0.76842  0.93399  1.0000
  C   C214      1.0  0.25388  0.78413  0.86913  1.0000
  H   H334      1.0  0.20861  0.67152  0.04745  1.0000
  C   C215      1.0  0.24784  0.77410  0.89462  1.0000
  H   H335      1.0  0.16347  0.70458  0.02016  1.0000
  H   H336      1.0  0.17756  0.65906  0.02963  1.0000
  C   C216      1.0  0.22029  0.56845  0.91811  1.0000
  C   C217      1.0  0.26395  0.60159  0.99358  1.0000
  N   N22       1.0  0.16784  0.68720  0.05885  1.0000
  S   S89       1.0  0.33951  0.80493  0.87411  1.0000
  S   S90       1.0  0.41988  0.78658  0.76560  1.0000
  C   C218      1.0  0.28191  0.79429  0.86276  1.0000
  C   C219      1.0  0.17816  0.69485  0.08534  1.0000
  H   H337      1.0  0.28680  0.80133  0.84286  1.0000
  N   N23       1.0  0.25312  0.57692  0.00617  1.0000
  C   C220      1.0  0.17145  0.70958  0.04025  1.0000
  H   H338      1.0  0.19481  0.71615  0.03817  1.0000
  C   C221      1.0  0.24985  0.58027  0.03502  1.0000
  C   C222      1.0  0.22455  0.56922  0.99474  1.0000
  H   H339      1.0  0.36331  0.76155  0.75557  1.0000
  H   H340      1.0  0.23305  0.88500  0.39138  1.0000
  H   H341      1.0  0.35539  0.85457  0.17288  1.0000
  S   S91       1.0  0.41005  0.90388  0.17119  1.0000
  H   H342      1.0  0.25680  0.90555  0.35252  1.0000
  S   S92       1.0  0.24825  0.01858  0.41831  1.0000
  C   C223      1.0  0.19834  0.89649  0.35070  1.0000
  H   H343      1.0  0.20849  0.86037  0.31436  1.0000
  H   H344      1.0  0.20467  0.91376  0.36259  1.0000
  C   C224      1.0  0.39944  0.85537  0.23459  1.0000
  N   N24       1.0  0.36273  0.81456  0.16456  1.0000
  H   H345      1.0  0.38231  0.85008  0.24859  1.0000
  C   C225      1.0  0.24876  0.88890  0.34048  1.0000
  C   C226      1.0  0.39450  0.87382  0.21451  1.0000
  H   H346      1.0  0.34647  0.84182  0.32454  1.0000
  H   H347      1.0  0.39588  0.81430  0.19464  1.0000
  Fe  Fe43      1.0  0.28468  0.92771  0.40756  1.0000
  H   H348      1.0  0.37342  0.88244  0.21292  1.0000
  N   N25       1.0  0.22126  0.87711  0.35136  1.0000
  C   C227      1.0  0.41688  0.88148  0.19678  1.0000
  C   C228      1.0  0.30635  0.83694  0.38127  1.0000
  H   H349      1.0  0.39083  0.84868  0.15974  1.0000
  H   H350      1.0  0.35969  0.81937  0.20669  1.0000
  H   H351      1.0  0.34344  0.88858  0.33422  1.0000
  H   H352      1.0  0.29613  0.82254  0.39451  1.0000
  C   C229      1.0  0.33471  0.84773  0.34183  1.0000
  H   H353      1.0  0.17745  0.88843  0.35936  1.0000
  C   C230      1.0  0.33312  0.87418  0.34741  1.0000
  H   H354      1.0  0.19144  0.84520  0.34316  1.0000
  H   H355      1.0  0.31801  0.81738  0.17675  1.0000
  C   C231      1.0  0.21210  0.85456  0.33539  1.0000
  S   S93       1.0  0.24494  0.94794  0.39379  1.0000
  C   C232      1.0  0.30482  0.86341  0.38687  1.0000
  H   H356      1.0  0.19399  0.90346  0.33018  1.0000
  H   H357      1.0  0.35979  0.84786  0.13840  1.0000
  C   C233      1.0  0.22592  0.86843  0.37900  1.0000
  H   H358      1.0  0.20551  0.85996  0.38817  1.0000
  S   S94       1.0  0.31504  0.91542  0.37533  1.0000
  C   C234      1.0  0.31808  0.88209  0.36987  1.0000
  H   H359      1.0  0.24605  0.89626  0.31984  1.0000
  H   H360      1.0  0.29360  0.86930  0.40443  1.0000
  H   H361      1.0  0.43357  0.92388  0.28651  1.0000
  C   C235      1.0  0.42671  0.84435  0.23686  1.0000
  H   H362      1.0  0.24296  0.85369  0.38040  1.0000
  C   C236      1.0  0.36732  0.84260  0.15864  1.0000
  H   H363      1.0  0.22900  0.83959  0.33565  1.0000
  H   H364      1.0  0.26641  0.87467  0.34032  1.0000
  C   C237      1.0  0.32122  0.82906  0.35870  1.0000
  S   S95       1.0  0.43374  0.82186  0.26230  1.0000
  S   S96       1.0  0.17787  0.90607  0.41782  1.0000
  C   C238      1.0  0.15109  0.92939  0.41920  1.0000
  H   H365      1.0  0.11513  0.90144  0.41677  1.0000
  C   C239      1.0  0.12150  0.92171  0.41882  1.0000
  Fe  Fe44      1.0  0.26990  0.93439  0.46541  1.0000
  S   S97       1.0  0.28337  0.92611  0.50729  1.0000
  S   S98       1.0  0.22905  0.95531  0.45666  1.0000
  S   S99       1.0  0.26041  0.90213  0.43734  1.0000
  C   C240      1.0  0.23330  0.91493  0.57249  1.0000
  C   C241      1.0  0.20504  0.91582  0.56233  1.0000
  H   H366      1.0  0.21887  0.88057  0.72660  1.0000
  H   H367      1.0  0.23984  0.04003  0.53526  1.0000
  H   H368      1.0  0.27649  0.99683  0.51107  1.0000
  C   C242      1.0  0.22176  0.99348  0.55669  1.0000
  H   H369      1.0  0.12562  0.98823  0.68745  1.0000
  C   C243      1.0  0.28029  0.02982  0.46254  1.0000
  C   C244      1.0  0.25622  0.03582  0.44697  1.0000
  H   H370      1.0  0.29335  0.01356  0.45762  1.0000
  H   H371      1.0  0.22049  0.06125  0.44168  1.0000
  C   C245      1.0  0.25393  0.99312  0.51877  1.0000
  C   C246      1.0  0.25328  0.91870  0.52800  1.0000
  C   C247      1.0  0.22498  0.91749  0.51776  1.0000
  Fe  Fe45      1.0  0.22170  0.92506  0.42595  1.0000
  H   H372      1.0  0.22164  0.91793  0.49666  1.0000
  H   H373      1.0  0.23886  0.00357  0.50544  1.0000
  C   C248      1.0  0.25741  0.91636  0.55534  1.0000
  H   H374      1.0  0.27082  0.96706  0.56211  1.0000
  C   C249      1.0  0.20085  0.91619  0.53492  1.0000
  H   H375      1.0  0.21798  0.97201  0.55648  1.0000
  H   H376      1.0  0.29588  0.99382  0.55567  1.0000
  H   H377      1.0  0.27928  0.91660  0.56332  1.0000
  H   H378      1.0  0.17907  0.91627  0.52691  1.0000
  N   N26       1.0  0.25116  0.00121  0.54655  1.0000
  H   H379      1.0  0.21872  0.99971  0.57749  1.0000
  H   H380      1.0  0.24892  0.97199  0.51678  1.0000
  H   H381      1.0  0.23664  0.91340  0.59361  1.0000
  C   C250      1.0  0.28828  0.04563  0.48383  1.0000
  C   C251      1.0  0.27342  0.98853  0.56284  1.0000
  C   C252      1.0  0.34848  0.83520  0.68659  1.0000
  H   H382      1.0  0.20446  0.00228  0.54448  1.0000
  C   C253      1.0  0.25561  0.02968  0.54797  1.0000
  H   H383      1.0  0.25293  0.03657  0.56855  1.0000
  H   H384      1.0  0.27788  0.03610  0.54114  1.0000
  S   S100      1.0  0.17527  0.91910  0.58369  1.0000
  S   S101      1.0  0.28628  0.82852  0.74830  1.0000
  H   H385      1.0  0.27193  0.99408  0.58396  1.0000
  S   S102      1.0  0.29776  0.95836  0.43672  1.0000
  Fe  Fe46      1.0  0.20691  0.98686  0.64644  1.0000
  S   S103      1.0  0.21864  0.96916  0.68555  1.0000
  S   S104      1.0  0.20739  0.02928  0.63618  1.0000
  Fe  Fe47      1.0  0.19172  0.93503  0.62215  1.0000
  S   S105      1.0  0.20142  0.91218  0.65922  1.0000
  Fe  Fe48      1.0  0.17861  0.94378  0.67994  1.0000
  S   S106      1.0  0.14760  0.93863  0.71418  1.0000
  Fe  Fe49      1.0  0.24073  0.93935  0.66172  1.0000
  S   S107      1.0  0.28552  0.92884  0.67486  1.0000
  S   S108      1.0  0.16493  0.96400  0.64267  1.0000
  S   S109      1.0  0.23300  0.95978  0.62293  1.0000
  H   H386      1.0  0.14425  0.99440  0.42588  1.0000
  C   C254      1.0  0.10821  0.96643  0.42430  1.0000
  H   H387      1.0  0.12797  0.92365  0.54089  1.0000
  H   H388      1.0  0.25296  0.84047  0.70191  1.0000
  C   C255      1.0  0.26810  0.85665  0.70540  1.0000
  C   C256      1.0  0.26793  0.87880  0.68880  1.0000
  C   C257      1.0  0.28718  0.89989  0.69350  1.0000
  C   C258      1.0  0.30720  0.89842  0.71425  1.0000
  H   H389      1.0  0.32559  0.83913  0.68098  1.0000
  H   H390      1.0  0.35242  0.84430  0.70609  1.0000
  H   H391      1.0  0.25276  0.87965  0.67250  1.0000
  H   H392      1.0  0.32214  0.91470  0.71796  1.0000
  C   C259      1.0  0.23960  0.05700  0.45320  1.0000
  H   H393      1.0  0.10227  0.94874  0.54386  1.0000
  H   H394      1.0  0.12996  0.91593  0.66503  1.0000
  C   C260      1.0  0.18764  0.04614  0.65958  1.0000
  H   H395      1.0  0.11912  0.04257  0.66226  1.0000
  H   H396      1.0  0.26260  0.05984  0.71121  1.0000
  H   H397      1.0  0.11400  0.01651  0.70421  1.0000
  C   C261      1.0  0.30706  0.87648  0.73106  1.0000
  H   H398      1.0  0.18247  0.01378  0.68704  1.0000
  C   C262      1.0  0.16480  0.04831  0.70285  1.0000
  C   C263      1.0  0.17852  0.03402  0.68338  1.0000
  C   C264      1.0  0.11147  0.02497  0.65152  1.0000
  C   C265      1.0  0.10634  0.99979  0.69220  1.0000
  H   H399      1.0  0.13333  0.95341  0.52217  1.0000
  H   H400      1.0  0.15843  0.03910  0.72154  1.0000
  H   H401      1.0  0.24241  0.04963  0.68269  1.0000
  H   H402      1.0  0.19463  0.90631  0.72048  1.0000
  C   C266      1.0  0.28742  0.85561  0.72675  1.0000
  H   H403      1.0  0.13116  0.01435  0.64586  1.0000
  C   C267      1.0  0.13778  0.97413  0.42398  1.0000
  H   H404      1.0  0.30741  0.04147  0.49540  1.0000
  C   C268      1.0  0.11063  0.92028  0.67617  1.0000
  C   C269      1.0  0.11311  0.93041  0.70155  1.0000
  C   C270      1.0  0.15916  0.95567  0.42136  1.0000
  H   H405      1.0  0.13476  0.93024  0.47944  1.0000
  H   H406      1.0  0.10666  0.90635  0.47222  1.0000
  C   C271      1.0  0.11647  0.93892  0.52955  1.0000
  H   H407      1.0  0.36315  0.84549  0.67191  1.0000
  C   C272      1.0  0.11905  0.91566  0.48863  1.0000
  C   C273      1.0  0.21641  0.90183  0.72850  1.0000
  H   H408      1.0  0.13203  0.90044  0.49845  1.0000
  H   H409      1.0  0.28534  0.05213  0.65384  1.0000
  H   H410      1.0  0.18189  0.96190  0.42085  1.0000
  Fe  Fe50      1.0  0.25579  0.97637  0.42540  1.0000
  H   H411      1.0  0.32161  0.87616  0.74780  1.0000
  H   H412      1.0  0.30721  0.06035  0.68212  1.0000
  H   H413      1.0  0.10086  0.03158  0.63294  1.0000
  H   H414      1.0  0.23299  0.91199  0.71550  1.0000
  H   H415      1.0  0.23581  0.94832  0.74532  1.0000
  H   H416      1.0  0.19698  0.94521  0.74957  1.0000
  C   C274      1.0  0.41207  0.06192  0.99030  1.0000
  H   H417      1.0  0.26642  0.91095  0.75483  1.0000
  H   H418      1.0  0.36044  0.91998  0.89562  1.0000
  S   S110      1.0  0.38364  0.90581  0.80569  1.0000
  H   H419      1.0  0.41370  0.85397  0.89083  1.0000
  H   H420      1.0  0.40362  0.87133  0.86143  1.0000
  C   C275      1.0  0.21812  0.93847  0.75740  1.0000
  N   N27       1.0  0.21956  0.90993  0.75624  1.0000
  H   H421      1.0  0.41243  0.90052  0.92752  1.0000
  C   C276      1.0  0.39238  0.88792  0.92527  1.0000
  S   S111      1.0  0.32547  0.85211  0.81375  1.0000
  Fe  Fe51      1.0  0.37089  0.86382  0.80073  1.0000
  H   H422      1.0  0.35204  0.86448  0.87402  1.0000
  S   S112      1.0  0.39190  0.83079  0.82150  1.0000
  H   H423      1.0  0.39808  0.92403  0.88599  1.0000
  S   S113      1.0  0.36798  0.84375  0.76193  1.0000
  H   H424      1.0  0.25005  0.88040  0.76560  1.0000
  C   C277      1.0  0.24800  0.90183  0.76655  1.0000
  H   H425      1.0  0.41512  0.00232  0.96297  1.0000
  C   C278      1.0  0.19568  0.89760  0.77232  1.0000
  H   H426      1.0  0.36178  0.84819  0.90413  1.0000
  C   C279      1.0  0.37853  0.91061  0.88520  1.0000
  H   H427      1.0  0.25115  0.90741  0.78753  1.0000
  N   N28       1.0  0.38449  0.88496  0.89710  1.0000
  C   C280      1.0  0.42372  0.93379  0.83400  1.0000
  H   H428      1.0  0.40888  0.02301  0.00645  1.0000
  H   H429      1.0  0.42917  0.88604  0.88387  1.0000
  C   C281      1.0  0.41125  0.03489  0.98868  1.0000
  H   H430      1.0  0.33910  0.87574  0.90522  1.0000
  C   C282      1.0  0.35818  0.86766  0.89507  1.0000
  H   H431      1.0  0.37231  0.90896  0.86397  1.0000
  C   C283      1.0  0.40886  0.87356  0.88276  1.0000
  C   C284      1.0  0.41485  0.02323  0.96412  1.0000
  H   H432      1.0  0.22034  0.94534  0.77805  1.0000
  Fe  Fe52      1.0  0.32407  0.82921  0.77653  1.0000
  C   C285      1.0  0.41858  0.03861  0.94114  1.0000
  Fe  Fe53      1.0  0.34621  0.81740  0.83171  1.0000
  H   H433      1.0  0.37465  0.89682  0.93665  1.0000
  S   S114      1.0  0.42877  0.02461  0.91140  1.0000
  H   H434      1.0  0.43397  0.99446  0.03558  1.0000
  H   H435      1.0  0.39671  0.86886  0.93488  1.0000
  H   H436      1.0  0.19731  0.90322  0.79342  1.0000
  H   H437      1.0  0.43057  0.03139  0.06596  1.0000
  C   C286      1.0  0.41790  0.91089  0.82028  1.0000
  H   H438      1.0  0.40782  0.94876  0.83411  1.0000
  H   H439      1.0  0.17394  0.90339  0.76490  1.0000
  H   H440      1.0  0.19611  0.87605  0.77165  1.0000
  Fe  Fe54      1.0  0.53668  0.14675  0.17851  1.0000
  S   S115      1.0  0.56533  0.18264  0.17851  1.0000
  S   S116      1.0  0.55592  0.11034  0.16413  1.0000
  H   H441      1.0  0.64656  0.12297  0.20683  1.0000
  S   S117      1.0  0.50777  0.21350  0.19792  1.0000
  H   H442      1.0  0.45687  0.19206  0.31991  1.0000
  Fe  Fe55      1.0  0.52752  0.20158  0.15977  1.0000
  C   C287      1.0  0.50248  0.22299  0.10536  1.0000
  Fe  Fe56      1.0  0.54295  0.19089  0.21686  1.0000
  S   S118      1.0  0.56531  0.20362  0.25414  1.0000
  H   H443      1.0  0.46723  0.23984  0.32231  1.0000
  S   S119      1.0  0.51725  0.15307  0.21850  1.0000
  Fe  Fe57      1.0  0.70757  0.15872  0.21333  1.0000
  S   S120      1.0  0.70925  0.19939  0.19680  1.0000
  S   S121      1.0  0.68443  0.14747  0.25118  1.0000
  S   S122      1.0  0.75153  0.17776  0.14984  1.0000
  S   S123      1.0  0.75552  0.15302  0.21034  1.0000
  H   H444      1.0  0.44131  0.26475  0.20857  1.0000
  C   C288      1.0  0.48929  0.21606  0.26356  1.0000
  Fe  Fe58      1.0  0.70366  0.18105  0.15724  1.0000
  S   S124      1.0  0.67586  0.19547  0.12396  1.0000
  C   C289      1.0  0.46176  0.19364  0.29833  1.0000
  S   S125      1.0  0.69664  0.14102  0.17446  1.0000
  Fe  Fe59      1.0  0.48344  0.17496  0.19635  1.0000
  H   H445      1.0  0.48723  0.25642  0.29584  1.0000
  Fe  Fe60      1.0  0.74494  0.13865  0.16968  1.0000
  H   H446      1.0  0.52026  0.19153  0.30032  1.0000
  S   S126      1.0  0.50030  0.16485  0.15639  1.0000
  H   H447      1.0  0.47464  0.21684  0.13957  1.0000
  H   H448      1.0  0.52775  0.22568  0.30205  1.0000
  H   H449      1.0  0.70555  0.14785  0.11924  1.0000
  C   C290      1.0  0.47177  0.23983  0.30066  1.0000
  H   H450      1.0  0.75071  0.19942  0.24416  1.0000
  C   C291      1.0  0.59889  0.18876  0.25406  1.0000
  C   C292      1.0  0.60957  0.17710  0.27711  1.0000
  C   C293      1.0  0.63584  0.16406  0.27625  1.0000
  C   C294      1.0  0.65147  0.16310  0.25246  1.0000
  C   C295      1.0  0.64099  0.17514  0.22964  1.0000
  C   C296      1.0  0.61477  0.18794  0.23049  1.0000
  H   H451      1.0  0.59729  0.17764  0.29540  1.0000
  H   H452      1.0  0.64408  0.15479  0.29395  1.0000
  H   H453      1.0  0.65291  0.17442  0.21120  1.0000
  H   H454      1.0  0.60732  0.19786  0.21299  1.0000
  H   H455      1.0  0.49657  0.10819  0.18294  1.0000
  H   H456      1.0  0.65821  0.23155  0.21270  1.0000
  C   C297      1.0  0.50004  0.09116  0.17139  1.0000
  H   H457      1.0  0.45094  0.24385  0.29039  1.0000
  H   H458      1.0  0.46929  0.22017  0.25222  1.0000
  C   C298      1.0  0.51086  0.21009  0.30649  1.0000
  C   C299      1.0  0.52744  0.08717  0.16029  1.0000
  H   H459      1.0  0.44080  0.19681  0.28796  1.0000
  H   H460      1.0  0.50742  0.20906  0.32830  1.0000
  C   C300      1.0  0.47708  0.07284  0.16792  1.0000
  N   N29       1.0  0.66834  0.25410  0.24705  1.0000
  C   C301      1.0  0.64919  0.24739  0.22454  1.0000
  C   C302      1.0  0.67260  0.23070  0.26375  1.0000
  C   C303      1.0  0.65466  0.27401  0.26310  1.0000
  C   C304      1.0  0.69688  0.26437  0.23695  1.0000
  H   H461      1.0  0.62703  0.24071  0.23147  1.0000
  H   H462      1.0  0.73557  0.07229  0.09342  1.0000
  H   H463      1.0  0.64642  0.26431  0.21091  1.0000
  H   H464      1.0  0.68609  0.23529  0.28145  1.0000
  H   H465      1.0  0.65143  0.22195  0.27100  1.0000
  H   H466      1.0  0.68378  0.21545  0.25266  1.0000
  H   H467      1.0  0.66864  0.27948  0.28027  1.0000
  H   H468      1.0  0.63312  0.26679  0.27111  1.0000
  S   S127      1.0  0.74047  0.26188  0.31447  1.0000
  H   H469      1.0  0.69445  0.28136  0.22335  1.0000
  H   H470      1.0  0.70857  0.24944  0.22588  1.0000
  H   H471      1.0  0.71129  0.27078  0.25340  1.0000
  S   S128      1.0  0.53442  0.22674  0.12380  1.0000
  H   H472      1.0  0.65106  0.29195  0.25116  1.0000
  H   H473      1.0  0.46856  0.11346  0.12970  1.0000
  C   C305      1.0  0.60128  0.15027  0.11361  1.0000
  N   N30       1.0  0.58699  0.16706  0.09390  1.0000
  H   H474      1.0  0.45615  0.07564  0.17714  1.0000
  H   H475      1.0  0.62549  0.15276  0.11244  1.0000
  C   C306      1.0  0.74678  0.22678  0.27542  1.0000
  Fe  Fe61      1.0  0.75675  0.19260  0.19112  1.0000
  H   H476      1.0  0.49745  0.19738  0.25644  1.0000
  H   H477      1.0  0.50598  0.23153  0.25822  1.0000
  C   C307      1.0  0.65136  0.07879  0.23449  1.0000
  H   H478      1.0  0.63869  0.08400  0.25230  1.0000
  H   H479      1.0  0.67274  0.08724  0.18547  1.0000
  H   H480      1.0  0.44803  0.22225  0.18798  1.0000
  H   H481      1.0  0.67170  0.09135  0.23424  1.0000
  H   H482      1.0  0.45633  0.10970  0.09638  1.0000
  C   C308      1.0  0.47585  0.21713  0.11818  1.0000
  H   H483      1.0  0.59531  0.12941  0.11065  1.0000
  C   C309      1.0  0.73371  0.07998  0.19712  1.0000
  S   S129      1.0  0.43621  0.17035  0.20803  1.0000
  N   N31       1.0  0.48341  0.21492  0.29231  1.0000
  H   H484      1.0  0.59467  0.15490  0.13413  1.0000
  C   C310      1.0  0.74343  0.07571  0.17132  1.0000
  H   H485      1.0  0.46960  0.17461  0.29182  1.0000
  C   C311      1.0  0.45520  0.12237  0.11389  1.0000
  H   H486      1.0  0.46584  0.14152  0.10841  1.0000
  C   C312      1.0  0.75681  0.21863  0.25084  1.0000
  H   H487      1.0  0.61442  0.11355  0.18860  1.0000
  C   C313      1.0  0.43572  0.22323  0.20619  1.0000
  C   C314      1.0  0.62672  0.10990  0.20717  1.0000
  C   C315      1.0  0.75451  0.25159  0.28431  1.0000
  H   H488      1.0  0.73305  0.21374  0.28755  1.0000
  H   H489      1.0  0.54776  0.14287  0.09303  1.0000
  H   H490      1.0  0.54728  0.16890  0.11622  1.0000
  C   C316      1.0  0.65217  0.07515  0.18697  1.0000
  H   H491      1.0  0.61294  0.11593  0.22399  1.0000
  C   C317      1.0  0.55497  0.16341  0.09630  1.0000
  H   H492      1.0  0.59395  0.06844  0.19301  1.0000
  H   H493      1.0  0.73607  0.09905  0.20543  1.0000
  C   C318      1.0  0.45076  0.21147  0.10332  1.0000
  C   C319      1.0  0.69949  0.15441  0.09972  1.0000
  C   C320      1.0  0.68448  0.17726  0.09625  1.0000
  S   S130      1.0  0.75851  0.10149  0.15189  1.0000
  H   H494      1.0  0.58959  0.20017  0.11911  1.0000
  H   H495      1.0  0.64014  0.07764  0.16806  1.0000
  N   N32       1.0  0.63440  0.08242  0.20995  1.0000
  H   H496      1.0  0.61942  0.19815  0.09642  1.0000
  C   C321      1.0  0.59550  0.19449  0.09868  1.0000
  H   H497      1.0  0.43687  0.13098  0.16338  1.0000
  H   H498      1.0  0.43457  0.16028  0.14387  1.0000
  H   H499      1.0  0.59355  0.07065  0.22836  1.0000
  C   C322      1.0  0.60740  0.06583  0.21115  1.0000
  C   C323      1.0  0.53188  0.06489  0.14569  1.0000
  H   H500      1.0  0.66342  0.31044  0.41931  1.0000
  H   H501      1.0  0.44056  0.31021  0.43725  1.0000
  H   H502      1.0  0.70543  0.24332  0.87158  1.0000
  N   N33       1.0  0.75926  0.21872  0.02710  1.0000
  C   C324      1.0  0.68350  0.06987  0.90301  1.0000
  H   H503      1.0  0.52760  0.09162  0.96967  1.0000
  H   H504      1.0  0.76359  0.24139  0.82025  1.0000
  C   C325      1.0  0.53922  0.08096  0.95410  1.0000
  H   H505      1.0  0.75331  0.17753  0.02185  1.0000
  S   S131      1.0  0.47640  0.18174  0.99998  1.0000
  Fe  Fe62      1.0  0.49406  0.14388  0.01343  1.0000
  S   S132      1.0  0.54046  0.13693  0.02400  1.0000
  H   H506      1.0  0.75278  0.23408  0.06584  1.0000
  S   S133      1.0  0.73353  0.23637  0.94901  1.0000
  S   S134      1.0  0.47068  0.12078  0.98259  1.0000
  Fe  Fe63      1.0  0.66762  0.15700  0.93767  1.0000
  S   S135      1.0  0.67891  0.18120  0.97283  1.0000
  S   S136      1.0  0.62171  0.15105  0.92342  1.0000
  Fe  Fe64      1.0  0.72944  0.14092  0.92960  1.0000
  C   C326      1.0  0.76051  0.19165  0.03711  1.0000
  H   H507      1.0  0.44137  0.22203  0.90148  1.0000
  Fe  Fe65      1.0  0.70651  0.14818  0.98517  1.0000
  S   S137      1.0  0.71137  0.12994  0.02554  1.0000
  Fe  Fe66      1.0  0.71801  0.19455  0.94863  1.0000
  C   C327      1.0  0.73513  0.28755  0.85875  1.0000
  S   S138      1.0  0.69172  0.12280  0.95215  1.0000
  S   S139      1.0  0.70420  0.17338  0.91206  1.0000
  H   H508      1.0  0.54354  0.17565  0.08150  1.0000
  Fe  Fe67      1.0  0.44931  0.15795  0.97189  1.0000
  H   H509      1.0  0.74055  0.30476  0.84575  1.0000
  H   H510      1.0  0.71862  0.12224  0.08095  1.0000
  H   H511      1.0  0.43618  0.28904  0.97592  1.0000
  C   C328      1.0  0.68436  0.17075  0.04871  1.0000
  C   C329      1.0  0.69968  0.14800  0.05235  1.0000
  H   H512      1.0  0.48034  0.21771  0.04161  1.0000
  H   H513      1.0  0.67840  0.17707  0.02906  1.0000
  H   H514      1.0  0.70738  0.07455  0.90339  1.0000
  C   C330      1.0  0.56271  0.14043  0.99582  1.0000
  C   C331      1.0  0.59244  0.13565  0.99773  1.0000
  C   C332      1.0  0.61054  0.13888  0.97545  1.0000
  C   C333      1.0  0.59890  0.14658  0.95112  1.0000
  C   C334      1.0  0.56905  0.15087  0.94905  1.0000
  C   C335      1.0  0.55096  0.14794  0.97145  1.0000
  H   H515      1.0  0.60159  0.12954  0.01641  1.0000
  H   H516      1.0  0.63353  0.13536  0.97713  1.0000
  H   H517      1.0  0.56011  0.15721  0.93033  1.0000
  H   H518      1.0  0.52806  0.15194  0.96992  1.0000
  C   C336      1.0  0.75538  0.07473  0.08066  1.0000
  N   N34       1.0  0.73426  0.26334  0.84355  1.0000
  C   C337      1.0  0.67674  0.18541  0.07070  1.0000
  C   C338      1.0  0.70690  0.13979  0.07790  1.0000
  C   C339      1.0  0.47897  0.21757  0.06292  1.0000
  C   C340      1.0  0.51449  0.10372  0.91902  1.0000
  H   H519      1.0  0.62023  0.16232  0.06441  1.0000
  H   H520      1.0  0.71381  0.29076  0.86848  1.0000
  H   H521      1.0  0.75868  0.06884  0.99182  1.0000
  H   H522      1.0  0.72756  0.24382  0.01013  1.0000
  H   H523      1.0  0.52447  0.22833  0.06782  1.0000
  H   H524      1.0  0.68997  0.26778  0.83098  1.0000
  C   C341      1.0  0.72923  0.22379  0.01848  1.0000
  Fe  Fe68      1.0  0.43511  0.11594  0.01301  1.0000
  H   H525      1.0  0.74344  0.23904  0.87722  1.0000
  C   C342      1.0  0.45254  0.21105  0.07571  1.0000
  H   H526      1.0  0.50270  0.11537  0.93361  1.0000
  H   H527      1.0  0.75194  0.28708  0.87452  1.0000
  C   C343      1.0  0.50390  0.22381  0.07773  1.0000
  H   H528      1.0  0.71335  0.22127  0.03511  1.0000
  C   C344      1.0  0.72677  0.24107  0.86149  1.0000
  H   H529      1.0  0.48085  0.07337  0.95188  1.0000
  N   N35       1.0  0.52122  0.07788  0.93006  1.0000
  S   S140      1.0  0.44493  0.17334  0.93015  1.0000
  H   H530      1.0  0.75562  0.10776  0.96296  1.0000
  H   H531      1.0  0.56001  0.09212  0.94974  1.0000
  S   S141      1.0  0.46023  0.13618  0.04473  1.0000
  H   H532      1.0  0.67235  0.08761  0.90909  1.0000
  H   H533      1.0  0.72558  0.22246  0.85069  1.0000
  H   H534      1.0  0.45537  0.24519  0.98653  1.0000
  S   S142      1.0  0.74667  0.16347  0.96391  1.0000
  H   H535      1.0  0.66517  0.20313  0.06787  1.0000
  Fe  Fe69      1.0  0.44008  0.17195  0.02867  1.0000
  H   H536      1.0  0.72213  0.21034  0.00264  1.0000
  H   H537      1.0  0.58585  0.17239  0.05158  1.0000
  C   C345      1.0  0.75998  0.08932  0.95434  1.0000
  C   C346      1.0  0.76189  0.06727  0.97074  1.0000
  H   H538      1.0  0.50042  0.10211  0.90117  1.0000
  C   C347      1.0  0.59618  0.16008  0.06699  1.0000
  C   C348      1.0  0.71206  0.26507  0.82252  1.0000
  H   H539      1.0  0.53472  0.11511  0.91328  1.0000
  H   H540      1.0  0.75214  0.09149  0.06690  1.0000
  H   H541      1.0  0.71096  0.24722  0.81049  1.0000
  H   H542      1.0  0.74605  0.18811  0.05468  1.0000
  C   C349      1.0  0.76295  0.08732  0.92689  1.0000
  C   C350      1.0  0.76314  0.25976  0.83139  1.0000
  H   H543      1.0  0.58433  0.20782  0.08478  1.0000
  H   H544      1.0  0.58973  0.13957  0.06273  1.0000
  H   H545      1.0  0.71713  0.28180  0.80872  1.0000
  H   H546      1.0  0.67197  0.06913  0.95622  1.0000
  S   S143      1.0  0.75601  0.11400  0.90623  1.0000
  H   H547      1.0  0.45131  0.27688  0.02185  1.0000
  H   H548      1.0  0.55828  0.07392  0.90449  1.0000
  H   H549      1.0  0.76692  0.25727  0.04154  1.0000
  H   H550      1.0  0.67752  0.06609  0.88208  1.0000
  C   C351      1.0  0.76467  0.24191  0.92915  1.0000
  H   H551      1.0  0.76407  0.28349  0.93212  1.0000
  H   H552      1.0  0.64761  0.37907  0.40326  1.0000
  C   C352      1.0  0.45964  0.39637  0.37053  1.0000
  H   H553      1.0  0.43762  0.43508  0.39830  1.0000
  S   S144      1.0  0.43891  0.56288  0.41097  1.0000
  H   H554      1.0  0.46800  0.37651  0.36860  1.0000
  H   H555      1.0  0.72741  0.50947  0.40108  1.0000
  C   C353      1.0  0.65559  0.32781  0.40842  1.0000
  H   H556      1.0  0.71371  0.32281  0.40358  1.0000
  C   C354      1.0  0.43616  0.38455  0.41197  1.0000
  S   S145      1.0  0.76434  0.32603  0.35262  1.0000
  C   C355      1.0  0.70433  0.33983  0.39321  1.0000
  H   H557      1.0  0.47673  0.40834  0.38082  1.0000
  C   C356      1.0  0.66710  0.37168  0.39305  1.0000
  H   H558      1.0  0.45719  0.40477  0.35025  1.0000
  N   N36       1.0  0.67838  0.34884  0.40723  1.0000
  H   H559      1.0  0.68382  0.38792  0.39195  1.0000
  H   H560      1.0  0.64900  0.32165  0.38826  1.0000
  H   H561      1.0  0.69911  0.33401  0.37264  1.0000
  H   H562      1.0  0.66065  0.36694  0.37245  1.0000
  H   H563      1.0  0.72195  0.35527  0.39205  1.0000
  H   H564      1.0  0.44336  0.36425  0.41103  1.0000
  H   H565      1.0  0.54461  0.50714  0.42012  1.0000
  H   H566      1.0  0.63566  0.33414  0.41882  1.0000
  S   S146      1.0  0.60941  0.38180  0.44886  1.0000
  H   H567      1.0  0.73940  0.38749  0.48571  1.0000
  S   S147      1.0  0.49203  0.43778  0.42971  1.0000
  H   H568      1.0  0.61093  0.54756  0.73995  1.0000
  C   C357      1.0  0.64808  0.55897  0.47714  1.0000
  H   H569      1.0  0.55952  0.41868  0.66630  1.0000
  H   H570      1.0  0.55160  0.36792  0.49808  1.0000
  H   H571      1.0  0.44216  0.49016  0.60543  1.0000
  N   N37       1.0  0.73506  0.51778  0.44211  1.0000
  C   C358      1.0  0.55586  0.51636  0.43721  1.0000
  H   H572      1.0  0.52978  0.56224  0.43651  1.0000
  H   H573      1.0  0.58682  0.39008  0.57293  1.0000
  Fe  Fe70      1.0  0.47836  0.47735  0.74180  1.0000
  H   H574      1.0  0.55264  0.40253  0.56198  1.0000
  H   H575      1.0  0.49959  0.50957  0.48110  1.0000
  C   C359      1.0  0.57427  0.39604  0.55515  1.0000
  C   C360      1.0  0.51591  0.50336  0.46638  1.0000
  C   C361      1.0  0.55476  0.35247  0.54904  1.0000
  H   H576      1.0  0.58629  0.41317  0.54614  1.0000
  C   C362      1.0  0.74883  0.38293  0.46680  1.0000
  S   S148      1.0  0.48539  0.39111  0.55662  1.0000
  H   H577      1.0  0.74483  0.38681  0.66150  1.0000
  C   C363      1.0  0.59594  0.45170  0.69198  1.0000
  N   N38       1.0  0.57095  0.37465  0.53618  1.0000
  H   H578      1.0  0.55158  0.33605  0.53527  1.0000
  H   H579      1.0  0.59764  0.43495  0.43695  1.0000
  H   H580      1.0  0.47723  0.38677  0.61325  1.0000
  H   H581      1.0  0.73710  0.51768  0.48464  1.0000
  H   H582      1.0  0.74202  0.48667  0.47008  1.0000
  C   C364      1.0  0.55113  0.43610  0.43224  1.0000
  Fe  Fe71      1.0  0.64914  0.46813  0.48375  1.0000
  S   S149      1.0  0.62086  0.43540  0.50050  1.0000
  H   H583      1.0  0.72279  0.55270  0.42166  1.0000
  Fe  Fe72      1.0  0.69985  0.43374  0.47378  1.0000
  C   C365      1.0  0.48769  0.41419  0.58155  1.0000
  Fe  Fe73      1.0  0.63828  0.41198  0.46766  1.0000
  Fe  Fe74      1.0  0.66098  0.42357  0.52185  1.0000
  S   S150      1.0  0.66259  0.44571  0.44836  1.0000
  S   S151      1.0  0.68839  0.45837  0.50819  1.0000
  H   H584      1.0  0.57579  0.56123  0.73539  1.0000
  C   C366      1.0  0.76569  0.43080  0.61338  1.0000
  C   C367      1.0  0.57697  0.39686  0.44136  1.0000
  H   H585      1.0  0.53265  0.39011  0.51827  1.0000
  C   C368      1.0  0.55071  0.53719  0.47915  1.0000
  H   H586      1.0  0.67831  0.51108  0.51360  1.0000
  H   H587      1.0  0.50357  0.49408  0.44988  1.0000
  H   H588      1.0  0.65163  0.46059  0.55944  1.0000
  H   H589      1.0  0.56547  0.55369  0.47240  1.0000
  H   H590      1.0  0.70643  0.49978  0.47115  1.0000
  Fe  Fe75      1.0  0.46386  0.42623  0.46451  1.0000
  S   S152      1.0  0.63044  0.50756  0.47655  1.0000
  S   S153      1.0  0.67653  0.39797  0.48999  1.0000
  H   H591      1.0  0.50032  0.47897  0.58925  1.0000
  C   C369      1.0  0.44159  0.51853  0.44102  1.0000
  C   C370      1.0  0.51636  0.54521  0.44404  1.0000
  H   H592      1.0  0.71067  0.39726  0.74593  1.0000
  H   H593      1.0  0.54497  0.42552  0.69838  1.0000
  S   S154      1.0  0.75591  0.42044  0.71189  1.0000
  H   H594      1.0  0.50387  0.53716  0.42700  1.0000
  H   H595      1.0  0.75033  0.34197  0.47582  1.0000
  Fe  Fe76      1.0  0.65983  0.45278  0.74420  1.0000
  C   C371      1.0  0.72810  0.43373  0.64657  1.0000
  C   C372      1.0  0.57727  0.42370  0.43688  1.0000
  C   C373      1.0  0.72390  0.40091  0.61323  1.0000
  H   H596      1.0  0.53556  0.54494  0.49405  1.0000
  S   S155      1.0  0.65627  0.40493  0.56215  1.0000
  C   C374      1.0  0.49423  0.44017  0.57488  1.0000
  C   C375      1.0  0.65244  0.53394  0.48734  1.0000
  C   C376      1.0  0.67552  0.52996  0.50472  1.0000
  H   H597      1.0  0.57024  0.53265  0.42940  1.0000
  S   S156      1.0  0.47372  0.44601  0.50253  1.0000
  H   H598      1.0  0.71367  0.54696  0.52330  1.0000
  C   C377      1.0  0.76668  0.52313  0.43824  1.0000
  N   N39       1.0  0.53468  0.52553  0.45670  1.0000
  H   H599      1.0  0.71586  0.44768  0.63418  1.0000
  C   C378      1.0  0.75451  0.40262  0.44785  1.0000
  C   C379      1.0  0.75518  0.35721  0.46126  1.0000
  N   N40       1.0  0.74444  0.41575  0.63019  1.0000
  H   H600      1.0  0.70221  0.37309  0.43423  1.0000
  H   H601      1.0  0.56644  0.34522  0.56681  1.0000
  C   C380      1.0  0.52430  0.39495  0.43773  1.0000
  H   H602      1.0  0.69570  0.53901  0.44419  1.0000
  H   H603      1.0  0.52781  0.43779  0.66902  1.0000
  S   S157      1.0  0.74347  0.43430  0.45343  1.0000
  H   H604      1.0  0.53240  0.48285  0.68529  1.0000
  H   H605      1.0  0.61308  0.35977  0.54512  1.0000
  H   H606      1.0  0.49892  0.44585  0.55459  1.0000
  S   S158      1.0  0.67285  0.43500  0.70605  1.0000
  C   C381      1.0  0.52466  0.42179  0.43309  1.0000
  C   C382      1.0  0.65159  0.45432  0.57999  1.0000
  C   C383      1.0  0.69536  0.55039  0.51042  1.0000
  H   H607      1.0  0.59836  0.35036  0.51348  1.0000
  H   H608      1.0  0.56635  0.40019  0.50234  1.0000
  H   H609      1.0  0.69703  0.33992  0.44520  1.0000
  C   C384      1.0  0.65277  0.42798  0.58670  1.0000
  C   C385      1.0  0.49521  0.45887  0.59455  1.0000
  H   H610      1.0  0.65279  0.39954  0.61850  1.0000
  H   H611      1.0  0.61292  0.38256  0.51810  1.0000
  C   C386      1.0  0.55468  0.38361  0.51272  1.0000
  H   H612      1.0  0.65210  0.43213  0.65373  1.0000
  C   C387      1.0  0.60005  0.36639  0.52787  1.0000
  H   H613      1.0  0.58545  0.45369  0.63988  1.0000
  H   H614      1.0  0.72743  0.55588  0.45675  1.0000
  C   C388      1.0  0.65231  0.41997  0.61332  1.0000
  Fe  Fe77      1.0  0.70200  0.49877  0.73709  1.0000
  Fe  Fe78      1.0  0.71828  0.44596  0.71865  1.0000
  H   H615      1.0  0.53273  0.35799  0.55570  1.0000
  Fe  Fe79      1.0  0.67194  0.47553  0.68955  1.0000
  S   S159      1.0  0.65186  0.48816  0.65125  1.0000
  H   H616      1.0  0.65000  0.49316  0.59481  1.0000
  S   S160      1.0  0.65497  0.49252  0.72662  1.0000
  C   C389      1.0  0.69695  0.55437  0.70464  1.0000
  C   C390      1.0  0.65066  0.47272  0.59999  1.0000
  Fe  Fe80      1.0  0.46703  0.46681  0.68364  1.0000
  S   S161      1.0  0.48821  0.47624  0.64432  1.0000
  S   S162      1.0  0.48522  0.44273  0.71654  1.0000
  S   S163      1.0  0.46403  0.50209  0.70810  1.0000
  C   C391      1.0  0.48890  0.45180  0.62086  1.0000
  H   H617      1.0  0.47762  0.42024  0.64808  1.0000
  C   C392      1.0  0.65201  0.43840  0.63327  1.0000
  C   C393      1.0  0.48237  0.40689  0.60805  1.0000
  H   H618      1.0  0.60758  0.43670  0.68106  1.0000
  C   C394      1.0  0.65148  0.46481  0.62662  1.0000
  H   H619      1.0  0.55305  0.47220  0.64158  1.0000
  H   H620      1.0  0.56462  0.52285  0.48932  1.0000
  N   N41       1.0  0.56806  0.45772  0.67915  1.0000
  H   H621      1.0  0.54824  0.47028  0.71501  1.0000
  H   H622      1.0  0.56723  0.49552  0.69627  1.0000
  C   C395      1.0  0.57373  0.46784  0.65195  1.0000
  H   H623      1.0  0.59255  0.44435  0.71269  1.0000
  H   H624      1.0  0.73538  0.38687  0.60083  1.0000
  C   C396      1.0  0.55334  0.47748  0.69458  1.0000
  C   C397      1.0  0.48260  0.42578  0.62773  1.0000
  H   H625      1.0  0.61073  0.46922  0.69273  1.0000
  C   C398      1.0  0.54927  0.43385  0.67815  1.0000
  C   C399      1.0  0.72997  0.50493  0.46817  1.0000
  H   H626      1.0  0.57036  0.50182  0.44633  1.0000
  H   H627      1.0  0.69286  0.53423  0.70015  1.0000
  H   H628      1.0  0.45321  0.51077  0.42445  1.0000
  S   S164      1.0  0.71886  0.48498  0.69840  1.0000
  H   H629      1.0  0.58754  0.48608  0.65203  1.0000
  H   H630      1.0  0.74298  0.44521  0.65964  1.0000
  H   H631      1.0  0.71209  0.41396  0.59950  1.0000
  H   H632      1.0  0.44152  0.55649  0.70430  1.0000
  H   H633      1.0  0.66719  0.36144  0.44610  1.0000
  S   S165      1.0  0.45693  0.38672  0.48336  1.0000
  C   C400      1.0  0.76008  0.39763  0.64762  1.0000
  H   H634      1.0  0.44490  0.48401  0.46498  1.0000
  C   C401      1.0  0.75511  0.39314  0.73312  1.0000
  H   H635      1.0  0.71207  0.42302  0.65973  1.0000
  H   H636      1.0  0.55137  0.45683  0.42873  1.0000
  Fe  Fe81      1.0  0.46171  0.40762  0.52174  1.0000
  H   H637      1.0  0.70722  0.38970  0.62529  1.0000
  C   C402      1.0  0.76707  0.35105  0.43670  1.0000
  H   H638      1.0  0.75454  0.44466  0.60000  1.0000
  H   H639      1.0  0.55034  0.36163  0.44490  1.0000
  H   H640      1.0  0.52898  0.48806  0.47594  1.0000
  C   C403      1.0  0.71961  0.54241  0.44107  1.0000
  C   C404      1.0  0.73015  0.38624  0.74805  1.0000
  Fe  Fe82      1.0  0.43812  0.43276  0.72624  1.0000
  C   C405      1.0  0.55057  0.38239  0.44134  1.0000
  H   H641      1.0  0.45306  0.39578  0.42299  1.0000
  H   H642      1.0  0.43851  0.48043  0.57153  1.0000
  H   H643      1.0  0.43921  0.53635  0.74982  1.0000
  H   H644      1.0  0.50017  0.55265  0.45821  1.0000
  H   H645      1.0  0.50383  0.38385  0.43842  1.0000
  C   C406      1.0  0.68655  0.35611  0.43440  1.0000
  C   C407      1.0  0.43659  0.50324  0.46392  1.0000
  H   H646      1.0  0.63005  0.56228  0.46391  1.0000
  C   C408      1.0  0.72390  0.50052  0.42111  1.0000
  H   H647      1.0  0.70008  0.49603  0.42359  1.0000
  H   H648      1.0  0.73496  0.48165  0.42157  1.0000
  C   C409      1.0  0.70943  0.56138  0.72881  1.0000
  S   S166      1.0  0.71707  0.53739  0.75257  1.0000
  S   S167      1.0  0.51222  0.49843  0.76592  1.0000
  C   C410      1.0  0.54029  0.45261  0.76790  1.0000
  C   C411      1.0  0.57067  0.49186  0.77090  1.0000
  H   H649      1.0  0.61701  0.48651  0.77228  1.0000
  C   C412      1.0  0.54301  0.47965  0.76905  1.0000
  C   C413      1.0  0.73055  0.36526  0.76618  1.0000
  H   H650      1.0  0.75932  0.39634  0.84023  1.0000
  H   H651      1.0  0.44460  0.41330  0.78199  1.0000
  S   S168      1.0  0.62401  0.43149  0.76669  1.0000
  S   S169      1.0  0.75746  0.32732  0.79454  1.0000
  C   C414      1.0  0.56527  0.43780  0.76814  1.0000
  H   H652      1.0  0.43708  0.40027  0.82918  1.0000
  H   H653      1.0  0.71139  0.36026  0.77805  1.0000
  C   C415      1.0  0.59298  0.45005  0.76910  1.0000
  C   C416      1.0  0.75595  0.35136  0.76955  1.0000
  H   H654      1.0  0.74368  0.43316  0.81238  1.0000
  H   H655      1.0  0.57276  0.51274  0.77206  1.0000
  C   C417      1.0  0.59567  0.47707  0.77071  1.0000
  H   H656      1.0  0.51893  0.44306  0.76698  1.0000
  H   H657      1.0  0.56314  0.41687  0.76713  1.0000
  H   H658      1.0  0.75792  0.41827  0.78358  1.0000
  S   S170      1.0  0.70558  0.46041  0.75849  1.0000
  C   C418      1.0  0.45371  0.55278  0.75645  1.0000
  H   H659      1.0  0.44907  0.55554  0.77781  1.0000
  C   C419      1.0  0.76373  0.43128  0.80020  1.0000
  H   H660      1.0  0.47662  0.54656  0.75471  1.0000
  H   H661      1.0  0.59331  0.56259  0.76712  1.0000
  H   H662      1.0  0.48048  0.72695  0.33891  1.0000
  C   C420      1.0  0.72471  0.73553  0.39666  1.0000
  C   C421      1.0  0.46739  0.68761  0.34984  1.0000
  S   S171      1.0  0.49598  0.68387  0.37233  1.0000
  Fe  Fe83      1.0  0.48290  0.65444  0.40382  1.0000
  C   C422      1.0  0.71959  0.71336  0.41276  1.0000
  H   H663      1.0  0.69444  0.80975  0.20845  1.0000
  H   H664      1.0  0.70819  0.74987  0.39488  1.0000
  H   H665      1.0  0.61159  0.65048  0.40855  1.0000
  H   H666      1.0  0.68587  0.80369  0.24284  1.0000
  C   C423      1.0  0.74093  0.69485  0.41495  1.0000
  C   C424      1.0  0.60566  0.70221  0.40949  1.0000
  C   C425      1.0  0.46435  0.71135  0.33638  1.0000
  C   C426      1.0  0.75149  0.73948  0.38333  1.0000
  S   S172      1.0  0.50020  0.61462  0.40819  1.0000
  C   C427      1.0  0.43988  0.71524  0.32038  1.0000
  H   H667      1.0  0.75559  0.75679  0.37121  1.0000
  C   C428      1.0  0.44664  0.66743  0.34639  1.0000
  H   H668      1.0  0.59292  0.71997  0.41167  1.0000
  H   H669      1.0  0.44923  0.64888  0.35626  1.0000
  H   H670      1.0  0.43731  0.73374  0.31040  1.0000
  H   H671      1.0  0.62920  0.70838  0.40919  1.0000
  H   H672      1.0  0.60036  0.69397  0.38980  1.0000
  S   S173      1.0  0.43654  0.64175  0.41310  1.0000
  H   H673      1.0  0.72329  0.80689  0.23220  1.0000
  H   H674      1.0  0.56137  0.66674  0.41134  1.0000
  H   H675      1.0  0.43901  0.71889  0.38935  1.0000
  Fe  Fe84      1.0  0.70566  0.64056  0.50248  1.0000
  S   S174      1.0  0.66488  0.65567  0.48455  1.0000
  S   S175      1.0  0.71939  0.59917  0.50400  1.0000
  Fe  Fe85      1.0  0.72600  0.69325  0.52180  1.0000
  S   S176      1.0  0.68693  0.71298  0.50614  1.0000
  Fe  Fe86      1.0  0.66184  0.67802  0.52214  1.0000
  S   S177      1.0  0.61843  0.68220  0.54194  1.0000
  Fe  Fe87      1.0  0.69344  0.68922  0.47016  1.0000
  S   S178      1.0  0.70042  0.66027  0.54132  1.0000
  S   S179      1.0  0.73484  0.67219  0.48452  1.0000
  C   C429      1.0  0.59724  0.56408  0.74537  1.0000
  C   C430      1.0  0.60625  0.69498  0.45686  1.0000
  H   H676      1.0  0.53701  0.67061  0.59189  1.0000
  H   H677      1.0  0.61222  0.64536  0.44383  1.0000
  C   C431      1.0  0.61660  0.66003  0.42764  1.0000
  H   H678      1.0  0.65182  0.61057  0.74560  1.0000
  Fe  Fe88      1.0  0.50715  0.62447  0.45059  1.0000
  S   S180      1.0  0.54614  0.60725  0.46942  1.0000
  C   C432      1.0  0.72841  0.71930  0.58372  1.0000
  H   H679      1.0  0.62961  0.70161  0.45771  1.0000
  S   S181      1.0  0.49439  0.66574  0.44511  1.0000
  N   N42       1.0  0.59907  0.68317  0.43114  1.0000
  H   H680      1.0  0.61365  0.69116  0.60673  1.0000
  H   H681      1.0  0.71115  0.71026  0.57220  1.0000
  N   N43       1.0  0.44893  0.57664  0.74061  1.0000
  C   C433      1.0  0.48041  0.67987  0.53768  1.0000
  C   C434      1.0  0.56591  0.71669  0.59330  1.0000
  C   C435      1.0  0.45595  0.57208  0.71254  1.0000
  C   C436      1.0  0.59536  0.65932  0.52670  1.0000
  C   C437      1.0  0.60649  0.63565  0.51946  1.0000
  C   C438      1.0  0.59053  0.61919  0.50278  1.0000
  C   C439      1.0  0.56339  0.62639  0.49331  1.0000
  C   C440      1.0  0.55141  0.64940  0.50172  1.0000
  C   C441      1.0  0.56738  0.66586  0.51862  1.0000
  H   H682      1.0  0.62788  0.63031  0.52611  1.0000
  H   H683      1.0  0.59976  0.60130  0.49649  1.0000
  H   H684      1.0  0.53031  0.65489  0.49460  1.0000
  H   H685      1.0  0.55877  0.68424  0.52416  1.0000
  C   C442      1.0  0.68927  0.57346  0.68619  1.0000
  H   H686      1.0  0.66483  0.59865  0.47457  1.0000
  H   H687      1.0  0.49140  0.59407  0.74781  1.0000
  H   H688      1.0  0.72746  0.78499  0.70107  1.0000
  S   S182      1.0  0.46316  0.61011  0.46445  1.0000
  C   C443      1.0  0.74559  0.73725  0.62522  1.0000
  C   C444      1.0  0.63995  0.59207  0.75141  1.0000
  H   H689      1.0  0.54346  0.71789  0.58513  1.0000
  H   H690      1.0  0.50329  0.67602  0.53996  1.0000
  H   H691      1.0  0.67942  0.56784  0.66762  1.0000
  H   H692      1.0  0.74423  0.74326  0.49120  1.0000
  C   C445      1.0  0.46630  0.67430  0.51384  1.0000
  H   H693      1.0  0.52473  0.70194  0.62801  1.0000
  C   C446      1.0  0.56774  0.67543  0.43059  1.0000
  H   H694      1.0  0.74099  0.77320  0.47294  1.0000
  S   S183      1.0  0.76345  0.71549  0.53990  1.0000
  H   H695      1.0  0.47650  0.59765  0.55244  1.0000
  C   C447      1.0  0.54737  0.69931  0.63503  1.0000
  N   N44       1.0  0.74693  0.64526  0.61789  1.0000
  H   H696      1.0  0.46555  0.58581  0.52057  1.0000
  H   H697      1.0  0.57172  0.73566  0.60239  1.0000
  H   H698      1.0  0.75187  0.74467  0.71279  1.0000
  H   H699      1.0  0.65434  0.57591  0.74658  1.0000
  S   S184      1.0  0.68703  0.70950  0.43097  1.0000
  H   H700      1.0  0.59565  0.58838  0.69772  1.0000
  C   C448      1.0  0.66772  0.57960  0.48321  1.0000
  H   H701      1.0  0.55399  0.71687  0.64637  1.0000
  C   C449      1.0  0.43677  0.67933  0.51068  1.0000
  H   H702      1.0  0.59290  0.71209  0.46062  1.0000
  H   H703      1.0  0.60443  0.71227  0.63324  1.0000
  H   H704      1.0  0.47830  0.66596  0.49802  1.0000
  H   H705      1.0  0.58099  0.71413  0.57629  1.0000
  Fe  Fe89      1.0  0.69650  0.69504  0.73495  1.0000
  C   C450      1.0  0.76701  0.66772  0.62294  1.0000
  S   S185      1.0  0.68306  0.73158  0.71449  1.0000
  Fe  Fe90      1.0  0.68357  0.66251  0.68722  1.0000
  S   S186      1.0  0.66933  0.69603  0.66230  1.0000
  S   S187      1.0  0.68117  0.62311  0.66973  1.0000
  Fe  Fe91      1.0  0.70788  0.71734  0.67979  1.0000
  H   H706      1.0  0.53950  0.71939  0.70819  1.0000
  Fe  Fe92      1.0  0.64594  0.70695  0.69905  1.0000
  S   S188      1.0  0.60062  0.72094  0.69651  1.0000
  S   S189      1.0  0.65689  0.67154  0.72278  1.0000
  H   H707      1.0  0.59979  0.67786  0.63771  1.0000
  C   C451      1.0  0.59773  0.69404  0.62303  1.0000
  C   C452      1.0  0.46792  0.59814  0.75039  1.0000
  Fe  Fe93      1.0  0.45503  0.60275  0.42167  1.0000
  C   C453      1.0  0.74910  0.62593  0.63973  1.0000
  H   H708      1.0  0.71318  0.78596  0.73414  1.0000
  Fe  Fe94      1.0  0.46992  0.64493  0.67320  1.0000
  S   S190      1.0  0.50632  0.62915  0.69762  1.0000
  N   N45       1.0  0.56763  0.69511  0.61284  1.0000
  C   C454      1.0  0.55953  0.67038  0.59997  1.0000
  S   S191      1.0  0.46975  0.63377  0.63076  1.0000
  C   C455      1.0  0.75647  0.75266  0.73264  1.0000
  H   H709      1.0  0.62760  0.60901  0.70230  1.0000
  H   H710      1.0  0.71401  0.66823  0.59982  1.0000
  C   C456      1.0  0.46173  0.60102  0.53538  1.0000
  H   H711      1.0  0.73960  0.61677  0.58785  1.0000
  C   C457      1.0  0.57510  0.69496  0.69915  1.0000
  C   C458      1.0  0.58334  0.66959  0.69442  1.0000
  C   C459      1.0  0.56226  0.64917  0.69474  1.0000
  C   C460      1.0  0.53302  0.65411  0.69986  1.0000
  C   C461      1.0  0.52491  0.67936  0.70497  1.0000
  C   C462      1.0  0.54592  0.69979  0.70455  1.0000
  H   H712      1.0  0.60570  0.66589  0.68947  1.0000
  H   H713      1.0  0.56837  0.62980  0.68993  1.0000
  H   H714      1.0  0.50239  0.68323  0.70925  1.0000
  H   H715      1.0  0.74361  0.63443  0.65915  1.0000
  C   C463      1.0  0.69339  0.59967  0.69209  1.0000
  C   C464      1.0  0.70609  0.60684  0.71613  1.0000
  C   C465      1.0  0.71433  0.58766  0.73443  1.0000
  H   H716      1.0  0.54649  0.68250  0.64911  1.0000
  H   H717      1.0  0.70927  0.62711  0.72084  1.0000
  H   H718      1.0  0.57112  0.60897  0.73564  1.0000
  H   H719      1.0  0.43754  0.71954  0.70131  1.0000
  H   H720      1.0  0.56211  0.66077  0.44642  1.0000
  H   H721      1.0  0.57448  0.66661  0.58319  1.0000
  H   H722      1.0  0.73363  0.60901  0.63696  1.0000
  C   C466      1.0  0.72343  0.72518  0.61036  1.0000
  H   H723      1.0  0.64041  0.66526  0.42776  1.0000
  H   H724      1.0  0.70079  0.63751  0.61330  1.0000
  H   H725      1.0  0.55382  0.69235  0.43356  1.0000
  Fe  Fe95      1.0  0.45821  0.67474  0.62220  1.0000
  S   S192      1.0  0.48249  0.69512  0.58884  1.0000
  C   C467      1.0  0.69178  0.57515  0.49941  1.0000
  C   C468      1.0  0.75575  0.72499  0.57218  1.0000
  S   S193      1.0  0.74047  0.74406  0.65874  1.0000
  S   S194      1.0  0.72456  0.68261  0.70141  1.0000
  S   S195      1.0  0.46281  0.68701  0.66426  1.0000
  H   H726      1.0  0.56033  0.65367  0.61418  1.0000
  H   H727      1.0  0.70231  0.72083  0.61920  1.0000
  H   H728      1.0  0.60295  0.62993  0.73936  1.0000
  N   N46       1.0  0.61162  0.58929  0.73771  1.0000
  H   H729      1.0  0.43626  0.57064  0.57340  1.0000
  H   H730      1.0  0.45329  0.58980  0.70005  1.0000
  C   C469      1.0  0.46479  0.68974  0.55877  1.0000
  H   H731      1.0  0.60230  0.68089  0.47357  1.0000
  C   C470      1.0  0.71670  0.65404  0.61636  1.0000
  H   H732      1.0  0.46405  0.61659  0.73932  1.0000
  H   H733      1.0  0.46854  0.62009  0.52616  1.0000
  Fe  Fe96      1.0  0.44924  0.65034  0.45486  1.0000
  C   C471      1.0  0.75480  0.63341  0.59256  1.0000
  C   C472      1.0  0.61652  0.59032  0.70876  1.0000
  H   H734      1.0  0.71027  0.66355  0.63492  1.0000
  H   H735      1.0  0.63059  0.57447  0.70236  1.0000
  H   H736      1.0  0.73685  0.67745  0.42686  1.0000
  C   C473      1.0  0.59289  0.61065  0.74529  1.0000
  H   H737      1.0  0.73833  0.74578  0.74601  1.0000
  H   H738      1.0  0.47892  0.56633  0.71003  1.0000
  H   H739      1.0  0.73968  0.74294  0.45597  1.0000
  H   H740      1.0  0.44080  0.61773  0.58141  1.0000
  N   N47       1.0  0.75946  0.78124  0.73175  1.0000
  H   H741      1.0  0.75956  0.67560  0.75053  1.0000
  C   C474      1.0  0.75045  0.75369  0.47238  1.0000
  H   H742      1.0  0.76676  0.68220  0.60636  1.0000
  C   C475      1.0  0.73224  0.79197  0.72142  1.0000
  H   H743      1.0  0.45253  0.75450  0.73182  1.0000
  H   H744      1.0  0.75383  0.64769  0.57576  1.0000
  H   H745      1.0  0.76082  0.67793  0.64126  1.0000
  C   C476      1.0  0.43511  0.69442  0.55589  1.0000
  H   H746      1.0  0.72386  0.59316  0.75317  1.0000
  H   H747      1.0  0.73364  0.81355  0.72049  1.0000
  S   S196      1.0  0.71084  0.69734  0.77728  1.0000
  C   C477      1.0  0.74844  0.70377  0.77939  1.0000
  H   H748      1.0  0.63719  0.59189  0.77330  1.0000
  H   H749      1.0  0.46396  0.60165  0.77173  1.0000
  H   H750      1.0  0.58918  0.61080  0.76707  1.0000
  H   H751      1.0  0.74417  0.73332  0.80853  1.0000
  C   C478      1.0  0.75910  0.72330  0.79603  1.0000
  C   C479      1.0  0.76503  0.79077  0.75877  1.0000
  H   H752      1.0  0.74676  0.78507  0.77252  1.0000
  N   N48       1.0  0.62043  0.93359  0.10919  1.0000
  H   H753      1.0  0.72502  0.01138  0.16761  1.0000
  S   S197      1.0  0.45393  0.95620  0.12572  1.0000
  Fe  Fe97      1.0  0.50447  0.95138  0.18678  1.0000
  S   S198      1.0  0.51499  0.97879  0.15301  1.0000
  S   S199      1.0  0.53443  0.94938  0.22164  1.0000
  Fe  Fe98      1.0  0.46759  0.98741  0.15379  1.0000
  H   H754      1.0  0.71860  0.91373  0.10304  1.0000
  Fe  Fe99      1.0  0.50096  0.94577  0.12747  1.0000
  H   H755      1.0  0.58977  0.95593  0.13052  1.0000
  S   S200      1.0  0.45816  0.96306  0.19030  1.0000
  S   S201      1.0  0.49482  0.91723  0.16115  1.0000
  Fe  Fe100     1.0  0.68414  0.92071  0.18290  1.0000
  S   S202      1.0  0.70672  0.93146  0.22057  1.0000
  S   S203      1.0  0.64512  0.89354  0.18070  1.0000
  Fe  Fe101     1.0  0.72689  0.95170  0.14798  1.0000
  Fe  Fe102     1.0  0.71115  0.97133  0.20170  1.0000
  H   H756      1.0  0.44373  0.87856  0.27676  1.0000
  S   S204      1.0  0.72437  0.91005  0.16127  1.0000
  S   S205      1.0  0.68430  0.96119  0.16632  1.0000
  H   H757      1.0  0.51254  0.93681  0.27422  1.0000
  C   C480      1.0  0.72154  0.05938  0.21254  1.0000
  C   C481      1.0  0.71847  0.03454  0.20204  1.0000
  C   C482      1.0  0.72771  0.03037  0.17607  1.0000
  H   H758      1.0  0.75161  0.91471  0.25833  1.0000
  C   C483      1.0  0.56532  0.93289  0.21212  1.0000
  C   C484      1.0  0.56215  0.90958  0.19856  1.0000
  C   C485      1.0  0.58682  0.89709  0.18967  1.0000
  C   C486      1.0  0.61467  0.90807  0.19404  1.0000
  C   C487      1.0  0.61793  0.93117  0.20796  1.0000
  C   C488      1.0  0.59323  0.94344  0.21725  1.0000
  H   H759      1.0  0.54069  0.90104  0.19510  1.0000
  H   H760      1.0  0.58424  0.87917  0.17900  1.0000
  H   H761      1.0  0.63943  0.93976  0.21140  1.0000
  H   H762      1.0  0.59574  0.96148  0.22773  1.0000
  N   N49       1.0  0.70102  0.84272  0.23334  1.0000
  H   H763      1.0  0.74396  0.84939  0.21649  1.0000
  H   H764      1.0  0.62613  0.97035  0.12829  1.0000
  H   H765      1.0  0.49046  0.98892  0.08736  1.0000
  C   C489      1.0  0.65181  0.92808  0.11004  1.0000
  H   H766      1.0  0.47393  0.93670  0.23975  1.0000
  H   H767      1.0  0.74571  0.02486  0.09737  1.0000
  H   H768      1.0  0.46130  0.87577  0.18512  1.0000
  H   H769      1.0  0.65789  0.91474  0.09405  1.0000
  H   H770      1.0  0.44262  0.01003  0.09198  1.0000
  H   H771      1.0  0.51214  0.02982  0.13025  1.0000
  H   H772      1.0  0.73310  0.84210  0.26425  1.0000
  C   C490      1.0  0.74048  0.05086  0.16085  1.0000
  H   H773      1.0  0.71444  0.85336  0.19353  1.0000
  H   H774      1.0  0.55301  0.06185  0.13696  1.0000
  C   C491      1.0  0.61340  0.95163  0.13048  1.0000
  H   H775      1.0  0.52019  0.90441  0.26529  1.0000
  C   C492      1.0  0.70113  0.81448  0.22901  1.0000
  C   C493      1.0  0.48143  0.05059  0.15325  1.0000
  C   C494      1.0  0.76224  0.88753  0.28954  1.0000
  C   C495      1.0  0.60290  0.90914  0.11304  1.0000
  C   C496      1.0  0.44415  0.87049  0.19910  1.0000
  H   H776      1.0  0.57908  0.91265  0.11275  1.0000
  H   H777      1.0  0.65540  0.84283  0.24358  1.0000
  H   H778      1.0  0.61850  0.94326  0.15032  1.0000
  H   H779      1.0  0.51210  0.91153  0.29924  1.0000
  S   S206      1.0  0.52933  0.94067  0.09192  1.0000
  S   S207      1.0  0.45238  0.02811  0.14858  1.0000
  H   H780      1.0  0.47025  0.84358  0.22085  1.0000
  H   H781      1.0  0.67063  0.87347  0.23159  1.0000
  C   C497      1.0  0.44911  0.85208  0.21919  1.0000
  C   C498      1.0  0.71039  0.84820  0.26068  1.0000
  H   H782      1.0  0.65796  0.05832  0.23707  1.0000
  H   H783      1.0  0.47225  0.87817  0.30083  1.0000
  H   H784      1.0  0.60775  0.89963  0.13242  1.0000
  S   S208      1.0  0.70272  0.00897  0.22134  1.0000
  H   H785      1.0  0.70986  0.86931  0.26475  1.0000
  H   H786      1.0  0.61238  0.04491  0.21301  1.0000
  H   H787      1.0  0.69605  0.83787  0.27560  1.0000
  S   S209      1.0  0.75420  0.96459  0.18234  1.0000
  H   H788      1.0  0.71494  0.06259  0.23274  1.0000
  Fe  Fe103     1.0  0.74757  0.92372  0.19781  1.0000
  H   H789      1.0  0.65776  0.91877  0.12923  1.0000
  S   S210      1.0  0.73557  0.96871  0.10740  1.0000
  C   C499      1.0  0.50882  0.04668  0.14204  1.0000
  N   N50       1.0  0.47494  0.91063  0.27333  1.0000
  H   H790      1.0  0.65857  0.05454  0.18861  1.0000
  Fe  Fe104     1.0  0.44891  0.93067  0.16221  1.0000
  H   H791      1.0  0.74775  0.89570  0.30384  1.0000
  C   C500      1.0  0.50629  0.91603  0.27834  1.0000
  H   H792      1.0  0.66325  0.84781  0.20895  1.0000
  C   C501      1.0  0.46869  0.91602  0.24512  1.0000
  C   C502      1.0  0.72132  0.85622  0.21441  1.0000
  H   H793      1.0  0.47967  0.86983  0.26720  1.0000
  H   H794      1.0  0.72251  0.87746  0.21769  1.0000
  C   C503      1.0  0.76423  0.89818  0.26375  1.0000
  C   C504      1.0  0.46738  0.88314  0.27983  1.0000
  C   C505      1.0  0.67127  0.85205  0.22925  1.0000
  C   C506      1.0  0.45735  0.92744  0.28995  1.0000
  H   H795      1.0  0.46146  0.92390  0.31140  1.0000
  H   H796      1.0  0.46250  0.94836  0.28549  1.0000
  H   H797      1.0  0.66578  0.94614  0.10757  1.0000
  H   H798      1.0  0.74788  0.04747  0.14096  1.0000
  H   H799      1.0  0.44530  0.91187  0.24038  1.0000
  H   H800      1.0  0.60735  0.89509  0.09724  1.0000
  H   H801      1.0  0.48202  0.90412  0.23189  1.0000
  Fe  Fe105     1.0  0.46973  0.94707  0.95795  1.0000
  S   S211      1.0  0.47723  0.98986  0.96215  1.0000
  H   H802      1.0  0.54283  0.04387  0.91779  1.0000
  Fe  Fe106     1.0  0.49161  0.94748  0.90163  1.0000
  S   S212      1.0  0.50127  0.99041  0.90025  1.0000
  C   C507      1.0  0.46248  0.91881  0.04438  1.0000
  Fe  Fe107     1.0  0.51904  0.98412  0.94090  1.0000
  S   S213      1.0  0.55961  0.00439  0.95508  1.0000
  H   H803      1.0  0.52435  0.06064  0.89180  1.0000
  H   H804      1.0  0.50834  0.01980  0.08029  1.0000
  S   S214      1.0  0.51375  0.94082  0.94044  1.0000
  C   C508      1.0  0.44956  0.93700  0.84844  1.0000
  Fe  Fe108     1.0  0.70543  0.95236  0.92314  1.0000
  S   S215      1.0  0.72311  0.91282  0.92999  1.0000
  S   S216      1.0  0.66689  0.95859  0.89645  1.0000
  C   C509      1.0  0.73183  0.94339  0.03275  1.0000
  H   H805      1.0  0.49809  0.04360  0.94508  1.0000
  H   H806      1.0  0.44881  0.97377  0.06069  1.0000
  H   H807      1.0  0.48990  0.04817  0.04409  1.0000
  S   S217      1.0  0.70582  0.96276  0.96601  1.0000
  C   C510      1.0  0.72212  0.92204  0.08346  1.0000
  C   C511      1.0  0.49617  0.00319  0.07119  1.0000
  H   H808      1.0  0.54049  0.89816  0.90921  1.0000
  H   H809      1.0  0.55991  0.86857  0.90913  1.0000
  S   S218      1.0  0.45052  0.92315  0.99152  1.0000
  C   C512      1.0  0.58860  0.99071  0.93871  1.0000
  C   C513      1.0  0.59027  0.99175  0.91105  1.0000
  C   C514      1.0  0.61450  0.98196  0.89811  1.0000
  C   C515      1.0  0.63653  0.97045  0.91279  1.0000
  C   C516      1.0  0.63393  0.96825  0.94032  1.0000
  C   C517      1.0  0.61032  0.97882  0.95333  1.0000
  H   H810      1.0  0.57329  0.00070  0.89968  1.0000
  H   H811      1.0  0.61626  0.98349  0.87676  1.0000
  H   H812      1.0  0.64965  0.95788  0.95163  1.0000
  H   H813      1.0  0.60864  0.97743  0.97470  1.0000
  H   H814      1.0  0.74205  0.97905  0.05231  1.0000
  H   H815      1.0  0.63697  0.02616  0.93363  1.0000
  C   C518      1.0  0.73546  0.95885  0.05495  1.0000
  H   H816      1.0  0.62396  0.89682  0.87157  1.0000
  C   C519      1.0  0.50806  0.93392  0.06404  1.0000
  H   H817      1.0  0.71477  0.02780  0.91139  1.0000
  C   C520      1.0  0.72310  0.91726  0.03563  1.0000
  C   C521      1.0  0.51897  0.94071  0.03886  1.0000
  Fe  Fe109     1.0  0.45838  0.99250  0.92139  1.0000
  Fe  Fe110     1.0  0.75076  0.97930  0.95783  1.0000
  H   H818      1.0  0.73099  0.06062  0.03499  1.0000
  H   H819      1.0  0.56241  0.93827  0.88780  1.0000
  H   H820      1.0  0.51134  0.99360  0.05756  1.0000
  S   S219      1.0  0.44680  0.95007  0.91905  1.0000
  H   H821      1.0  0.59708  0.93697  0.87116  1.0000
  C   C522      1.0  0.60307  0.88591  0.87627  1.0000
  C   C523      1.0  0.50139  0.93715  0.01652  1.0000
  C   C524      1.0  0.55592  0.88667  0.89761  1.0000
  H   H822      1.0  0.50969  0.94308  0.99724  1.0000
  C   C525      1.0  0.57680  0.92550  0.87647  1.0000
  H   H823      1.0  0.68056  0.03576  0.96139  1.0000
  H   H824      1.0  0.73948  0.02694  0.03694  1.0000
  C   C526      1.0  0.59758  0.90901  0.91698  1.0000
  C   C527      1.0  0.46997  0.91756  0.84864  1.0000
  S   S220      1.0  0.74902  0.97216  0.91406  1.0000
  C   C528      1.0  0.47986  0.92289  0.06682  1.0000
  H   H825      1.0  0.63165  0.05960  0.92559  1.0000
  H   H826      1.0  0.43451  0.87423  0.80883  1.0000
  C   C529      1.0  0.71822  0.90651  0.06105  1.0000
  H   H827      1.0  0.60855  0.86785  0.88726  1.0000
  H   H828      1.0  0.63635  0.03679  0.89957  1.0000
  S   S221      1.0  0.50085  0.92044  0.86878  1.0000
  H   H829      1.0  0.49342  0.02200  0.02133  1.0000
  H   H830      1.0  0.60140  0.89169  0.92978  1.0000
  H   H831      1.0  0.68578  0.00716  0.92466  1.0000
  Fe  Fe111     1.0  0.72736  0.92495  0.97221  1.0000
  H   H832      1.0  0.54444  0.88109  0.87905  1.0000
  C   C530      1.0  0.73559  0.04435  0.04902  1.0000
  H   H833      1.0  0.56519  0.92079  0.85774  1.0000
  H   H834      1.0  0.71158  0.88625  0.06339  1.0000
  H   H835      1.0  0.54074  0.94931  0.03665  1.0000
  C   C531      1.0  0.46482  0.89516  0.83390  1.0000
  H   H836      1.0  0.48064  0.88014  0.83390  1.0000
  H   H837      1.0  0.71554  0.04015  0.06105  1.0000
  H   H838      1.0  0.59294  0.88018  0.85715  1.0000
  H   H839      1.0  0.45367  0.95455  0.85940  1.0000
  C   C532      1.0  0.47313  0.92619  0.01924  1.0000
  S   S222      1.0  0.71843  0.89840  0.00728  1.0000
  H   H840      1.0  0.68405  0.01889  0.89111  1.0000
  H   H841      1.0  0.73596  0.95189  0.01342  1.0000
  C   C533      1.0  0.47856  0.03063  0.03595  1.0000
  H   H842      1.0  0.58412  0.92241  0.92849  1.0000
  C   C534      1.0  0.69069  0.02434  0.91150  1.0000
  N   N51       1.0  0.58333  0.90177  0.89185  1.0000
  H   H843      1.0  0.61919  0.91899  0.91332  1.0000
  N   N52       1.0  0.76092  0.05087  0.06599  1.0000
  C   C535      1.0  0.64370  0.04227  0.91974  1.0000
  N   N53       1.0  0.67556  0.04738  0.92054  1.0000
  C   C536      1.0  0.43867  0.89174  0.81985  1.0000
  H   H844      1.0  0.75888  0.85494  0.96064  1.0000
  C   C537      1.0  0.61353  0.94549  0.08322  1.0000
  C   C538      1.0  0.68434  0.05299  0.94801  1.0000
  C   C539      1.0  0.45023  0.02399  0.07607  1.0000
  H   H845      1.0  0.54490  0.06178  0.96278  1.0000
  N   N54       1.0  0.46987  0.01171  0.05717  1.0000
  C   C540      1.0  0.73072  0.94828  0.08033  1.0000
  H   H846      1.0  0.47961  0.06054  0.91920  1.0000
  C   C541      1.0  0.49379  0.06324  0.93687  1.0000
  H   H847      1.0  0.75536  0.88213  0.82849  1.0000
  H   H848      1.0  0.61820  0.93226  0.06672  1.0000
  H   H849      1.0  0.46824  0.97998  0.03020  1.0000
  Fe  Fe112     1.0  0.76679  0.93333  0.92458  1.0000
  H   H850      1.0  0.70787  0.05863  0.94905  1.0000
  H   H851      1.0  0.75968  0.90980  0.86828  1.0000
  H   H852      1.0  0.44062  0.91037  0.04654  1.0000
  H   H853      1.0  0.45925  0.03734  0.02487  1.0000
  C   C542      1.0  0.45455  0.98901  0.04543  1.0000
  H   H854      1.0  0.59005  0.95009  0.08195  1.0000
  H   H855      1.0  0.62656  0.96387  0.07963  1.0000
  S   S223      1.0  0.76369  0.01526  0.98006  1.0000
  C   C543      1.0  0.76613  0.04307  0.95967  1.0000
  C   C544      1.0  0.76551  0.02929  0.08502  1.0000
  C   C545      1.0  0.53743  0.06348  0.91012  1.0000
  H   H856      1.0  0.47150  0.91728  0.08622  1.0000
  H   H857      1.0  0.46136  0.04067  0.08602  1.0000
  H   H858      1.0  0.84940  0.24248  0.30187  1.0000
  H   H859      1.0  0.80636  0.16780  0.31067  1.0000
  H   H860      1.0  0.87043  0.28180  0.40383  1.0000
  H   H861      1.0  0.80321  0.19989  0.34649  1.0000
  C   C546      1.0  0.05526  0.09328  0.40516  1.0000
  C   C547      1.0  0.95728  0.30181  0.37071  1.0000
  H   H862      1.0  0.79251  0.19135  0.28787  1.0000
  H   H863      1.0  0.85144  0.21935  0.27580  1.0000
  H   H864      1.0  0.96873  0.07768  0.38289  1.0000
  S   S224      1.0  0.99017  0.12924  0.39571  1.0000
  C   C548      1.0  0.83732  0.22628  0.29194  1.0000
  H   H865      1.0  0.95309  0.22284  0.39811  1.0000
  H   H866      1.0  0.95080  0.28821  0.35471  1.0000
  C   C549      1.0  0.91800  0.24046  0.37713  1.0000
  C   C550      1.0  0.89478  0.25719  0.37860  1.0000
  C   C551      1.0  0.88851  0.26901  0.40253  1.0000
  H   H867      1.0  0.98143  0.30168  0.37266  1.0000
  H   H868      1.0  0.09358  0.16680  0.41275  1.0000
  H   H869      1.0  0.82210  0.23085  0.34308  1.0000
  C   C552      1.0  0.98004  0.10216  0.41566  1.0000
  C   C553      1.0  0.93522  0.23578  0.39943  1.0000
  H   H870      1.0  0.87026  0.18691  0.30782  1.0000
  C   C554      1.0  0.97050  0.07885  0.40419  1.0000
  C   C555      1.0  0.81282  0.18421  0.29697  1.0000
  C   C556      1.0  0.81029  0.21534  0.33192  1.0000
  S   S225      1.0  0.87514  0.26414  0.34982  1.0000
  H   H871      1.0  0.85013  0.17888  0.33767  1.0000
  H   H872      1.0  0.86829  0.21012  0.33373  1.0000
  Fe  Fe113     1.0  0.83563  0.28781  0.35544  1.0000
  H   H873      1.0  0.94777  0.29359  0.38951  1.0000
  N   N55       1.0  0.82900  0.20512  0.31096  1.0000
  H   H874      1.0  0.92287  0.23122  0.35867  1.0000
  S   S226      1.0  0.01040  0.20389  0.40804  1.0000
  H   H875      1.0  0.79647  0.27290  0.23185  1.0000
  H   H876      1.0  0.82613  0.17632  0.28073  1.0000
  C   C557      1.0  0.85557  0.19477  0.32304  1.0000
  S   S227      1.0  0.81557  0.30004  0.31716  1.0000
  H   H877      1.0  0.77752  0.28779  0.27482  1.0000
  S   S228      1.0  0.79362  0.27187  0.37300  1.0000
  H   H878      1.0  0.07397  0.10558  0.39743  1.0000
  Fe  Fe114     1.0  0.78879  0.31214  0.38816  1.0000
  C   C558      1.0  0.78282  0.25995  0.24411  1.0000
  N   N56       1.0  0.06409  0.06682  0.41244  1.0000
  H   H879      1.0  0.03809  0.09285  0.38961  1.0000
  S   S229      1.0  0.78691  0.22515  0.20419  1.0000
  C   C559      1.0  0.77241  0.26824  0.26857  1.0000
  H   H880      1.0  0.81778  0.23449  0.28251  1.0000
  H   H881      1.0  0.79028  0.22385  0.32354  1.0000
  C   C560      1.0  0.77490  0.23517  0.23517  1.0000
  H   H882      1.0  0.86302  0.31287  0.23257  1.0000
  Fe  Fe115     1.0  0.77319  0.28717  0.33595  1.0000
  H   H883      1.0  0.77385  0.08012  0.09400  1.0000
  H   H884      1.0  0.09475  0.06502  0.38028  1.0000
  Fe  Fe116     1.0  0.01626  0.17361  0.47879  1.0000
  S   S230      1.0  0.02571  0.21586  0.47045  1.0000
  S   S231      1.0  0.01900  0.15340  0.51834  1.0000
  H   H885      1.0  0.96301  0.19562  0.53169  1.0000
  C   C561      1.0  0.91360  0.27988  0.70155  1.0000
  H   H886      1.0  0.93252  0.06586  0.52109  1.0000
  H   H887      1.0  0.93069  0.27758  0.68718  1.0000
  Fe  Fe117     1.0  0.98588  0.21371  0.44496  1.0000
  S   S232      1.0  0.95236  0.24396  0.45064  1.0000
  S   S233      1.0  0.04335  0.16027  0.44535  1.0000
  S   S234      1.0  0.97425  0.17249  0.45643  1.0000
  C   C562      1.0  0.98245  0.10352  0.44318  1.0000
  N   N57       1.0  0.06919  0.12899  0.70045  1.0000
  H   H888      1.0  0.89474  0.22590  0.55224  1.0000
  S   S235      1.0  0.00137  0.19556  0.73445  1.0000
  H   H889      1.0  0.97643  0.08320  0.48048  1.0000
  H   H890      1.0  0.97056  0.10156  0.52481  1.0000
  H   H891      1.0  0.90153  0.27410  0.44317  1.0000
  C   C563      1.0  0.88705  0.26590  0.69925  1.0000
  H   H892      1.0  0.93901  0.30711  0.72464  1.0000
  C   C564      1.0  0.01877  0.17592  0.54374  1.0000
  C   C565      1.0  0.03164  0.20075  0.54002  1.0000
  H   H893      1.0  0.99406  0.15034  0.57039  1.0000
  H   H894      1.0  0.95055  0.26382  0.51203  1.0000
  H   H895      1.0  0.04319  0.20573  0.52196  1.0000
  H   H896      1.0  0.89944  0.20716  0.52293  1.0000
  C   C566      1.0  0.03791  0.20530  0.72875  1.0000
  H   H897      1.0  0.95624  0.22163  0.57275  1.0000
  C   C567      1.0  0.04338  0.14366  0.69284  1.0000
  C   C568      1.0  0.07546  0.22386  0.69938  1.0000
  C   C569      1.0  0.97459  0.08198  0.45925  1.0000
  C   C570      1.0  0.93894  0.08946  0.56824  1.0000
  C   C571      1.0  0.95768  0.21334  0.52005  1.0000
  H   H898      1.0  0.93719  0.25115  0.57083  1.0000
  H   H899      1.0  0.02780  0.14511  0.70969  1.0000
  H   H900      1.0  0.08187  0.17073  0.53110  1.0000
  H   H901      1.0  0.99388  0.09914  0.71117  1.0000
  H   H902      1.0  0.99061  0.12108  0.45221  1.0000
  C   C572      1.0  0.86443  0.27013  0.71715  1.0000
  H   H903      1.0  0.97862  0.22412  0.51538  1.0000
  S   S236      1.0  0.09325  0.22136  0.42537  1.0000
  C   C573      1.0  0.00189  0.18802  0.58702  1.0000
  H   H904      1.0  0.04599  0.10328  0.42242  1.0000
  H   H905      1.0  0.85168  0.28983  0.75227  1.0000
  H   H906      1.0  0.84373  0.25956  0.71526  1.0000
  C   C574      1.0  0.93044  0.25239  0.51809  1.0000
  C   C575      1.0  0.05991  0.10248  0.70940  1.0000
  C   C576      1.0  0.02971  0.21923  0.55984  1.0000
  H   H907      1.0  0.03944  0.23851  0.55683  1.0000
  H   H908      1.0  0.03128  0.13433  0.67628  1.0000
  C   C577      1.0  0.00432  0.16942  0.56745  1.0000
  H   H909      1.0  0.91594  0.26554  0.52872  1.0000
  C   C578      1.0  0.98138  0.08917  0.53985  1.0000
  C   C579      1.0  0.05921  0.19998  0.74768  1.0000
  Fe  Fe118     1.0  0.92437  0.22055  0.66915  1.0000
  S   S237      1.0  0.93619  0.20524  0.62947  1.0000
  S   S238      1.0  0.88286  0.24138  0.67584  1.0000
  Fe  Fe119     1.0  0.97715  0.19944  0.69612  1.0000
  S   S239      1.0  0.99432  0.18230  0.65918  1.0000
  N   N58       1.0  0.93751  0.22959  0.53469  1.0000
  Fe  Fe120     1.0  0.98152  0.21926  0.63939  1.0000
  S   S240      1.0  0.00948  0.23682  0.60686  1.0000
  Fe  Fe121     1.0  0.94803  0.16937  0.65190  1.0000
  S   S241      1.0  0.94002  0.13035  0.63407  1.0000
  S   S242      1.0  0.96893  0.23807  0.67717  1.0000
  S   S243      1.0  0.93164  0.18294  0.69092  1.0000
  H   H910      1.0  0.94817  0.20701  0.50087  1.0000
  C   C580      1.0  0.89616  0.29990  0.74142  1.0000
  C   C581      1.0  0.97058  0.11333  0.67720  1.0000
  C   C582      1.0  0.08897  0.12756  0.67739  1.0000
  H   H911      1.0  0.98949  0.18312  0.60466  1.0000
  H   H912      1.0  0.04499  0.10286  0.72681  1.0000
  C   C583      1.0  0.95772  0.10694  0.65298  1.0000
  C   C584      1.0  0.01460  0.21294  0.58330  1.0000
  H   H913      1.0  0.94877  0.07656  0.62531  1.0000
  H   H914      1.0  0.97248  0.24928  0.55557  1.0000
  C   C585      1.0  0.98497  0.09444  0.69201  1.0000
  C   C586      1.0  0.86899  0.28711  0.73824  1.0000
  H   H915      1.0  0.09492  0.15104  0.50513  1.0000
  H   H916      1.0  0.96883  0.13263  0.68483  1.0000
  H   H917      1.0  0.07801  0.11756  0.66062  1.0000
  C   C587      1.0  0.04606  0.21746  0.70473  1.0000
  H   H918      1.0  0.04812  0.09177  0.69354  1.0000
  H   H919      1.0  0.02978  0.22192  0.69012  1.0000
  H   H920      1.0  0.91513  0.19692  0.55380  1.0000
  C   C588      1.0  0.91047  0.21422  0.54117  1.0000
  H   H921      1.0  0.06979  0.14544  0.73922  1.0000
  C   C589      1.0  0.95143  0.23835  0.55946  1.0000
  H   H922      1.0  0.91920  0.24645  0.49954  1.0000
  H   H923      1.0  0.08926  0.21030  0.50108  1.0000
  Fe  Fe122     1.0  0.04938  0.20248  0.43465  1.0000
  H   H924      1.0  0.95020  0.10317  0.58199  1.0000
  H   H925      1.0  0.92257  0.07772  0.58019  1.0000
  H   H926      1.0  0.07904  0.07755  0.45110  1.0000
  C   C590      1.0  0.95931  0.08173  0.64361  1.0000
  C   C591      1.0  0.08461  0.14240  0.72215  1.0000
  H   H927      1.0  0.04971  0.16387  0.68638  1.0000
  H   H928      1.0  0.09641  0.14729  0.67020  1.0000
  C   C592      1.0  0.90608  0.26463  0.42477  1.0000
  H   H929      1.0  0.07893  0.09097  0.71538  1.0000
  H   H930      1.0  0.92682  0.10124  0.55361  1.0000
  C   C593      1.0  0.08875  0.20607  0.74217  1.0000
  H   H931      1.0  0.99411  0.10249  0.55294  1.0000
  C   C594      1.0  0.98682  0.06928  0.68243  1.0000
  C   C595      1.0  0.91814  0.29686  0.72258  1.0000
  H   H932      1.0  0.08164  0.23307  0.68064  1.0000
  C   C596      1.0  0.92957  0.24811  0.42319  1.0000
  H   H933      1.0  0.91323  0.23796  0.73828  1.0000
  H   H934      1.0  0.99711  0.07719  0.52917  1.0000
  C   C597      1.0  0.08703  0.06825  0.43289  1.0000
  N   N59       1.0  0.95985  0.07275  0.55506  1.0000
  Fe  Fe123     1.0  0.00222  0.16254  0.42188  1.0000
  H   H935      1.0  0.09375  0.16167  0.71539  1.0000
  H   H936      1.0  0.98778  0.06990  0.58904  1.0000
  H   H937      1.0  0.94054  0.21415  0.73855  1.0000
  C   C598      1.0  0.92264  0.22220  0.75040  1.0000
  C   C599      1.0  0.09686  0.21773  0.71784  1.0000
  H   H938      1.0  0.90532  0.20668  0.75309  1.0000
  N   N60       1.0  0.93351  0.23189  0.77600  1.0000
  H   H939      1.0  0.91671  0.25079  0.81019  1.0000
  S   S244      1.0  0.83103  0.28995  0.80505  1.0000
  H   H940      1.0  0.95391  0.21674  0.81096  1.0000
  C   C600      1.0  0.76769  0.23667  0.04843  1.0000
  H   H941      1.0  0.79023  0.23335  0.05547  1.0000
  H   H942      1.0  0.78468  0.07166  0.03499  1.0000
  H   H943      1.0  0.96575  0.25971  0.78994  1.0000
  H   H944      1.0  0.89972  0.25937  0.77961  1.0000
  H   H945      1.0  0.76909  0.27594  0.81727  1.0000
  H   H946      1.0  0.80243  0.21935  0.01006  1.0000
  H   H947      1.0  0.05294  0.19067  0.76632  1.0000
  C   C601      1.0  0.77482  0.26736  0.92346  1.0000
  Fe  Fe124     1.0  0.83989  0.29403  0.84838  1.0000
  H   H948      1.0  0.96384  0.20144  0.78075  1.0000
  H   H949      1.0  0.89132  0.22832  0.79486  1.0000
  H   H950      1.0  0.78300  0.18683  0.04311  1.0000
  C   C602      1.0  0.77875  0.22111  0.91809  1.0000
  C   C603      1.0  0.94548  0.21018  0.79149  1.0000
  H   H951      1.0  0.77373  0.20958  0.98793  1.0000
  C   C604      1.0  0.80266  0.22579  0.90105  1.0000
  H   H952      1.0  0.77865  0.24292  0.99602  1.0000
  S   S245      1.0  0.84074  0.25655  0.87168  1.0000
  C   C605      1.0  0.95673  0.25210  0.77110  1.0000
  C   C606      1.0  0.81229  0.25125  0.89471  1.0000
  C   C607      1.0  0.79851  0.27204  0.90611  1.0000
  H   H953      1.0  0.80626  0.29171  0.90175  1.0000
  H   H954      1.0  0.81332  0.20964  0.89231  1.0000
  H   H955      1.0  0.78063  0.25908  0.84659  1.0000
  H   H956      1.0  0.92860  0.19446  0.79530  1.0000
  H   H957      1.0  0.77102  0.20139  0.92229  1.0000
  C   C608      1.0  0.77948  0.22282  0.00439  1.0000
  C   C609      1.0  0.90927  0.24301  0.79085  1.0000
  H   H958      1.0  0.97510  0.24443  0.75945  1.0000
  H   H959      1.0  0.94831  0.26890  0.75975  1.0000
  N   N61       1.0  0.08714  0.39607  0.12789  1.0000
  H   H960      1.0  0.99328  0.51243  0.20091  1.0000
  S   S246      1.0  0.81773  0.37575  0.31659  1.0000
  H   H961      1.0  0.92172  0.38772  0.09850  1.0000
  N   N62       1.0  0.00073  0.54928  0.21927  1.0000
  H   H962      1.0  0.90076  0.47802  0.13286  1.0000
  H   H963      1.0  0.91337  0.37093  0.22877  1.0000
  C   C610      1.0  0.87205  0.35702  0.30958  1.0000
  H   H964      1.0  0.91390  0.34177  0.30070  1.0000
  C   C611      1.0  0.99598  0.42242  0.11434  1.0000
  H   H965      1.0  0.86308  0.33876  0.31733  1.0000
  C   C612      1.0  0.90093  0.35880  0.30048  1.0000
  H   H966      1.0  0.99505  0.55445  0.17729  1.0000
  H   H967      1.0  0.90456  0.42252  0.28174  1.0000
  C   C613      1.0  0.85561  0.36404  0.23751  1.0000
  Fe  Fe125     1.0  0.80889  0.33759  0.33721  1.0000
  H   H968      1.0  0.07196  0.38786  0.23258  1.0000
  C   C614      1.0  0.91259  0.38231  0.29015  1.0000
  H   H969      1.0  0.04996  0.39156  0.10232  1.0000
  H   H970      1.0  0.87922  0.38653  0.19405  1.0000
  N   N63       1.0  0.94713  0.32822  0.36515  1.0000
  H   H971      1.0  0.03986  0.53862  0.19930  1.0000
  N   N64       1.0  0.87326  0.35136  0.21731  1.0000
  H   H972      1.0  0.09529  0.47272  0.18811  1.0000
  C   C615      1.0  0.89543  0.40412  0.28908  1.0000
  C   C616      1.0  0.85458  0.37862  0.30773  1.0000
  H   H973      1.0  0.96397  0.52214  0.22175  1.0000
  C   C617      1.0  0.98812  0.52249  0.21953  1.0000
  H   H974      1.0  0.00031  0.55166  0.26170  1.0000
  C   C618      1.0  0.07892  0.42177  0.13723  1.0000
  H   H975      1.0  0.92806  0.52418  0.10060  1.0000
  H   H976      1.0  0.83249  0.36550  0.23130  1.0000
  C   C619      1.0  0.99022  0.41404  0.08869  1.0000
  C   C620      1.0  0.86632  0.40220  0.29763  1.0000
  C   C621      1.0  0.07709  0.40632  0.22277  1.0000
  C   C622      1.0  0.03287  0.54860  0.21747  1.0000
  H   H977      1.0  0.91801  0.34160  0.21125  1.0000
  H   H978      1.0  0.99691  0.51068  0.23614  1.0000
  H   H979      1.0  0.89067  0.51238  0.09973  1.0000
  S   S247      1.0  0.94796  0.38379  0.27708  1.0000
  H   H980      1.0  0.06861  0.43325  0.12117  1.0000
  H   H981      1.0  0.04208  0.53788  0.23465  1.0000
  H   H982      1.0  0.90371  0.31892  0.37956  1.0000
  C   C623      1.0  0.90399  0.35098  0.22601  1.0000
  H   H983      1.0  0.06316  0.41992  0.15409  1.0000
  H   H984      1.0  0.93804  0.48997  0.13443  1.0000
  C   C624      1.0  0.89881  0.55141  0.22201  1.0000
  H   H985      1.0  0.77221  0.41185  0.40905  1.0000
  H   H986      1.0  0.94743  0.36523  0.38398  1.0000
  S   S248      1.0  0.83302  0.32679  0.37404  1.0000
  C   C625      1.0  0.91167  0.54172  0.16903  1.0000
  C   C626      1.0  0.96138  0.33888  0.34075  1.0000
  Fe  Fe126     1.0  0.93791  0.42405  0.18842  1.0000
  S   S249      1.0  0.97705  0.40945  0.20923  1.0000
  Fe  Fe127     1.0  0.92995  0.46745  0.22677  1.0000
  S   S250      1.0  0.96827  0.45660  0.25153  1.0000
  S   S251      1.0  0.90356  0.50114  0.23820  1.0000
  Fe  Fe128     1.0  0.99055  0.45161  0.21246  1.0000
  S   S252      1.0  0.03423  0.47036  0.20201  1.0000
  Fe  Fe129     1.0  0.95119  0.41569  0.24614  1.0000
  H   H987      1.0  0.01620  0.43288  0.11862  1.0000
  S   S253      1.0  0.95354  0.46561  0.18810  1.0000
  S   S254      1.0  0.91069  0.42708  0.22482  1.0000
  C   C627      1.0  0.94794  0.40633  0.12845  1.0000
  C   C628      1.0  0.92274  0.47669  0.12369  1.0000
  H   H988      1.0  0.84888  0.36609  0.18429  1.0000
  H   H989      1.0  0.96812  0.49385  0.09368  1.0000
  C   C629      1.0  0.90314  0.52603  0.21413  1.0000
  C   C630      1.0  0.90872  0.52110  0.18748  1.0000
  C   C631      1.0  0.09019  0.45416  0.19770  1.0000
  C   C632      1.0  0.06073  0.38139  0.11909  1.0000
  H   H990      1.0  0.91065  0.50144  0.18114  1.0000
  H   H991      1.0  0.92980  0.45659  0.12739  1.0000
  H   H992      1.0  0.04436  0.37888  0.13536  1.0000
  C   C633      1.0  0.06191  0.44839  0.20722  1.0000
  H   H993      1.0  0.88552  0.35758  0.17638  1.0000
  H   H994      1.0  0.97919  0.42583  0.15373  1.0000
  C   C634      1.0  0.05555  0.42465  0.22011  1.0000
  H   H995      1.0  0.85558  0.35309  0.25669  1.0000
  H   H996      1.0  0.78320  0.36627  0.39917  1.0000
  C   C635      1.0  0.97484  0.41861  0.13419  1.0000
  S   S255      1.0  0.92038  0.40443  0.15250  1.0000
  C   C636      1.0  0.87158  0.36595  0.19192  1.0000
  H   H997      1.0  0.09830  0.43323  0.14429  1.0000
  H   H998      1.0  0.85291  0.41900  0.29638  1.0000
  H   H999      1.0  0.91696  0.53801  0.14864  1.0000
  H   H1000     1.0  0.89397  0.55525  0.24252  1.0000
  H   H1001     1.0  0.86424  0.38408  0.24143  1.0000
  H   H1002     1.0  0.83864  0.32399  0.20743  1.0000
  C   C637      1.0  0.94247  0.39729  0.10299  1.0000
  H   H1003     1.0  0.03411  0.42042  0.22829  1.0000
  H   H1004     1.0  0.95375  0.35860  0.33556  1.0000
  C   C638      1.0  0.91513  0.32709  0.36162  1.0000
  H   H1005     1.0  0.90614  0.34044  0.24530  1.0000
  N   N65       1.0  0.92230  0.48309  0.09506  1.0000
  H   H1006     1.0  0.97866  0.34625  0.39101  1.0000
  H   H1007     1.0  0.87931  0.46586  0.08970  1.0000
  H   H1008     1.0  0.06607  0.36176  0.11221  1.0000
  C   C639      1.0  0.91277  0.50994  0.09115  1.0000
  H   H1009     1.0  0.98551  0.34056  0.34289  1.0000
  C   C640      1.0  0.99235  0.56219  0.24387  1.0000
  C   C641      1.0  0.86186  0.32446  0.21379  1.0000
  C   C642      1.0  0.77374  0.37086  0.41808  1.0000
  H   H1010     1.0  0.90659  0.34669  0.35763  1.0000
  C   C643      1.0  0.95468  0.34511  0.38760  1.0000
  H   H1011     1.0  0.94410  0.33767  0.40629  1.0000
  H   H1012     1.0  0.95667  0.32632  0.32350  1.0000
  H   H1013     1.0  0.08621  0.37891  0.16715  1.0000
  H   H1014     1.0  0.96818  0.56308  0.24569  1.0000
  H   H1015     1.0  0.87455  0.31439  0.19850  1.0000
  H   H1016     1.0  0.09792  0.40974  0.08837  1.0000
  H   H1017     1.0  0.77136  0.53285  0.41874  1.0000
  H   H1018     1.0  0.90856  0.31455  0.34480  1.0000
  H   H1019     1.0  0.77887  0.50484  0.43897  1.0000
  H   H1020     1.0  0.77848  0.41785  0.60079  1.0000
  H   H1021     1.0  0.79945  0.38386  0.72423  1.0000
  H   H1022     1.0  0.78143  0.44230  0.62563  1.0000
  C   C644      1.0  0.78017  0.37871  0.73588  1.0000
  H   H1023     1.0  0.77188  0.38315  0.63607  1.0000
  H   H1024     1.0  0.77574  0.53598  0.45390  1.0000
  H   H1025     1.0  0.77644  0.40815  0.66011  1.0000
  S   S256      1.0  0.77132  0.31836  0.42905  1.0000
  C   C645      1.0  0.76756  0.39665  0.42371  1.0000
  C   C646      1.0  0.09164  0.54141  0.94971  1.0000
  S   S257      1.0  0.83910  0.35354  0.80076  1.0000
  H   H1026     1.0  0.06108  0.52700  0.99366  1.0000
  S   S258      1.0  0.80863  0.32587  0.85393  1.0000
  C   C647      1.0  0.81373  0.41845  0.79879  1.0000
  Fe  Fe130     1.0  0.80310  0.32422  0.80997  1.0000
  H   H1027     1.0  0.02644  0.52236  0.97754  1.0000
  H   H1028     1.0  0.95944  0.39406  0.06341  1.0000
  C   C648      1.0  0.87399  0.36424  0.90652  1.0000
  C   C649      1.0  0.88730  0.36239  0.93141  1.0000
  Fe  Fe131     1.0  0.84715  0.35252  0.84438  1.0000
  H   H1029     1.0  0.01909  0.40508  0.91644  1.0000
  H   H1030     1.0  0.86722  0.34680  0.89632  1.0000
  H   H1031     1.0  0.97661  0.43207  0.91272  1.0000
  S   S259      1.0  0.87922  0.32085  0.84271  1.0000
  C   C650      1.0  0.96233  0.41412  0.91279  1.0000
  H   H1032     1.0  0.02059  0.53586  0.93095  1.0000
  S   S260      1.0  0.85436  0.39127  0.86328  1.0000
  C   C651      1.0  0.00417  0.38749  0.91657  1.0000
  C   C652      1.0  0.89651  0.38486  0.94462  1.0000
  H   H1033     1.0  0.89095  0.34350  0.94021  1.0000
  H   H1034     1.0  0.95567  0.40970  0.93363  1.0000
  H   H1035     1.0  0.01641  0.37127  0.90832  1.0000
  C   C653      1.0  0.86960  0.38861  0.89493  1.0000
  H   H1036     1.0  0.99956  0.41602  0.87180  1.0000
  S   S261      1.0  0.91582  0.38189  0.97439  1.0000
  H   H1037     1.0  0.99905  0.38245  0.93766  1.0000
  H   H1038     1.0  0.76960  0.45071  0.79132  1.0000
  N   N66       1.0  0.97732  0.39210  0.90137  1.0000
  C   C654      1.0  0.98494  0.39829  0.87345  1.0000
  H   H1039     1.0  0.95157  0.36352  0.92369  1.0000
  H   H1040     1.0  0.08223  0.47995  0.91763  1.0000
  H   H1041     1.0  0.05124  0.54969  0.91248  1.0000
  H   H1042     1.0  0.99636  0.38211  0.86417  1.0000
  H   H1043     1.0  0.90929  0.55738  0.99744  1.0000
  Fe  Fe132     1.0  0.94297  0.41675  0.98675  1.0000
  S   S262      1.0  0.94692  0.45517  0.96521  1.0000
  H   H1044     1.0  0.95239  0.48572  0.06228  1.0000
  Fe  Fe133     1.0  0.98945  0.43177  0.02683  1.0000
  S   S263      1.0  0.99765  0.47119  0.00845  1.0000
  S   S264      1.0  0.01502  0.42216  0.06329  1.0000
  Fe  Fe134     1.0  0.94901  0.47200  0.00572  1.0000
  S   S265      1.0  0.92341  0.50655  0.01633  1.0000
  Fe  Fe135     1.0  0.99501  0.45072  0.96989  1.0000
  S   S266      1.0  0.02553  0.46245  0.93655  1.0000
  S   S267      1.0  0.94071  0.43401  0.02708  1.0000
  H   H1045     1.0  0.04489  0.41675  0.96462  1.0000
  H   H1046     1.0  0.96812  0.35159  0.89424  1.0000
  H   H1047     1.0  0.09385  0.39954  0.97133  1.0000
  C   C655      1.0  0.06355  0.42697  0.95599  1.0000
  S   S268      1.0  0.90424  0.31765  0.76995  1.0000
  C   C656      1.0  0.93212  0.55782  0.00282  1.0000
  C   C657      1.0  0.89140  0.40922  0.93332  1.0000
  C   C658      1.0  0.08466  0.46260  0.92962  1.0000
  C   C659      1.0  0.97417  0.53596  0.01957  1.0000
  C   C660      1.0  0.94468  0.53532  0.01266  1.0000
  H   H1048     1.0  0.04996  0.51591  0.92198  1.0000
  C   C661      1.0  0.79527  0.43897  0.83764  1.0000
  H   H1049     1.0  0.98370  0.51904  0.02823  1.0000
  H   H1050     1.0  0.81348  0.43170  0.84995  1.0000
  H   H1051     1.0  0.05633  0.50275  0.96884  1.0000
  H   H1052     1.0  0.89770  0.42662  0.94372  1.0000
  H   H1053     1.0  0.83254  0.41106  0.81020  1.0000
  H   H1054     1.0  0.94223  0.41854  0.90156  1.0000
  H   H1055     1.0  0.87433  0.42997  0.89968  1.0000
  C   C662      1.0  0.09132  0.41712  0.95967  1.0000
  C   C663      1.0  0.06016  0.44973  0.94100  1.0000
  H   H1056     1.0  0.90083  0.46933  0.05996  1.0000
  H   H1057     1.0  0.80904  0.40469  0.78248  1.0000
  H   H1058     1.0  0.96508  0.40189  0.86150  1.0000
  Fe  Fe136     1.0  0.86780  0.31946  0.79961  1.0000
  H   H1059     1.0  0.93703  0.37169  0.89187  1.0000
  N   N67       1.0  0.05970  0.54201  0.95368  1.0000
  C   C664      1.0  0.99129  0.55881  0.01587  1.0000
  H   H1060     1.0  0.80223  0.45855  0.82977  1.0000
  S   S269      1.0  0.99109  0.41097  0.98849  1.0000
  C   C665      1.0  0.95773  0.36867  0.90281  1.0000
  C   C666      1.0  0.87801  0.41109  0.90847  1.0000
  H   H1061     1.0  0.79666  0.38709  0.83967  1.0000
  H   H1062     1.0  0.91164  0.51530  0.06974  1.0000
  H   H1063     1.0  0.01408  0.55925  0.02133  1.0000
  N   N68       1.0  0.78792  0.42101  0.81601  1.0000
  C   C667      1.0  0.04473  0.53565  0.92864  1.0000
  H   H1064     1.0  0.77630  0.44129  0.85106  1.0000
  C   C668      1.0  0.05051  0.52272  0.97438  1.0000
  H   H1065     1.0  0.82085  0.43739  0.78952  1.0000
  C   C669      1.0  0.77899  0.39530  0.82742  1.0000
  H   H1066     1.0  0.77374  0.38115  0.81167  1.0000
  C   C670      1.0  0.78063  0.35793  0.75416  1.0000
  H   H1067     1.0  0.80007  0.34688  0.75619  1.0000
  C   C671      1.0  0.90183  0.46489  0.08163  1.0000
  H   H1068     1.0  0.09846  0.52191  0.94358  1.0000
  C   C672      1.0  0.96367  0.40110  0.08310  1.0000
  H   H1069     1.0  0.90858  0.44445  0.08404  1.0000
  C   C673      1.0  0.95188  0.48078  0.08382  1.0000
  H   H1070     1.0  0.95947  0.46062  0.08607  1.0000
  H   H1071     1.0  0.09944  0.55556  0.93405  1.0000
  C   C674      1.0  0.87307  0.70300  0.35722  1.0000
  Fe  Fe137     1.0  0.93284  0.65998  0.22839  1.0000
  S   S270      1.0  0.97503  0.68173  0.21883  1.0000
  C   C675      1.0  0.90512  0.67307  0.33701  1.0000
  Fe  Fe138     1.0  0.93582  0.62611  0.18005  1.0000
  S   S271      1.0  0.97782  0.64522  0.16618  1.0000
  S   S272      1.0  0.91799  0.59320  0.15566  1.0000
  Fe  Fe139     1.0  0.99104  0.64269  0.20858  1.0000
  S   S273      1.0  0.03414  0.62618  0.21821  1.0000
  Fe  Fe140     1.0  0.95758  0.68218  0.17745  1.0000
  S   S274      1.0  0.95060  0.62067  0.22197  1.0000
  S   S275      1.0  0.91407  0.66338  0.18760  1.0000
  S   S276      1.0  0.90410  0.66811  0.26310  1.0000
  H   H1072     1.0  0.91872  0.75722  0.14630  1.0000
  H   H1073     1.0  0.85953  0.68651  0.36576  1.0000
  C   C676      1.0  0.89922  0.70135  0.26690  1.0000
  C   C677      1.0  0.05915  0.63577  0.19334  1.0000
  C   C678      1.0  0.90315  0.69295  0.09690  1.0000
  H   H1074     1.0  0.03704  0.67048  0.18226  1.0000
  H   H1075     1.0  0.91630  0.63703  0.10574  1.0000
  S   S277      1.0  0.80991  0.80279  0.37659  1.0000
  C   C679      1.0  0.05570  0.65880  0.17873  1.0000
  H   H1076     1.0  0.89381  0.67607  0.31786  1.0000
  C   C680      1.0  0.07719  0.66741  0.16039  1.0000
  H   H1077     1.0  0.78388  0.68416  0.40302  1.0000
  C   C681      1.0  0.89975  0.78070  0.20615  1.0000
  H   H1078     1.0  0.89837  0.59159  0.20984  1.0000
  H   H1079     1.0  0.87103  0.71959  0.37076  1.0000
  C   C682      1.0  0.08326  0.62074  0.18865  1.0000
  H   H1080     1.0  0.90650  0.69263  0.13931  1.0000
  H   H1081     1.0  0.94147  0.71317  0.25132  1.0000
  C   C683      1.0  0.91682  0.69066  0.37978  1.0000
  H   H1082     1.0  0.95077  0.62804  0.11865  1.0000
  C   C684      1.0  0.91708  0.69837  0.12091  1.0000
  H   H1083     1.0  0.94246  0.77076  0.17081  1.0000
  N   N69       1.0  0.90383  0.69624  0.35366  1.0000
  H   H1084     1.0  0.92863  0.73623  0.20271  1.0000
  H   H1085     1.0  0.85631  0.69572  0.28411  1.0000
  H   H1086     1.0  0.90464  0.67445  0.39032  1.0000
  H   H1087     1.0  0.09728  0.67704  0.21603  1.0000
  H   H1088     1.0  0.96537  0.56492  0.19717  1.0000
  C   C685      1.0  0.91961  0.77055  0.16339  1.0000
  H   H1089     1.0  0.89086  0.72899  0.21056  1.0000
  H   H1090     1.0  0.86287  0.70869  0.33809  1.0000
  C   C686      1.0  0.77292  0.72103  0.38579  1.0000
  H   H1091     1.0  0.91523  0.79037  0.15570  1.0000
  H   H1092     1.0  0.91648  0.70792  0.39270  1.0000
  C   C687      1.0  0.94450  0.71123  0.12096  1.0000
  S   S278      1.0  0.96240  0.71733  0.15091  1.0000
  H   H1093     1.0  0.97895  0.72898  0.09692  1.0000
  Fe  Fe141     1.0  0.81884  0.76616  0.35545  1.0000
  H   H1094     1.0  0.93994  0.68514  0.37777  1.0000
  H   H1095     1.0  0.07505  0.68569  0.14982  1.0000
  C   C688      1.0  0.86883  0.76059  0.17322  1.0000
  H   H1096     1.0  0.89427  0.65573  0.34677  1.0000
  C   C689      1.0  0.92132  0.71951  0.25959  1.0000
  C   C690      1.0  0.87351  0.70972  0.27846  1.0000
  S   S279      1.0  0.80716  0.72581  0.37063  1.0000
  S   S280      1.0  0.86717  0.77405  0.35373  1.0000
  H   H1097     1.0  0.91929  0.73622  0.35253  1.0000
  H   H1098     1.0  0.86725  0.74659  0.15671  1.0000
  H   H1099     1.0  0.91118  0.72291  0.32089  1.0000
  C   C691      1.0  0.95780  0.71892  0.09696  1.0000
  H   H1100     1.0  0.94358  0.71397  0.33772  1.0000
  C   C692      1.0  0.92023  0.71827  0.34070  1.0000
  H   H1101     1.0  0.94346  0.58317  0.10317  1.0000
  H   H1102     1.0  0.92799  0.66831  0.33225  1.0000
  H   H1103     1.0  0.89436  0.80055  0.19922  1.0000
  H   H1104     1.0  0.86241  0.77983  0.16531  1.0000
  N   N70       1.0  0.89858  0.76200  0.18434  1.0000
  S   S281      1.0  0.88807  0.78742  0.28040  1.0000
  C   C693      1.0  0.90610  0.73607  0.19455  1.0000
  C   C694      1.0  0.90163  0.57199  0.20359  1.0000
  S   S282      1.0  0.81027  0.78274  0.31483  1.0000
  C   C695      1.0  0.86999  0.73620  0.28276  1.0000
  C   C696      1.0  0.89210  0.75433  0.27530  1.0000
  H   H1105     1.0  0.88205  0.68282  0.09690  1.0000
  H   H1106     1.0  0.85010  0.74258  0.29169  1.0000
  H   H1107     1.0  0.93508  0.75993  0.25839  1.0000
  H   H1108     1.0  0.92181  0.78205  0.21523  1.0000
  H   H1109     1.0  0.99878  0.58406  0.19528  1.0000
  H   H1110     1.0  0.85246  0.75410  0.18854  1.0000
  C   C697      1.0  0.91772  0.74597  0.26369  1.0000
  H   H1111     1.0  0.90528  0.72151  0.17861  1.0000
  Fe  Fe142     1.0  0.85814  0.79338  0.31479  1.0000
  H   H1112     1.0  0.88399  0.77494  0.22224  1.0000
  H   H1113     1.0  0.08581  0.60273  0.19960  1.0000
  C   C698      1.0  0.76744  0.69857  0.40129  1.0000
  C   C699      1.0  0.93974  0.63518  0.10058  1.0000
  H   H1114     1.0  0.00157  0.58247  0.24436  1.0000
  H   H1115     1.0  0.98758  0.60961  0.08944  1.0000
  H   H1116     1.0  0.94906  0.65498  0.09578  1.0000
  Fe  Fe143     1.0  0.85770  0.81206  0.37161  1.0000
  C   C700      1.0  0.90890  0.56724  0.17730  1.0000
  H   H1117     1.0  0.04312  0.56855  0.21701  1.0000
  H   H1118     1.0  0.90824  0.59174  0.09159  1.0000
  C   C701      1.0  0.98950  0.56379  0.19620  1.0000
  H   H1119     1.0  0.78044  0.78232  0.69362  1.0000
  C   C702      1.0  0.78410  0.78934  0.71414  1.0000
  C   C703      1.0  0.79578  0.76949  0.49140  1.0000
  H   H1120     1.0  0.81391  0.77152  0.44063  1.0000
  H   H1121     1.0  0.77683  0.74391  0.73968  1.0000
  C   C704      1.0  0.77771  0.73740  0.58693  1.0000
  C   C705      1.0  0.77256  0.74370  0.61333  1.0000
  H   H1122     1.0  0.81235  0.68797  0.75054  1.0000
  H   H1123     1.0  0.78146  0.78965  0.44374  1.0000
  H   H1124     1.0  0.79884  0.74190  0.57804  1.0000
  H   H1125     1.0  0.81789  0.72968  0.46517  1.0000
  C   C706      1.0  0.78988  0.76970  0.44391  1.0000
  N   N71       1.0  0.78248  0.75552  0.46891  1.0000
  H   H1126     1.0  0.81995  0.77122  0.48945  1.0000
  H   H1127     1.0  0.78990  0.66172  0.62523  1.0000
  H   H1128     1.0  0.78874  0.71791  0.48663  1.0000
  H   H1129     1.0  0.79066  0.75924  0.51058  1.0000
  H   H1130     1.0  0.78969  0.75315  0.62472  1.0000
  C   C707      1.0  0.79382  0.72911  0.46799  1.0000
  H   H1131     1.0  0.78397  0.71796  0.45143  1.0000
  H   H1132     1.0  0.78038  0.75957  0.42655  1.0000
  H   H1133     1.0  0.77730  0.62614  0.59308  1.0000
  H   H1134     1.0  0.80492  0.78131  0.72129  1.0000
  H   H1135     1.0  0.78757  0.78945  0.49277  1.0000
  H   H1136     1.0  0.78715  0.81083  0.71305  1.0000
  H   H1137     1.0  0.77145  0.61845  0.64129  1.0000
  N   N72       1.0  0.00271  0.75972  0.91619  1.0000
  C   C708      1.0  0.08851  0.72781  0.98011  1.0000
  H   H1138     1.0  0.83762  0.72450  0.83405  1.0000
  H   H1139     1.0  0.87482  0.71610  0.83739  1.0000
  C   C709      1.0  0.85309  0.71453  0.84729  1.0000
  C   C710      1.0  0.86354  0.67520  0.87157  1.0000
  H   H1140     1.0  0.88635  0.67551  0.86391  1.0000
  H   H1141     1.0  0.86403  0.68566  0.89065  1.0000
  S   S283      1.0  0.94673  0.71464  0.98023  1.0000
  Fe  Fe144     1.0  0.97777  0.64628  0.99250  1.0000
  S   S284      1.0  0.93019  0.65147  0.98472  1.0000
  S   S285      1.0  0.00092  0.60944  0.00150  1.0000
  Fe  Fe145     1.0  0.99270  0.70390  0.98813  1.0000
  Fe  Fe146     1.0  0.93518  0.68512  0.01204  1.0000
  S   S286      1.0  0.90091  0.69006  0.04312  1.0000
  Fe  Fe147     1.0  0.94552  0.68039  0.95350  1.0000
  S   S287      1.0  0.98152  0.67754  0.02261  1.0000
  S   S288      1.0  0.99273  0.67211  0.95864  1.0000
  C   C711      1.0  0.06176  0.71569  0.98737  1.0000
  H   H1142     1.0  0.93621  0.64680  0.04887  1.0000
  C   C712      1.0  0.06022  0.68911  0.99338  1.0000
  H   H1143     1.0  0.95480  0.71847  0.05440  1.0000
  H   H1144     1.0  0.03977  0.67962  0.99917  1.0000
  H   H1145     1.0  0.01093  0.72315  0.93518  1.0000
  C   C713      1.0  0.91700  0.69967  0.07289  1.0000
  C   C714      1.0  0.97892  0.58113  0.00540  1.0000
  C   C715      1.0  0.94933  0.58065  0.99892  1.0000
  H   H1146     1.0  0.93975  0.59768  0.99048  1.0000
  H   H1147     1.0  0.93356  0.57756  0.06918  1.0000
  H   H1148     1.0  0.99196  0.79106  0.88967  1.0000
  C   C716      1.0  0.90839  0.73038  0.92133  1.0000
  C   C717      1.0  0.81362  0.68611  0.86321  1.0000
  S   S289      1.0  0.89887  0.79608  0.87820  1.0000
  H   H1149     1.0  0.85461  0.72565  0.86594  1.0000
  H   H1150     1.0  0.85699  0.65460  0.87612  1.0000
  S   S290      1.0  0.02989  0.73327  0.98794  1.0000
  H   H1151     1.0  0.90449  0.72384  0.94151  1.0000
  H   H1152     1.0  0.82873  0.68086  0.81263  1.0000
  C   C718      1.0  0.97488  0.61618  0.07200  1.0000
  H   H1153     1.0  0.01667  0.72385  0.90012  1.0000
  C   C719      1.0  0.92238  0.72151  0.87630  1.0000
  H   H1154     1.0  0.86621  0.67419  0.81794  1.0000
  H   H1155     1.0  0.81243  0.69690  0.88204  1.0000
  N   N73       1.0  0.84361  0.68716  0.85235  1.0000
  C   C720      1.0  0.94424  0.71283  0.07291  1.0000
  C   C721      1.0  0.79751  0.69787  0.76323  1.0000
  C   C722      1.0  0.99252  0.76950  0.89027  1.0000
  S   S291      1.0  0.92789  0.68184  0.91208  1.0000
  H   H1156     1.0  0.98231  0.78974  0.93777  1.0000
  H   H1157     1.0  0.03362  0.79165  0.92127  1.0000
  H   H1158     1.0  0.93068  0.70841  0.86185  1.0000
  C   C723      1.0  0.91888  0.71333  0.90270  1.0000
  H   H1159     1.0  0.97006  0.76192  0.88603  1.0000
  C   C724      1.0  0.05181  0.56821  0.96193  1.0000
  C   C725      1.0  0.84417  0.67285  0.82729  1.0000
  S   S292      1.0  0.84502  0.72754  0.77751  1.0000
  H   H1160     1.0  0.04818  0.76381  0.90567  1.0000
  H   H1161     1.0  0.02781  0.56947  0.96480  1.0000
  H   H1162     1.0  0.93000  0.61435  0.03778  1.0000
  H   H1163     1.0  0.99012  0.76135  0.95716  1.0000
  C   C726      1.0  0.03268  0.77007  0.92107  1.0000
  H   H1164     1.0  0.04097  0.76310  0.94055  1.0000
  N   N74       1.0  0.94350  0.61743  0.07835  1.0000
  C   C727      1.0  0.98302  0.76823  0.93728  1.0000
  C   C728      1.0  0.92771  0.62718  0.05502  1.0000
  Fe  Fe148     1.0  0.85535  0.76773  0.79191  1.0000
  C   C729      1.0  0.80797  0.71822  0.77894  1.0000
  H   H1165     1.0  0.79666  0.74641  0.80778  1.0000
  C   C730      1.0  0.78879  0.73080  0.79551  1.0000
  S   S293      1.0  0.90174  0.77861  0.80163  1.0000
  H   H1166     1.0  0.05869  0.58333  0.94690  1.0000
  S   S294      1.0  0.83690  0.78422  0.82877  1.0000
  H   H1167     1.0  0.91913  0.75320  0.84835  1.0000
  C   C731      1.0  0.00260  0.73106  0.91614  1.0000
  C   C732      1.0  0.91574  0.74683  0.86861  1.0000
  H   H1168     1.0  0.98022  0.72246  0.91334  1.0000
  C   C733      1.0  0.90596  0.76410  0.88737  1.0000
  C   C734      1.0  0.08523  0.67458  0.99196  1.0000
  H   H1169     1.0  0.89441  0.76911  0.92825  1.0000
  H   H1170     1.0  0.00685  0.76351  0.87383  1.0000
  C   C735      1.0  0.90230  0.75587  0.91375  1.0000
  H   H1171     1.0  0.08976  0.74837  0.97540  1.0000
  H   H1172     1.0  0.08383  0.65398  0.99655  1.0000
  Fe  Fe149     1.0  0.88275  0.79838  0.83641  1.0000
  H   H1173     1.0  0.96033  0.76047  0.93437  1.0000
  H   H1174     1.0  0.98432  0.63549  0.06550  1.0000
  H   H1175     1.0  0.90402  0.62888  0.05921  1.0000
  S   S295      1.0  0.84822  0.80309  0.76654  1.0000
  H   H1176     1.0  0.97865  0.60255  0.05569  1.0000
  H   H1177     1.0  0.06233  0.57363  0.98096  1.0000
  H   H1178     1.0  0.80572  0.66575  0.86734  1.0000
  H   H1179     1.0  0.79803  0.69490  0.84906  1.0000
  H   H1180     1.0  0.83798  0.65195  0.83044  1.0000
  H   H1181     1.0  0.78515  0.78263  0.76727  1.0000
  C   C736      1.0  0.76768  0.69092  0.76314  1.0000
  C   C737      1.0  0.93168  0.59124  0.08584  1.0000
  H   H1182     1.0  0.76786  0.81232  0.75900  1.0000
  H   H1183     1.0  0.81372  0.85804  0.23815  1.0000
  H   H1184     1.0  0.85255  0.87261  0.38033  1.0000
  C   C738      1.0  0.83285  0.88376  0.37584  1.0000
  H   H1185     1.0  0.86723  0.94238  0.36355  1.0000
  C   C739      1.0  0.85424  0.90039  0.33482  1.0000
  C   C740      1.0  0.79731  0.85563  0.27819  1.0000
  H   H1186     1.0  0.80996  0.83907  0.28353  1.0000
  C   C741      1.0  0.79938  0.86635  0.25249  1.0000
  N   N75       1.0  0.84029  0.90749  0.35995  1.0000
  H   H1187     1.0  0.83929  0.88787  0.32277  1.0000
  H   H1188     1.0  0.81806  0.93922  0.34194  1.0000
  C   C742      1.0  0.90485  0.85414  0.40129  1.0000
  H   H1189     1.0  0.79757  0.90880  0.34274  1.0000
  S   S296      1.0  0.85344  0.83250  0.33241  1.0000
  H   H1190     1.0  0.87447  0.88964  0.33847  1.0000
  C   C743      1.0  0.81334  0.92128  0.35406  1.0000
  S   S297      1.0  0.78373  0.89863  0.21206  1.0000
  H   H1191     1.0  0.85084  0.93040  0.39405  1.0000
  H   H1192     1.0  0.02134  0.04910  0.40772  1.0000
  S   S298      1.0  0.95941  0.92856  0.38488  1.0000
  H   H1193     1.0  0.82267  0.88839  0.39510  1.0000
  H   H1194     1.0  0.05855  0.05255  0.37301  1.0000
  H   H1195     1.0  0.90597  0.84951  0.35905  1.0000
  H   H1196     1.0  0.80217  0.92696  0.37253  1.0000
  H   H1197     1.0  0.93618  0.88970  0.35051  1.0000
  C   C744      1.0  0.93975  0.89934  0.39168  1.0000
  C   C745      1.0  0.78253  0.88736  0.24509  1.0000
  H   H1198     1.0  0.08214  0.03402  0.39356  1.0000
  H   H1199     1.0  0.81729  0.87060  0.36522  1.0000
  C   C746      1.0  0.91291  0.86138  0.37539  1.0000
  C   C747      1.0  0.93020  0.88401  0.37059  1.0000
  H   H1200     1.0  0.88103  0.91441  0.38006  1.0000
  C   C748      1.0  0.86065  0.92445  0.37504  1.0000
  H   H1201     1.0  0.95606  0.03895  0.41146  1.0000
  H   H1202     1.0  0.86046  0.91787  0.32250  1.0000
  C   C749      1.0  0.93236  0.89175  0.41765  1.0000
  S   S299      1.0  0.99753  0.98917  0.41418  1.0000
  H   H1203     1.0  0.78376  0.03388  0.09882  1.0000
  C   C750      1.0  0.77842  0.86599  0.29662  1.0000
  C   C751      1.0  0.07541  0.05409  0.38876  1.0000
  S   S300      1.0  0.77384  0.85145  0.32811  1.0000
  S   S301      1.0  0.88097  0.82723  0.40747  1.0000
  Fe  Fe150     1.0  0.80618  0.82052  0.33584  1.0000
  Fe  Fe151     1.0  0.97954  0.94822  0.42017  1.0000
  Fe  Fe152     1.0  0.99835  0.94561  0.47742  1.0000
  S   S302      1.0  0.95622  0.95615  0.45818  1.0000
  S   S303      1.0  0.00360  0.92612  0.51708  1.0000
  H   H1204     1.0  0.98051  0.88754  0.69226  1.0000
  Fe  Fe153     1.0  0.97763  0.99583  0.45394  1.0000
  S   S304      1.0  0.95721  0.03174  0.46848  1.0000
  S   S305      1.0  0.01797  0.98580  0.47575  1.0000
  H   H1205     1.0  0.96965  0.89677  0.64409  1.0000
  C   C752      1.0  0.94400  0.05504  0.53695  1.0000
  H   H1206     1.0  0.05354  0.03026  0.65802  1.0000
  H   H1207     1.0  0.95147  0.82153  0.67836  1.0000
  H   H1208     1.0  0.09416  0.04850  0.43866  1.0000
  C   C753      1.0  0.06588  0.02349  0.67561  1.0000
  H   H1209     1.0  0.99106  0.87040  0.63462  1.0000
  H   H1210     1.0  0.97552  0.04370  0.65051  1.0000
  H   H1211     1.0  0.90879  0.86360  0.44252  1.0000
  H   H1212     1.0  0.02870  0.06103  0.44028  1.0000
  C   C754      1.0  0.96855  0.96514  0.53195  1.0000
  C   C755      1.0  0.98579  0.94483  0.54046  1.0000
  H   H1213     1.0  0.95357  0.87169  0.62427  1.0000
  H   H1214     1.0  0.96605  0.96937  0.51115  1.0000
  C   C756      1.0  0.93700  0.90967  0.73433  1.0000
  H   H1215     1.0  0.00320  0.86265  0.68078  1.0000
  C   C757      1.0  0.93018  0.86906  0.67342  1.0000
  H   H1216     1.0  0.08121  0.90816  0.64528  1.0000
  C   C758      1.0  0.90820  0.91715  0.73167  1.0000
  H   H1217     1.0  0.06764  0.95751  0.50727  1.0000
  H   H1218     1.0  0.00231  0.92416  0.57435  1.0000
  C   C759      1.0  0.98889  0.93974  0.56762  1.0000
  H   H1219     1.0  0.94019  0.99522  0.54350  1.0000
  H   H1220     1.0  0.05032  0.01155  0.68823  1.0000
  S   S306      1.0  0.08211  0.98998  0.42885  1.0000
  C   C760      1.0  0.95701  0.97495  0.57744  1.0000
  C   C761      1.0  0.95397  0.97997  0.55035  1.0000
  C   C762      1.0  0.96876  0.87550  0.64097  1.0000
  H   H1221     1.0  0.95930  0.04522  0.58755  1.0000
  N   N76       1.0  0.95947  0.86108  0.66535  1.0000
  H   H1222     1.0  0.97515  0.85487  0.70495  1.0000
  Fe  Fe154     1.0  0.03607  0.97504  0.43665  1.0000
  C   C763      1.0  0.97468  0.95494  0.58612  1.0000
  Fe  Fe155     1.0  0.99458  0.95174  0.67203  1.0000
  S   S307      1.0  0.98445  0.96957  0.71102  1.0000
  S   S308      1.0  0.02417  0.91932  0.66329  1.0000
  Fe  Fe156     1.0  0.95272  0.98453  0.64141  1.0000
  S   S309      1.0  0.93746  0.00478  0.67743  1.0000
  Fe  Fe157     1.0  0.98497  0.00720  0.68777  1.0000
  S   S310      1.0  0.00442  0.04542  0.70092  1.0000
  Fe  Fe158     1.0  0.93788  0.96567  0.69747  1.0000
  H   H1223     1.0  0.94288  0.82795  0.64421  1.0000
  S   S311      1.0  0.00021  0.98977  0.65018  1.0000
  S   S312      1.0  0.94804  0.94506  0.66020  1.0000
  C   C764      1.0  0.97416  0.06303  0.65812  1.0000
  C   C765      1.0  0.98048  0.86672  0.68678  1.0000
  C   C766      1.0  0.08345  0.94848  0.49380  1.0000
  H   H1224     1.0  0.93033  0.89002  0.67837  1.0000
  C   C767      1.0  0.05800  0.92222  0.67891  1.0000
  C   C768      1.0  0.06039  0.93210  0.70443  1.0000
  H   H1225     1.0  0.97724  0.95100  0.60704  1.0000
  H   H1226     1.0  0.04101  0.93694  0.71525  1.0000
  H   H1227     1.0  0.92221  0.85796  0.69132  1.0000
  H   H1228     1.0  0.06491  0.97343  0.66441  1.0000
  S   S313      1.0  0.90089  0.94911  0.72258  1.0000
  C   C769      1.0  0.07801  0.90793  0.51823  1.0000
  C   C770      1.0  0.08305  0.91579  0.66503  1.0000
  C   C771      1.0  0.03856  0.05157  0.42299  1.0000
  H   H1229     1.0  0.06376  0.89983  0.50235  1.0000
  S   S314      1.0  0.93880  0.99406  0.60010  1.0000
  H   H1230     1.0  0.91389  0.86590  0.65745  1.0000
  H   H1231     1.0  0.06324  0.91630  0.53312  1.0000
  C   C772      1.0  0.95849  0.83294  0.66031  1.0000
  C   C773      1.0  0.08799  0.93567  0.71598  1.0000
  H   H1232     1.0  0.86292  0.90472  0.73386  1.0000
  H   H1233     1.0  0.93974  0.90346  0.43402  1.0000
  H   H1234     1.0  0.92750  0.04242  0.54781  1.0000
  H   H1235     1.0  0.07036  0.99138  0.63408  1.0000
  H   H1236     1.0  0.95909  0.04193  0.52686  1.0000
  C   C774      1.0  0.96527  0.05867  0.44786  1.0000
  S   S315      1.0  0.01978  0.93358  0.43988  1.0000
  C   C775      1.0  0.88520  0.89902  0.73637  1.0000
  C   C776      1.0  0.10007  0.94023  0.42141  1.0000
  H   H1237     1.0  0.07250  0.04084  0.68721  1.0000
  C   C777      1.0  0.08114  0.98562  0.65287  1.0000
  C   C778      1.0  0.94284  0.88411  0.74165  1.0000
  H   H1238     1.0  0.08908  0.89155  0.52808  1.0000
  H   H1239     1.0  0.95481  0.92365  0.73112  1.0000
  C   C779      1.0  0.91488  0.86918  0.42243  1.0000
  C   C780      1.0  0.97508  0.05728  0.57529  1.0000
  H   H1240     1.0  0.08990  0.94346  0.73566  1.0000
  H   H1241     1.0  0.07071  0.94073  0.47681  1.0000
  N   N77       1.0  0.09125  0.00847  0.66800  1.0000
  H   H1242     1.0  0.99024  0.04370  0.56607  1.0000
  C   C781      1.0  0.96335  0.05699  0.42030  1.0000
  H   H1243     1.0  0.04452  0.03182  0.42963  1.0000
  S   S316      1.0  0.92764  0.83352  0.75260  1.0000
  H   H1244     1.0  0.98033  0.82629  0.65438  1.0000
  H   H1245     1.0  0.09864  0.96406  0.48572  1.0000
  H   H1246     1.0  0.09158  0.98746  0.70510  1.0000
  H   H1247     1.0  0.96516  0.87853  0.74420  1.0000
  C   C782      1.0  0.89105  0.87335  0.74358  1.0000
  H   H1248     1.0  0.87327  0.85921  0.74670  1.0000
  C   C783      1.0  0.91992  0.86588  0.74595  1.0000
  N   N78       1.0  0.09927  0.92775  0.50755  1.0000
  H   H1249     1.0  0.09948  0.97306  0.64786  1.0000
  H   H1250     1.0  0.07734  0.93420  0.42089  1.0000
  C   C784      1.0  0.81106  0.83858  0.97754  1.0000
  H   H1251     1.0  0.82074  0.90325  0.96442  1.0000
  H   H1252     1.0  0.87014  0.96491  0.79434  1.0000
  N   N79       1.0  0.85416  0.92699  0.80759  1.0000
  H   H1253     1.0  0.82861  0.83676  0.99254  1.0000
  H   H1254     1.0  0.80735  0.87332  0.01638  1.0000
  C   C785      1.0  0.77564  0.89537  0.86461  1.0000
  H   H1255     1.0  0.81192  0.92235  0.82591  1.0000
  H   H1256     1.0  0.84329  0.88634  0.81272  1.0000
  H   H1257     1.0  0.82321  0.95533  0.81823  1.0000
  H   H1258     1.0  0.89222  0.93872  0.78455  1.0000
  S   S317      1.0  0.79394  0.84454  0.80713  1.0000
  H   H1259     1.0  0.84512  0.88194  0.98097  1.0000
  C   C786      1.0  0.77320  0.87971  0.84215  1.0000
  C   C787      1.0  0.86933  0.94439  0.78794  1.0000
  H   H1260     1.0  0.87033  0.94835  0.84096  1.0000
  C   C788      1.0  0.82385  0.93507  0.81113  1.0000
  H   H1261     1.0  0.87637  0.89354  0.79461  1.0000
  H   H1262     1.0  0.78350  0.89466  0.99934  1.0000
  C   C789      1.0  0.86956  0.92829  0.83321  1.0000
  H   H1263     1.0  0.81964  0.83154  0.95841  1.0000
  H   H1264     1.0  0.81147  0.93403  0.79224  1.0000
  C   C790      1.0  0.79435  0.86153  0.83697  1.0000
  S   S318      1.0  0.77239  0.94234  0.96747  1.0000
  C   C791      1.0  0.85386  0.90008  0.79812  1.0000
  C   C792      1.0  0.82696  0.88264  0.96650  1.0000
  H   H1265     1.0  0.83306  0.84385  0.85152  1.0000
  Fe  Fe159     1.0  0.83387  0.82076  0.80449  1.0000
  C   C793      1.0  0.79961  0.89316  0.88145  1.0000
  S   S319      1.0  0.87846  0.83650  0.81508  1.0000
  H   H1266     1.0  0.84155  0.89804  0.77930  1.0000
  S   S320      1.0  0.80581  0.91447  0.90759  1.0000
  C   C794      1.0  0.81720  0.85836  0.85481  1.0000
  N   N80       1.0  0.80180  0.86562  0.97489  1.0000
  H   H1267     1.0  0.85846  0.91547  0.84850  1.0000
  H   H1268     1.0  0.83857  0.87250  0.88979  1.0000
  C   C795      1.0  0.82014  0.87445  0.87668  1.0000
  H   H1269     1.0  0.89242  0.92202  0.83131  1.0000
  H   H1270     1.0  0.83553  0.87706  0.94682  1.0000
  H   H1271     1.0  0.85829  0.94385  0.76833  1.0000
  H   H1272     1.0  0.78616  0.86064  0.93508  1.0000
  C   C796      1.0  0.79055  0.87426  0.00061  1.0000
  C   C797      1.0  0.78720  0.05513  0.04920  1.0000
  H   H1273     1.0  0.79252  0.82524  0.98375  1.0000
  C   C798      1.0  0.77022  0.04119  0.93234  1.0000
  C   C799      1.0  0.77856  0.86702  0.95481  1.0000
  H   H1274     1.0  0.77434  0.02267  0.92381  1.0000
  H   H1275     1.0  0.80690  0.05948  0.06134  1.0000
  H   H1276     1.0  0.77110  0.86225  0.00730  1.0000
  H   H1277     1.0  0.77073  0.01113  0.07478  1.0000
  H   H1278     1.0  0.77131  0.06182  0.89473  1.0000
  H   H1279     1.0  0.77157  0.88723  0.95208  1.0000
  H   H1280     1.0  0.79146  0.03771  0.03723  1.0000
  Fe  Fe160     1.0  0.89325  0.81547  0.77941  1.0000
  C   C800      1.0  0.76880  0.06337  0.91594  1.0000
