data_image0
_chemical_formula_structural       FeS2FeS2FeSFeS3FeS2FeS2FeSFeS3FeS2FeS2FeSFeS3FeS2FeS2FeSFeS3FeS2FeS2FeSFeS3FeS2FeS2FeSFeS3FeS2FeS2FeSFeS3FeS2FeS2FeSFeS3FeS2FeS2FeSFeS3FeS2FeS2FeSFeS3FeS2FeS2FeSFeS3FeS2FeS2FeSFeS3FeS2FeS2FeSFeS3FeS2FeS2FeSFeS3FeS2FeS2FeSFeS3FeS2FeS2FeSFeS3C6H4C6H4C6H4C6H4C6H4C6H4C6H4C6H4C6H4C6H4C6H4C6H4C6H4C6H4C6H4C6H4C6H4C6H4C6H4C6H4C6H4C6H4C6H4C6H4C6H4C6H4C6H4C6H4C6H4C6H4C6H4C6H4FeS2FeS2FeSFeS3FeS2FeS2FeSFeS3FeS2FeS2FeSFeS3FeS2FeS2FeSFeS3FeS2FeS2FeSFeS3FeS2FeS2FeSFeS3FeS2FeS2FeSFeS3FeS2FeS2FeSFeS3FeS2FeS2FeSFeS3FeS2FeS2FeSFeS3FeS2FeS2FeSFeS3FeS2FeS2FeSFeS3FeS2FeS2FeSFeS3FeS2FeS2FeSFeS3FeS2FeS2FeSFeS3FeS2FeS2FeSFeS3C6H4C6H4C6H4C6H4C6H4C6H4C6H4C6H4C6H4C6H4C6H4C6H4C6H4C6H4C6H4C6H4C6H4C6H4C6H4C6H4C6H4C6H4C6H4C6H4C6H4C6H4C6H4C6H4C6H4C6H4C6H4C6H4NC4H12NC4H12NC4H12NC4H12NC4H12NC4H12NC4H12NC4H12NC4H12NC4H12NC4H12NC4H12NC4H12NC4H12NC4H12NC4H12NC4H12NC4H12NC4H12NC4H12NC4H12NC4H12NC4H12NC4H12NC4H12NC4H12NC4H12NC4H12NC4H12NC4H12NC4H12NC4H12NC4H12NC4H12NC4H12NC4H12NC4H12NC4H12NC4H12NC4H12NC4H12NC4H12NC4H12NC4H12NC4H12NC4H12NC4H12NC4H12NC4H12NC4H12NC4H12NC4H12NC4H12NC4H12NC4H12NC4H12NC4H12NC4H12NC4H12NC4H12NC4H12NC4H12NC4H12NC4H12
_chemical_formula_sum              "Fe128 S256 C640 H1024 N64"
_cell_length_a       38.683980541367156
_cell_length_b       42.67542958873708
_cell_length_c       42.70432144945796
_cell_angle_alpha    90.23624028260825
_cell_angle_beta     90.3396913810589
_cell_angle_gamma    88.63163685801163

_space_group_name_H-M_alt    "P 1"
_space_group_IT_number       1

loop_
  _space_group_symop_operation_xyz
  'x, y, z'

loop_
  _atom_site_type_symbol
  _atom_site_label
  _atom_site_symmetry_multiplicity
  _atom_site_fract_x
  _atom_site_fract_y
  _atom_site_fract_z
  _atom_site_occupancy
  Fe  Fe1       1.0  0.7732396762275517  0.21386338946257366  0.3191186083523023  1.0000
  S   S1        1.0  0.751904562340807  0.2603648993737724  0.3354032425661001  1.0000
  S   S2        1.0  0.7452679421210903  0.17871970627499342  0.2898384697130277  1.0000
  Fe  Fe2       1.0  0.8445576943104737  0.225261777263924  0.34572451522999537  1.0000
  S   S3        1.0  0.8299210964215173  0.2726471109193248  0.3647128947417591  1.0000
  S   S4        1.0  0.8969859570479964  0.20238371120397086  0.35069095473595274  1.0000
  Fe  Fe3       1.0  0.7811874440877046  0.2499632263274156  0.37982363223157983  1.0000
  S   S5        1.0  0.7587692615855357  0.26223341802305034  0.42684911157606553  1.0000
  Fe  Fe4       1.0  0.8023304245328208  0.27894789380945884  0.31892084814897204  1.0000
  S   S6        1.0  0.80313237999035  0.32476198494588404  0.2936911936340085  1.0000
  S   S7        1.0  0.7983099726181193  0.2015390736997977  0.36505028553656826  1.0000
  S   S8        1.0  0.8210875131898253  0.23323897356112627  0.29843737519106434  1.0000
  Fe  Fe5       1.0  0.8636694392530894  0.00641662578897928  0.32337999904612436  1.0000
  S   S9        1.0  0.8596795794416033  0.9550687243506865  0.33155101420931926  1.0000
  S   S10       1.0  0.911146506510003  0.02718813741489501  0.30208302600105325  1.0000
  Fe  Fe6       1.0  0.7921734791575132  0.019890379601698482  0.3508421682800649  1.0000
  S   S11       1.0  0.7828566736054033  0.9692240461866786  0.3605630851006831  1.0000
  S   S12       1.0  0.7537481788776024  0.05529762661524984  0.3696522255382304  1.0000
  Fe  Fe7       1.0  0.8375987720962929  0.9684684291247097  0.37777036551325527  1.0000
  S   S13       1.0  0.852634082204484  0.9420418384769393  0.4210227766166879  1.0000
  Fe  Fe8       1.0  0.805950123323406  0.9612323055619567  0.3131550731814137  1.0000
  S   S14       1.0  0.7899741600196738  0.9252334499835126  0.278068687125029  1.0000
  S   S15       1.0  0.8455604501238855  0.019810401053686366  0.37144432209237965  1.0000
  S   S16       1.0  0.810782308490912  0.012160391105470403  0.3016065013423448  1.0000
  Fe  Fe9       1.0  0.5652569920677347  0.2666912164975187  0.06611592728578564  1.0000
  S   S17       1.0  0.5445922936750833  0.31023004769345364  0.09001573219037826  1.0000
  S   S18       1.0  0.564539673630764  0.22108265994106316  0.09207306053837264  1.0000
  Fe  Fe10      1.0  0.5279388718272296  0.33546013689893195  0.5105962201736186  1.0000
  S   S19       1.0  0.566147910963379  0.3719350172243104  0.5232959131388549  1.0000
  S   S20       1.0  0.5039138566325504  0.33832877194954786  0.46291046893505294  1.0000
  Fe  Fe11      1.0  0.5925644917889991  0.3316307573577582  0.07128618513448792  1.0000
  S   S21       1.0  0.6236595992140288  0.36641518091905523  0.09856528016626522  1.0000
  Fe  Fe12      1.0  0.5212305080606543  0.3217588077536636  0.043105989690789936  1.0000
  S   S22       1.0  0.4692145180347168  0.34219473178157056  0.029854578201910172  1.0000
  S   S23       1.0  0.6148021996334915  0.2873578555136297  0.049935180028588544  1.0000
  S   S24       1.0  0.536898278788757  0.2759793638714997  0.021068886812434684  1.0000
  Fe  Fe13      1.0  0.8810122116418622  0.34053536728980327  0.14063495418655325  1.0000
  S   S25       1.0  0.8276348947229485  0.36159426564010816  0.1449071557173864  1.0000
  S   S26       1.0  0.9097841477223876  0.3227151409222037  0.18288441470749667  1.0000
  Fe  Fe14      1.0  0.854141101830058  0.2421408435420976  0.581141930816601  1.0000
  S   S27       1.0  0.849765963611014  0.29089777218673474  0.600714470742523  1.0000
  S   S28       1.0  0.8679494356609585  0.22783481228238664  0.5322315274528102  1.0000
  Fe  Fe15      1.0  0.8458647634478739  0.395477893246905  0.10900613821615973  1.0000
  S   S29       1.0  0.8335962446979378  0.44704568239652587  0.11050287596614519  1.0000
  Fe  Fe16      1.0  0.8060970291149065  0.2722669292139226  0.6289205375878574  1.0000
  S   S30       1.0  0.7588625161755094  0.3006642787993238  0.6421719622845441  1.0000
  S   S31       1.0  0.9003857697776538  0.37676982415105986  0.10777756774093694  1.0000
  S   S32       1.0  0.8068523992071451  0.22527959649866963  0.6052838359097767  1.0000
  Fe  Fe17      1.0  0.56205861940727  0.2535197181069405  0.32342221496137474  1.0000
  S   S33       1.0  0.5087375546102644  0.271544861283015  0.31182372936231195  1.0000
  S   S34       1.0  0.5730964528653639  0.23795295682452083  0.37255411779882835  1.0000
  Fe  Fe18      1.0  0.5859690930632637  0.2555284926561279  0.2557972957600464  1.0000
  S   S35       1.0  0.5337190250788952  0.27184803835221544  0.2382059717541894  1.0000
  S   S36       1.0  0.631315070329857  0.2523432334296562  0.2228470248365068  1.0000
  Fe  Fe19      1.0  0.5352524208164904  0.30432283147023287  0.2795049070406882  1.0000
  S   S37       1.0  0.5239186312036959  0.3557559243714404  0.2739928482462859  1.0000
  Fe  Fe20      1.0  0.5124842532200444  0.2373480980558042  0.27225086673294463  1.0000
  S   S38       1.0  0.46979321265468277  0.20313017303844805  0.2672276845387804  1.0000
  S   S39       1.0  0.5886403968424873  0.28995973237596845  0.29542761658634026  1.0000
  S   S40       1.0  0.5647129683881957  0.21734152123069048  0.2854674021687293  1.0000
  Fe  Fe21      1.0  0.5711380402916012  0.03709062570558519  0.297435679805047  1.0000
  S   S41       1.0  0.5209952799188505  0.057417155833714206  0.2795329893711302  1.0000
  S   S42       1.0  0.5948902992240417  0.058703242228965724  0.34011818292166923  1.0000
  Fe  Fe22      1.0  0.5772726393281427  0.9902489211860784  0.2436257838415438  1.0000
  S   S43       1.0  0.5270594645972123  0.006609824016586607  0.22239592955214652  1.0000
  S   S44       1.0  0.6035363472729919  0.9526064227057724  0.21469911157874166  1.0000
  Fe  Fe23      1.0  0.5462072993160619  0.05441465858792971  0.23260253148190826  1.0000
  S   S45       1.0  0.5462411969909932  0.09310231850323958  0.19754002638748075  1.0000
  Fe  Fe24      1.0  0.5075344897234728  0.007111029674252922  0.27165228450915313  1.0000
  S   S46       1.0  0.45445125654813834  0.9886197800600802  0.2805110353329266  1.0000
  S   S47       1.0  0.597812581298341  0.0384601105437552  0.2511804749627389  1.0000
  S   S48       1.0  0.5564745941952286  0.9866982602898633  0.29244686458007685  1.0000
  Fe  Fe25      1.0  0.8106015900237613  0.003754939449781558  0.5739549679385519  1.0000
  S   S49       1.0  0.7641774276425901  0.9736064904171552  0.5754206035702942  1.0000
  S   S50       1.0  0.8218166007668751  0.034506570872866016  0.533189961521969  1.0000
  Fe  Fe26      1.0  0.8741256275404816  0.8947917769262543  0.12991749680488343  1.0000
  S   S51       1.0  0.8655647512713541  0.8433039827024577  0.13453051726503687  1.0000
  S   S52       1.0  0.8980423095082347  0.923169725901334  0.1681127384186244  1.0000
  Fe  Fe27      1.0  0.8012203132917218  0.9357241361404661  0.5909706754852885  1.0000
  S   S53       1.0  0.801892860922908  0.8886349020364331  0.5675088852056616  1.0000
  Fe  Fe28      1.0  0.7626927977954211  0.9873347003960957  0.6261369022456841  1.0000
  S   S54       1.0  0.7113840460543682  0.0016370990496512583  0.6466630653203874  1.0000
  S   S55       1.0  0.8941423732451012  0.8914984862111103  0.0809199069450627  1.0000
  S   S56       1.0  0.8196870719588067  0.9072321298986247  0.11579955312653206  1.0000
  Fe  Fe29      1.0  0.607581811373588  0.9736968182995284  0.04251842053412758  1.0000
  S   S57       1.0  0.5737208013010182  0.9324066261561402  0.04822031608048971  1.0000
  S   S58       1.0  0.6069099269038672  0.011288114475819233  0.0791203316043039  1.0000
  Fe  Fe30      1.0  0.5044685570864441  0.05789546156331293  0.4911781716910616  1.0000
  S   S59       1.0  0.541618846327588  0.016944615646368844  0.49045623863839244  1.0000
  S   S60       1.0  0.4839457748189262  0.07821733347771809  0.44640618502490637  1.0000
  Fe  Fe31      1.0  0.5644303311081827  0.9370401319894667  0.9967792329325676  1.0000
  S   S61       1.0  0.49204163456249195  0.946825260789011  0.5235512483313179  1.0000
  Fe  Fe32      1.0  0.620813810475469  0.9042236648091713  0.03476193479380685  1.0000
  S   S62       1.0  0.6303282670983499  0.8580880734962895  0.05832671776693288  1.0000
  S   S63       1.0  0.59399426377068  0.9813268700015564  0.9917981078198235  1.0000
  S   S64       1.0  0.6557469598143201  0.9451312469915845  0.03353104340989055  1.0000
  Fe  Fe33      1.0  0.9591229620125435  0.786244982217387  0.5891308905538627  1.0000
  S   S65       1.0  0.14584722969363106  0.8030498276911984  0.033478181957285136  1.0000
  S   S66       1.0  0.9238508170478148  0.8068920815176874  0.6256615123045082  1.0000
  Fe  Fe34      1.0  0.980143977761121  0.7347118581318365  0.5439780461341404  1.0000
  S   S67       1.0  0.14633269939623905  0.7334736944393725  0.06690898830466052  1.0000
  S   S68       1.0  0.9688570641647067  0.6873379124976241  0.5237859285938099  1.0000
  Fe  Fe35      1.0  0.13363357115471675  0.783063709935864  0.08050520123962568  1.0000
  S   S69       1.0  0.15355701974704838  0.8012992393439017  0.12641481391912784  1.0000
  Fe  Fe36      1.0  0.998538371888898  0.8015987253076832  0.5304519934416959  1.0000
  S   S70       1.0  0.006987144816520852  0.8408869384692175  0.49663583313845355  1.0000
  S   S71       1.0  0.07714119818222764  0.7785957112954591  0.07094744799809116  1.0000
  S   S72       1.0  0.9476238517051407  0.7787526934787679  0.5380464853461453  1.0000
  Fe  Fe37      1.0  0.08920306151802948  0.5207722771868827  0.09175577196287367  1.0000
  S   S73       1.0  0.10571227780261627  0.4701423834932272  0.08992634526845249  1.0000
  S   S74       1.0  0.12768293456971325  0.5577554978895911  0.08112187142806165  1.0000
  Fe  Fe38      1.0  0.015989050965039553  0.5064204568188688  0.11027605585463697  1.0000
  S   S75       1.0  0.02555161198093403  0.4543726339637469  0.1102879560435765  1.0000
  S   S76       1.0  0.8830261474186399  0.4386977916474959  0.6182898679784419  1.0000
  Fe  Fe39      1.0  0.07545376517188074  0.4660315688354944  0.13422966058741834  1.0000
  S   S77       1.0  0.09925996495591116  0.43798351780068095  0.17346846560199353  1.0000
  Fe  Fe40      1.0  0.9661133400096856  0.49800668478111204  0.5511316526176268  1.0000
  S   S78       1.0  0.9691245834294367  0.5060335269692591  0.4994126996031288  1.0000
  S   S79       1.0  0.06343306928744386  0.517546009721836  0.13838901925166067  1.0000
  S   S80       1.0  0.9176503921727241  0.5127037799025296  0.5758862905706167  1.0000
  Fe  Fe41      1.0  0.35753197028608685  0.7964939264211135  0.3281012049767778  1.0000
  S   S81       1.0  0.3521551956224204  0.8488169685274041  0.3310303560824267  1.0000
  S   S82       1.0  0.35187992249842154  0.7709499196197112  0.2824607761955471  1.0000
  Fe  Fe42      1.0  0.36418679835576273  0.7887264335768636  0.3978381303011151  1.0000
  S   S83       1.0  0.35837060062330794  0.8402758398504386  0.40736475394128047  1.0000
  S   S84       1.0  0.37549942847903095  0.7550753687815698  0.4368432056476596  1.0000
  Fe  Fe43      1.0  0.3164394769727337  0.8393619913358727  0.37088390978187785  1.0000
  S   S85       1.0  0.26828457216950435  0.86991814371346  0.3735910276361325  1.0000
  Fe  Fe44      1.0  0.39455026198302273  0.8453035934737099  0.36710718979246354  1.0000
  S   S86       1.0  0.44075099087196234  0.8757428913885048  0.37471344655700306  1.0000
  S   S87       1.0  0.31873698244654614  0.7870365256662941  0.3653254290258792  1.0000
  S   S88       1.0  0.40352948749908507  0.7936040492004377  0.3601570170094496  1.0000
  Fe  Fe45      1.0  0.08729051070580085  0.8338844784252197  0.31332017641650417  1.0000
  S   S89       1.0  0.04246283426756281  0.8073367232390556  0.29410853980739626  1.0000
  S   S90       1.0  0.13261116989155752  0.8036868384843723  0.32851578826893996  1.0000
  Fe  Fe46      1.0  0.048959812908734746  0.8965141902664647  0.3082733605564969  1.0000
  S   S91       1.0  0.0010377855970640226  0.8748052674105731  0.2895237068945084  1.0000
  S   S92       1.0  0.052353375143947556  0.9488916883320934  0.3113600868126335  1.0000
  Fe  Fe47      1.0  0.010868041828537622  0.8381776842662508  0.3259924031168329  1.0000
  S   S93       1.0  0.9691179373948579  0.8170256070682643  0.35487865479252023  1.0000
  Fe  Fe48      1.0  0.037464909975217564  0.8464878958663304  0.25957385064992666  1.0000
  S   S94       1.0  0.024754028708569686  0.8426167955125236  0.2083003047649408  1.0000
  S   S95       1.0  0.056018070016300214  0.8622495785397075  0.34768045050354945  1.0000
  S   S96       1.0  0.0851593294603179  0.8705687161653782  0.27581723057394003  1.0000
  Fe  Fe49      1.0  0.3376135295070184  0.4607982064606948  0.3527560245733286  1.0000
  S   S97       1.0  0.3078430230818318  0.42072000042998564  0.3328132051705178  1.0000
  S   S98       1.0  0.35491032761903735  0.45794602856618805  0.4030785389081629  1.0000
  Fe  Fe50      1.0  0.33536058310205236  0.4972091948315235  0.29208330406267446  1.0000
  S   S99       1.0  0.30568368374635263  0.46012667111516886  0.2671992553974395  1.0000
  S   S100      1.0  0.3512132650670755  0.540911751626935  0.2674133958827281  1.0000
  Fe  Fe51      1.0  0.2742915461318454  0.45828980219666576  0.31097611047963936  1.0000
  S   S101      1.0  0.21624657140074807  0.46216429086327315  0.30692858966775105  1.0000
  Fe  Fe52      1.0  0.34226101524623276  0.42643722797086975  0.2910784925698883  1.0000
  S   S102      1.0  0.3633743732539753  0.3858660772691482  0.2626339450012198  1.0000
  S   S103      1.0  0.3012752972859442  0.4981617734721912  0.3340766998220111  1.0000
  S   S104      1.0  0.37462748584794  0.4636798167876515  0.31279084535809315  1.0000
  Fe  Fe53      1.0  0.0714721654192354  0.3785366839561909  0.37790408442638  1.0000
  S   S105      1.0  0.03024545867205375  0.4160497423329906  0.3800801372158047  1.0000
  S   S106      1.0  0.12323347574622323  0.3867793706501492  0.4002603625453243  1.0000
  Fe  Fe54      1.0  0.025486734651611442  0.33374437998319995  0.3421196747166617  1.0000
  S   S107      1.0  0.9802957105175651  0.36727420024770496  0.34159267434344515  1.0000
  S   S108      1.0  0.02382599789089368  0.2869368915248544  0.3182756321863618  1.0000
  Fe  Fe55      1.0  0.019736681860696326  0.4031423736647977  0.3300579982384179  1.0000
  S   S109      1.0  0.005280843497651677  0.4391356488689303  0.2937588073699755  1.0000
  Fe  Fe56      1.0  0.9949302733866329  0.37679177703619676  0.39139808897559175  1.0000
  S   S110      1.0  0.9564847341844286  0.3774716041107127  0.43060019000670335  1.0000
  S   S111      1.0  0.06425320682578928  0.368677290533631  0.3268085568178672  1.0000
  S   S112      1.0  0.03711414399815838  0.33993012614724477  0.39321155366344834  1.0000
  Fe  Fe57      1.0  0.39598503263494467  0.49878621112051874  0.08411277124707535  1.0000
  S   S113      1.0  0.3402511393178984  0.48750518938427223  0.07696373205532833  1.0000
  S   S114      1.0  0.43491089040969044  0.4655118068334556  0.10625851917918071  1.0000
  Fe  Fe58      1.0  0.38485734409394023  0.5663776532544155  0.06491883277120447  1.0000
  S   S115      1.0  0.3279933009108888  0.5616365845051187  0.05646389108904115  1.0000
  S   S116      1.0  0.41358152483003957  0.6105861086007924  0.05751120901991968  1.0000
  Fe  Fe59      1.0  0.32899352349393574  0.5335677908772845  0.10046525515223127  1.0000
  S   S117      1.0  0.28428894309009745  0.5361281795585976  0.13359685254449738  1.0000
  Fe  Fe60      1.0  0.3524441847240246  0.5784143079576088  0.5245162884681284  1.0000
  S   S118      1.0  0.3376011166449757  0.58689261173281  0.47449354019747986  1.0000
  S   S119      1.0  0.38459231172617697  0.542640590879653  0.11149955357312687  1.0000
  S   S120      1.0  0.4023496998989915  0.5530616659887336  0.5355254067651021  1.0000
  Fe  Fe61      1.0  0.3453510150407289  0.8113324541525959  0.5944661287732126  1.0000
  S   S121      1.0  0.3970198057968668  0.8303638637628332  0.5834431640838259  1.0000
  S   S122      1.0  0.30527540929048597  0.8140528381149275  0.5567633755542342  1.0000
  Fe  Fe62      1.0  0.4141642627069788  0.8223394842770366  0.13245229118037696  1.0000
  S   S123      1.0  0.4266323621944082  0.7761073944081206  0.109827031553852  1.0000
  S   S124      1.0  0.439514744211873  0.835071817412167  0.1779247522021993  1.0000
  Fe  Fe63      1.0  0.4293532244517755  0.8041632957615722  0.06561736642206717  1.0000
  S   S125      1.0  0.4724277668478454  0.7971858136657521  0.031335166045376894  1.0000
  Fe  Fe64      1.0  0.41811405654650197  0.7856276613442661  0.6037188408514861  1.0000
  S   S126      1.0  0.46213590996099974  0.760942002580723  0.5791880337502798  1.0000
  S   S127      1.0  0.42182927037719237  0.8507757516967044  0.08940441265151758  1.0000
  S   S128      1.0  0.3662730344350422  0.7651918646638708  0.6110567408441557  1.0000
  C   C1        1.0  0.39111050660483276  0.6444989664211344  0.07005879527308623  1.0000
  C   C2        1.0  0.49073438926880114  0.6697393125387154  0.5713448223081761  1.0000
  C   C3        1.0  0.49089729375696534  0.7025712373600721  0.5714074548402156  1.0000
  C   C4        1.0  0.356889510470041  0.6993095992702401  0.09115552255352906  1.0000
  C   C5        1.0  0.3414868564869863  0.670162785359209  0.09464634838593607  1.0000
  C   C6        1.0  0.3587078515878159  0.6427231161531125  0.08429624007299866  1.0000
  H   H1        1.0  0.5143542063634903  0.6564852707120119  0.5666122387030285  1.0000
  H   H2        1.0  0.5147055281026248  0.7145598360362875  0.5669306646141369  1.0000
  H   H3        1.0  0.3164580972427656  0.6687170136670362  0.10564639432668171  1.0000
  H   H4        1.0  0.3470329199612338  0.62024508585917  0.08753632339509372  1.0000
  C   C7        1.0  0.3510350351644454  0.4940338422975381  0.42252513023198995  1.0000
  C   C8        1.0  0.34641034735977494  0.521914172413226  0.4057462482381591  1.0000
  C   C9        1.0  0.3418363263752889  0.5504871765822251  0.42171682494452556  1.0000
  C   C10       1.0  0.34240408848566845  0.5511972591653674  0.45446481061054883  1.0000
  C   C11       1.0  0.34720254920229576  0.5233039982267638  0.4712155286376558  1.0000
  C   C12       1.0  0.35149040596523573  0.49475793972428905  0.4552633115369261  1.0000
  H   H5        1.0  0.347092964793325  0.5216139937482732  0.3804781249334571  1.0000
  H   H6        1.0  0.3384966891717304  0.5720634996552492  0.40869823092440594  1.0000
  H   H7        1.0  0.3473030615086611  0.5236159008914878  0.49650945739798197  1.0000
  H   H8        1.0  0.3547003437573622  0.4732401151919553  0.4683537374904065  1.0000
  C   C13       1.0  0.32938102586854967  0.5445351759631993  0.23155367249630687  1.0000
  C   C14       1.0  0.2975796919075523  0.530240257748437  0.22696558413969123  1.0000
  C   C15       1.0  0.28272846472089797  0.5291440133928659  0.19698778191569538  1.0000
  C   C16       1.0  0.2995902248511919  0.5425565773060013  0.17166950911155895  1.0000
  C   C17       1.0  0.3300679656083596  0.5588917635450726  0.1766995770028243  1.0000
  C   C18       1.0  0.345077793533047  0.5597626018578434  0.2066343066520732  1.0000
  H   H9        1.0  0.2846147766306114  0.5198070891857283  0.24650464063863164  1.0000
  H   H10       1.0  0.2589043297722257  0.5169583419971584  0.19320185083943384  1.0000
  H   H11       1.0  0.3423528922137408  0.5704223448408527  0.15743554986905584  1.0000
  H   H12       1.0  0.36950223411203487  0.5711075705250216  0.21022127067607163  1.0000
  C   C19       1.0  0.1910347363774747  0.4396296006399395  0.33207198776318  1.0000
  C   C20       1.0  0.20620421567339242  0.4192466147407795  0.35406691280808333  1.0000
  C   C21       1.0  0.18537981008865323  0.40336026113769474  0.37535582822143926  1.0000
  C   C22       1.0  0.1492996196249068  0.40685229885606583  0.37385411942104674  1.0000
  C   C23       1.0  0.13412158474579705  0.4265984809497721  0.35134457411957337  1.0000
  C   C24       1.0  0.15496100791933776  0.44321759198068533  0.3307596217488093  1.0000
  H   H13       1.0  0.2339133124223635  0.41549599384421676  0.3545880404799102  1.0000
  H   H14       1.0  0.19716070041527245  0.3876452597705353  0.3923723059821311  1.0000
  H   H15       1.0  0.1062770428323061  0.42938377209456535  0.3499960497937589  1.0000
  H   H16       1.0  0.14298263360909425  0.4588726959709714  0.31381123450216064  1.0000
  C   C25       1.0  0.3778249737889402  0.7877074879265766  0.2540233217522663  1.0000
  C   C26       1.0  0.37360861819330393  0.7789644252137367  0.22271188053765814  1.0000
  C   C27       1.0  0.3933628808865154  0.7928856981693421  0.19947248029112938  1.0000
  C   C28       1.0  0.4170201201848265  0.815932522468688  0.20745454282857753  1.0000
  C   C29       1.0  0.4217786109672206  0.8242065026523374  0.23890530352841213  1.0000
  C   C30       1.0  0.4020501458462582  0.810179330843374  0.262217198478941  1.0000
  H   H17       1.0  0.35466831073248956  0.7617988909491443  0.2163947419544906  1.0000
  H   H18       1.0  0.3901393248080528  0.7858168707584754  0.17537010777726258  1.0000
  H   H19       1.0  0.44028462373818145  0.8416656196310569  0.24528577137669555  1.0000
  H   H20       1.0  0.40556251899983053  0.8168018500695616  0.2864837892831983  1.0000
  C   C31       1.0  0.35439319897683114  0.7697907450692777  0.47002051556544183  1.0000
  C   C32       1.0  0.36916172908737016  0.7647256585020236  0.4995174619362688  1.0000
  C   C33       1.0  0.35389623418216953  0.7782781656817555  0.5260104692546174  1.0000
  C   C34       1.0  0.32336800572009444  0.7963548619702377  0.5233566142438303  1.0000
  C   C35       1.0  0.30832523339354734  0.8011440341564438  0.49383545784266364  1.0000
  C   C36       1.0  0.32408136943054483  0.7881453691622703  0.46708052595599453  1.0000
  H   H21       1.0  0.3930088313277314  0.751256318063654  0.5019546014845946  1.0000
  H   H22       1.0  0.3661409727424176  0.7749026632395004  0.5483876235657682  1.0000
  H   H23       1.0  0.28487458526228626  0.8153266771840081  0.49160001302609563  1.0000
  H   H24       1.0  0.3126338138608751  0.7922230470261648  0.44423301566848683  1.0000
  C   C37       1.0  0.2296569773279412  0.8516661212410893  0.363243283369544  1.0000
  C   C38       1.0  0.22791481389071452  0.8190294816840936  0.36266666148188037  1.0000
  C   C39       1.0  0.1978208249096296  0.8046223856108421  0.3522007854889374  1.0000
  C   C40       1.0  0.16933557138736188  0.8227831816638149  0.34214952387963155  1.0000
  C   C41       1.0  0.17055936519363502  0.8554866498665719  0.3433969901199713  1.0000
  C   C42       1.0  0.20069576107998285  0.8699221606092142  0.35416705071716736  1.0000
  H   H25       1.0  0.2495913852744715  0.8048277462140023  0.37059374659437855  1.0000
  H   H26       1.0  0.19673019607553854  0.7793022932947684  0.3516937959487881  1.0000
  H   H27       1.0  0.1484740469612118  0.8696405057433731  0.3358669534886458  1.0000
  H   H28       1.0  0.2018745495880499  0.895238820170235  0.35476138727472056  1.0000
  C   C43       1.0  0.07315552895792732  0.43872515755636093  0.20686576683655103  1.0000
  C   C44       1.0  0.040787723257154296  0.4540124095814708  0.2064244121515964  1.0000
  C   C45       1.0  0.020338341508833624  0.4546496209521493  0.23345685508984806  1.0000
  C   C46       1.0  0.03234096510933093  0.4402480113581248  0.26098774533067487  1.0000
  C   C47       1.0  0.0651741978819671  0.42586855929485756  0.2616275506062897  1.0000
  C   C48       1.0  0.08530702179602279  0.42464003736908595  0.23448253573951558  1.0000
  H   H29       1.0  0.0313394224349175  0.465181929854607  0.1852384112170771  1.0000
  H   H30       1.0  0.9950224735845481  0.466028737916136  0.2329197399308221  1.0000
  H   H31       1.0  0.07508273134060461  0.41559388679080234  0.2829716403294865  1.0000
  H   H32       1.0  0.110228878536488  0.4126347382623402  0.23497283111967904  1.0000
  C   C49       1.0  0.958695077350597  0.47211643380128704  0.47878442465818816  1.0000
  C   C50       1.0  0.9665284635757029  0.46979468912269545  0.44695805332611654  1.0000
  C   C51       1.0  0.9635001249010141  0.4410495418244022  0.4313933277698157  1.0000
  C   C52       1.0  0.9530783990807078  0.41464462925399903  0.44775544186439825  1.0000
  C   C53       1.0  0.9428265579404076  0.41752320944542903  0.47899135020170686  1.0000
  C   C54       1.0  0.9453805265110238  0.44638998508775346  0.49445314523346356  1.0000
  H   H33       1.0  0.976098022724039  0.4898641376331722  0.4345758852989025  1.0000
  H   H34       1.0  0.969555891929497  0.43929220236199523  0.4068109113403991  1.0000
  H   H35       1.0  0.9342518772487138  0.397214064228211  0.49158982603272744  1.0000
  H   H36       1.0  0.9379880927529364  0.44844075791547844  0.5186963335296643  1.0000
  C   C55       1.0  0.9937057965950911  0.8345484078548576  0.4578805324931323  1.0000
  C   C56       1.0  0.9788715180884616  0.8063764005772903  0.44868175036868135  1.0000
  C   C57       1.0  0.970032285426601  0.8014586955175467  0.4171009514152351  1.0000
  C   C58       1.0  0.9764929567392601  0.8245180043872637  0.3947488556413871  1.0000
  C   C59       1.0  0.990478953018895  0.8529690638271944  0.4041859965072116  1.0000
  C   C60       1.0  0.9990431388398733  0.8579737973886986  0.4357019305860614  1.0000
  H   H37       1.0  0.9746818441168226  0.7882108055569738  0.4657666682413322  1.0000
  H   H38       1.0  0.9591900599702027  0.7794152909442466  0.40986323271983116  1.0000
  H   H39       1.0  0.9947907747047156  0.8711494739719848  0.38718500280009505  1.0000
  H   H40       1.0  0.010301924766684012  0.8798878509857416  0.44280721906985987  1.0000
  C   C61       1.0  0.06180827446191417  0.833587081193343  0.18616807092125925  1.0000
  C   C62       1.0  0.061017635613397125  0.8379737899198411  0.15370726722437425  1.0000
  C   C63       1.0  0.08946863493035373  0.8286878859717226  0.13540537005710226  1.0000
  C   C64       1.0  0.11892527373786232  0.8151589073647838  0.14950275560594406  1.0000
  C   C65       1.0  0.12022697840703334  0.8118578720314901  0.18212028328148294  1.0000
  C   C66       1.0  0.09161534416606232  0.8209220528173948  0.20044620390951803  1.0000
  H   H41       1.0  0.03843409630730621  0.8485542453965456  0.14263487165039043  1.0000
  H   H42       1.0  0.08880354537815172  0.8323913647287886  0.11038575513048345  1.0000
  H   H43       1.0  0.14296300685589536  0.8014411031129205  0.19312366091748975  1.0000
  H   H44       1.0  0.09236765016134818  0.8173649334965227  0.22551056821573132  1.0000
  C   C67       1.0  0.9624890309711651  0.6599576992889682  0.553522491497579  1.0000
  C   C68       1.0  0.11216905288982248  0.6510125841012787  0.07037794512045381  1.0000
  C   C69       1.0  0.12790253630046156  0.621250772780789  0.07359509725847611  1.0000
  C   C70       1.0  0.10772235173234379  0.5950091371829909  0.07872571790867913  1.0000
  C   C71       1.0  0.970643356321868  0.6069173887628043  0.5728736379335019  1.0000
  C   C72       1.0  0.9775979486925901  0.6300250617489684  0.5507605208587081  1.0000
  H   H45       1.0  0.12796622184398387  0.6709761581200093  0.06626464719427938  1.0000
  H   H46       1.0  0.15572104750034987  0.6186104507078706  0.07212944959565347  1.0000
  H   H47       1.0  0.9823087595098288  0.5839813464018371  0.5702982888386334  1.0000
  H   H48       1.0  0.9948934959129566  0.6247563587454416  0.5315394099030606  1.0000
  C   C73       1.0  0.49905209843071546  0.891962420504471  0.9908024107739003  1.0000
  C   C74       1.0  0.5221311416625891  0.8664170561698824  0.9875421342287993  1.0000
  C   C75       1.0  0.5131626614205415  0.8367539196043782  0.9984989293766106  1.0000
  C   C76       1.0  0.4810993638298614  0.8326431689126917  0.012732609062653166  1.0000
  C   C77       1.0  0.4341496732368238  0.9431834476205843  0.6022727187843578  1.0000
  C   C78       1.0  0.45192812540829647  0.9544213811467224  0.5761417303063572  1.0000
  H   H49       1.0  0.5469462971106622  0.8694312298932774  0.9767070707120584  1.0000
  H   H50       1.0  0.5314257365433463  0.8172261287682798  0.9967257081922398  1.0000
  H   H51       1.0  0.4181955375702667  0.9590457699504681  0.6161059103115417  1.0000
  H   H52       1.0  0.44989140451453025  0.978965828557122  0.5700050515115794  1.0000
  C   C79       1.0  0.8347983851975047  0.8650471736933836  0.5839827466899722  1.0000
  C   C80       1.0  0.973374864101309  0.7846221800153755  0.03801977556220737  1.0000
  C   C81       1.0  0.004925602913509408  0.7912568419312669  0.02398104762246689  1.0000
  C   C82       1.0  0.8893827147384793  0.8287267319453342  0.6093401832992487  1.0000
  C   C83       1.0  0.8780513439757703  0.8561902876601738  0.6243859559442239  1.0000
  C   C84       1.0  0.8512299100114149  0.8746039818489004  0.6114965108169482  1.0000
  H   H53       1.0  0.9677119678377041  0.7607313996619899  0.04411940144260873  1.0000
  H   H54       1.0  0.02348824249106385  0.772455805282414  0.019475381461980357  1.0000
  H   H55       1.0  0.8902784073385603  0.8634293573466776  0.6458190603082138  1.0000
  H   H56       1.0  0.8431249468860377  0.8960770210855152  0.6230272434941547  1.0000
  C   C85       1.0  0.6867539462885911  0.018185342261054505  0.6160366702418482  1.0000
  C   C86       1.0  0.7270960514076538  0.8668695596085336  0.09383307900427618  1.0000
  C   C87       1.0  0.6966647915983903  0.872423206956698  0.0763750470724888  1.0000
  C   C88       1.0  0.6679339564692429  0.8536963622916337  0.08105090344836252  1.0000
  C   C89       1.0  0.6313393406923754  0.027340119332796897  0.5902244612701099  1.0000
  C   C90       1.0  0.6506214356782182  0.017149483278741107  0.6164077548100731  1.0000
  H   H57       1.0  0.7495859862451172  0.8808352708155557  0.0897664709233951  1.0000
  H   H58       1.0  0.6957351078329345  0.8906563137777344  0.0589296358438387  1.0000
  H   H59       1.0  0.6036341796423745  0.025851623833621495  0.5903679839363154  1.0000
  H   H60       1.0  0.6376521296020682  0.007403622549537969  0.6363700813767096  1.0000
  C   C91       1.0  0.45111326208036095  0.9572051759298655  0.3066992732586088  1.0000
  C   C92       1.0  0.47909496540559604  0.9475211069313091  0.32544849578846713  1.0000
  C   C93       1.0  0.4760325212198205  0.9218733593583796  0.34558884269476453  1.0000
  C   C94       1.0  0.44476511335702495  0.9061172945118783  0.3474794011877146  1.0000
  C   C95       1.0  0.41669921318897807  0.915925702418273  0.32891877047012147  1.0000
  C   C96       1.0  0.4198920385560159  0.9413981480519653  0.30855040217649393  1.0000
  H   H61       1.0  0.5029658156740807  0.9599440931012436  0.3247950820962637  1.0000
  H   H62       1.0  0.4978514887801574  0.9144156617486376  0.35991796843953094  1.0000
  H   H63       1.0  0.3922711592588302  0.904394885947473  0.33069346377941017  1.0000
  H   H64       1.0  0.39802873533164324  0.9489693145860091  0.29430420918267514  1.0000
  C   C97       1.0  0.5643934666394191  0.06268942685718004  0.37019022112094724  1.0000
  C   C98       1.0  0.5297780974155611  0.05549687367346379  0.36470736643579565  1.0000
  C   C99       1.0  0.5050297746750028  0.06078106669997041  0.38803160007846016  1.0000
  C   C100      1.0  0.5150826450412483  0.0720305018282772  0.4173936316455058  1.0000
  C   C101      1.0  0.5498688787018126  0.07811846684180734  0.4234216151497073  1.0000
  C   C102      1.0  0.5744512555733475  0.07392597988961258  0.39963008126659744  1.0000
  H   H65       1.0  0.5219591076583304  0.04567405824533699  0.3425999476144741  1.0000
  H   H66       1.0  0.4782042748322518  0.055629675702890236  0.3834645172133554  1.0000
  H   H67       1.0  0.557763958212888  0.08650053218917919  0.446265347402283  1.0000
  H   H68       1.0  0.6012725463302714  0.0791633560628775  0.4041095719355777  1.0000
  C   C103      1.0  0.6066791555437645  0.968342333056805  0.1768288308399905  1.0000
  C   C104      1.0  0.6145569573617952  0.9492145699611443  0.1509620875124503  1.0000
  C   C105      1.0  0.6153161286401199  0.9622646833610806  0.12075180136447185  1.0000
  C   C106      1.0  0.6084562433010521  0.9944328049013675  0.1165365125513118  1.0000
  C   C107      1.0  0.6018458900296693  0.013463204779730287  0.1425324524629923  1.0000
  C   C108      1.0  0.6006556051314255  0.0004288957303884011  0.17241367567146432  1.0000
  H   H69       1.0  0.6193802564277916  0.9243621925780352  0.15410985464533744  1.0000
  H   H70       1.0  0.621070728412591  0.9474609080139552  0.10078413420945997  1.0000
  H   H71       1.0  0.5970374922062746  0.03830297482415923  0.13964876368847368  1.0000
  H   H72       1.0  0.5947544081849548  0.01549607239335371  0.19191306752419449  1.0000
  C   C109      1.0  0.47932668185051874  0.36393282713363295  0.2710363617718199  1.0000
  C   C110      1.0  0.4666543000724139  0.39447126014669176  0.2764048660761852  1.0000
  C   C111      1.0  0.43103521325562755  0.40126853334542834  0.2744599481459557  1.0000
  C   C112      1.0  0.4080160026530386  0.37769374564502134  0.2664446188922907  1.0000
  C   C113      1.0  0.4208503053042916  0.3473178460942004  0.26029634115153116  1.0000
  C   C114      1.0  0.4563987352599296  0.34031874344002305  0.26300917358976167  1.0000
  H   H73       1.0  0.48433590723106773  0.41277165999886184  0.2826429601083434  1.0000
  H   H74       1.0  0.42161084693200274  0.42478958331080946  0.27895288933593765  1.0000
  H   H75       1.0  0.4031956624713332  0.3290104191326481  0.25396043476604885  1.0000
  H   H76       1.0  0.46599649524587994  0.31667922295256995  0.25874958200519194  1.0000
  C   C115      1.0  0.48634962975955914  0.173020145236507  0.2436305098849467  1.0000
  C   C116      1.0  0.4744298335818942  0.14249903167593017  0.24626808525670468  1.0000
  C   C117      1.0  0.49200941662716996  0.1178379829363776  0.23092302715460059  1.0000
  C   C118      1.0  0.5210870271487119  0.1239118351150501  0.21278994624999586  1.0000
  C   C119      1.0  0.5316503947717245  0.15465425088167528  0.2087283365394779  1.0000
  C   C120      1.0  0.5142163304373703  0.1791552981584186  0.22426716754265932  1.0000
  H   H77       1.0  0.45237857994010605  0.13779813429049734  0.26082865910798975  1.0000
  H   H78       1.0  0.48312135650958643  0.09413265278019467  0.23321625638197002  1.0000
  H   H79       1.0  0.5540014657399206  0.15940454435543772  0.1945835870036899  1.0000
  H   H80       1.0  0.5222165290239968  0.2029755179809902  0.22169488666043152  1.0000
  C   C121      1.0  0.8696150001406634  0.4708134679595766  0.11630313344795135  1.0000
  C   C122      1.0  0.9401041336783117  0.36096442647367993  0.6407783382062521  1.0000
  C   C123      1.0  0.930664366241458  0.39142951060811787  0.6311135515080181  1.0000
  C   C124      1.0  0.9284169072277916  0.5081945318294085  0.11876599468304538  1.0000
  C   C125      1.0  0.9305574325640937  0.4770196756215067  0.12878772724526555  1.0000
  C   C126      1.0  0.9010254677258381  0.45847102286531727  0.12793741708193024  1.0000
  H   H81       1.0  0.9669612796117677  0.35327987905777564  0.6402646751554305  1.0000
  H   H82       1.0  0.9502984448292648  0.40721938051770556  0.6234739682387176  1.0000
  H   H83       1.0  0.9547764863741884  0.46740657825875  0.13765796624369345  1.0000
  H   H84       1.0  0.9025150121674369  0.43481238706479775  0.13661354164688783  1.0000
  C   C127      1.0  0.44164519712739675  0.43026088251678907  0.0858811500983269  1.0000
  C   C128      1.0  0.4220257510092767  0.4289974893185339  0.5821002498907063  1.0000
  C   C129      1.0  0.45578736798268943  0.4163498772533711  0.584251859842963  1.0000
  C   C130      1.0  0.4578302758790496  0.3754947855125143  0.05195317667763444  1.0000
  C   C131      1.0  0.43473543091134403  0.39803409624994895  0.03948832231696708  1.0000
  C   C132      1.0  0.42684356575241367  0.4255795811241919  0.05634080262008179  1.0000
  H   H85       1.0  0.4003601439711582  0.41359654045117467  0.5795215081307296  1.0000
  H   H86       1.0  0.4599369635927344  0.3912910136698864  0.5837816915960408  1.0000
  H   H87       1.0  0.42344016135342777  0.39443002612396116  0.01654829458665663  1.0000
  H   H88       1.0  0.40961544104181363  0.4432652016456455  0.04635873093248666  1.0000
  C   C133      1.0  0.5854607183928136  0.22669838460014888  0.1281088307704639  1.0000
  C   C134      1.0  0.5697108224151964  0.21724464039986097  0.15576556614023895  1.0000
  C   C135      1.0  0.5849448621811586  0.22409392383782806  0.18474755404515744  1.0000
  C   C136      1.0  0.6158979220414346  0.2400330788777495  0.18627775384209014  1.0000
  C   C137      1.0  0.6326797064717032  0.2481259280355858  0.15862269178472194  1.0000
  C   C138      1.0  0.6172243858118378  0.24172521831588864  0.12950815698432935  1.0000
  H   H89       1.0  0.5450542251142128  0.20582470272031178  0.15491778811469517  1.0000
  H   H90       1.0  0.5726920556327142  0.21751095246384872  0.20617611817201253  1.0000
  H   H91       1.0  0.6568081911273701  0.2603519118233852  0.15964216292593955  1.0000
  H   H92       1.0  0.6298092601618668  0.24839744348653545  0.10810469017304444  1.0000
  C   C139      1.0  0.5222758581105633  0.309943251238351  0.4378395848862289  1.0000
  C   C140      1.0  0.5274183017376874  0.3171339245407788  0.4063243713845043  1.0000
  C   C141      1.0  0.5433031765001719  0.2950851818163053  0.3863367587825267  1.0000
  C   C142      1.0  0.5535530343570816  0.265587687445897  0.39768495943188015  1.0000
  C   C143      1.0  0.5482647318796002  0.25825098332108004  0.4291619533596432  1.0000
  C   C144      1.0  0.5325231104198916  0.28040419107397624  0.44920149452708646  1.0000
  H   H93       1.0  0.519500299869197  0.3399193162213784  0.3973984173114816  1.0000
  H   H94       1.0  0.5478108027204428  0.3011552536756194  0.36218296290744945  1.0000
  H   H95       1.0  0.5559310004460755  0.23537675018519272  0.43795513342886583  1.0000
  H   H96       1.0  0.5275163461773656  0.27435726120157516  0.47322158701542616  1.0000
  C   C145      1.0  0.6645689255522379  0.34881781541922063  0.10447616995279485  1.0000
  C   C146      1.0  0.7119637068094989  0.2992999391579229  0.5573773151853286  1.0000
  C   C147      1.0  0.7357351701876113  0.29389128215529475  0.581805884923946  1.0000
  C   C148      1.0  0.7298037948375812  0.31883920983033126  0.1063964701968651  1.0000
  C   C149      1.0  0.6998383161842194  0.30128780024625385  0.1082195370070578  1.0000
  C   C150      1.0  0.6673324581376007  0.31631192226218474  0.10752104163948159  1.0000
  H   H97       1.0  0.7176906835462259  0.2907209442094323  0.5340817382836118  1.0000
  H   H98       1.0  0.7597534525989752  0.28124503933926914  0.5773075909918648  1.0000
  H   H99       1.0  0.7016926647872057  0.27597841546959756  0.10959767795423542  1.0000
  H   H100      1.0  0.6442684273820309  0.302688945758249  0.10890180838700778  1.0000
  C   C151      1.0  0.9499518358815684  0.004600373088939014  0.30467586443148437  1.0000
  C   C152      1.0  0.9502617088756611  0.9730983520689396  0.31386124964998785  1.0000
  C   C153      1.0  0.981532936930836  0.9557704627951016  0.31593480905824606  1.0000
  C   C154      1.0  0.012774154603220067  0.9699389070883992  0.30897215017082724  1.0000
  C   C155      1.0  0.012553163308609783  0.0013588937208519614  0.29966843010878547  1.0000
  C   C156      1.0  0.9812465897749595  0.01854167332012313  0.297283227543994  1.0000
  H   H101      1.0  0.9266368457321704  0.9620336338656672  0.3197129963114272  1.0000
  H   H102      1.0  0.9815445780976317  0.9317807851961301  0.32388175092525223  1.0000
  H   H103      1.0  0.036672176839763315  0.012484722518405933  0.29438392805585234  1.0000
  H   H104      1.0  0.981392038200936  0.042856530505026136  0.29021796692028246  1.0000
  C   C157      1.0  0.8207836221064917  0.9243175955675476  0.24821324979566212  1.0000
  C   C158      1.0  0.8461023415685517  0.9471699642786882  0.24673384562220566  1.0000
  C   C159      1.0  0.8703806495851092  0.9464849000646708  0.2224882749997768  1.0000
  C   C160      1.0  0.8688716916509255  0.9233254677705358  0.19931515077551928  1.0000
  C   C161      1.0  0.8436691324755237  0.9004148155801032  0.20095298994764824  1.0000
  C   C162      1.0  0.820017431001886  0.9006311206730349  0.22561572835964397  1.0000
  H   H105      1.0  0.8469309042932737  0.965624106647151  0.26401695888851945  1.0000
  H   H106      1.0  0.8896515259785314  0.9644079462896432  0.22127710328451802  1.0000
  H   H107      1.0  0.842409868228109  0.8823156024879862  0.18335586381430213  1.0000
  H   H108      1.0  0.8011889886935114  0.8823967970704246  0.22713638540426445  1.0000
  C   C163      1.0  0.8467502656627138  0.9673186555503999  0.452958105337335  1.0000
  C   C164      1.0  0.8305015556053075  0.9565258109247585  0.4797774598182528  1.0000
  C   C165      1.0  0.8236193026022713  0.9770959236226806  0.5046605522606631  1.0000
  C   C166      1.0  0.8327493585800031  0.008564604940615839  0.5027621715073716  1.0000
  C   C167      1.0  0.8497482154668674  0.019242845512416062  0.4762166284818063  1.0000
  C   C168      1.0  0.8569715950500226  0.9985155538901217  0.4514064315713794  1.0000
  H   H109      1.0  0.8223881104441282  0.9324593925076644  0.48102852931849166  1.0000
  H   H110      1.0  0.810423617445321  0.9685515727314845  0.5249255150299129  1.0000
  H   H111      1.0  0.8572995655399362  0.043435739169072285  0.47478035111847994  1.0000
  H   H112      1.0  0.8708746998274481  0.006589271420446963  0.43128439366216187  1.0000
  C   C169      1.0  0.9313465291115541  0.2262719661843665  0.3400025205026919  1.0000
  C   C170      1.0  0.964983864584684  0.21359473731270498  0.34044925695288436  1.0000
  C   C171      1.0  0.9930656450611659  0.2323990735637689  0.3334403071843958  1.0000
  C   C172      1.0  0.9878387811606089  0.26424710256119033  0.3269189136393761  1.0000
  C   C173      1.0  0.9541433510702031  0.2771197899498134  0.3265112748407501  1.0000
  C   C174      1.0  0.925823502903089  0.25795446247430004  0.33250822792428386  1.0000
  H   H113      1.0  0.9694165297336965  0.18914268396047376  0.34616843007574827  1.0000
  H   H114      1.0  0.019015582750700366  0.22231868573578584  0.3335134563199477  1.0000
  H   H115      1.0  0.9498561024980341  0.30160981744462173  0.32095948679824304  1.0000
  H   H116      1.0  0.8998087721920631  0.2677325670132866  0.33152345627165697  1.0000
  C   C175      1.0  0.7881967704841607  0.2519826874601147  0.45667325900407885  1.0000
  C   C176      1.0  0.817619985550855  0.2337614173912636  0.44963736095358264  1.0000
  C   C177      1.0  0.8417103381663568  0.22618828982830155  0.47316139445007427  1.0000
  C   C178      1.0  0.8365188402803765  0.2368534640321785  0.5038057241568427  1.0000
  C   C179      1.0  0.8068731358510399  0.2548049928915816  0.5111014379794833  1.0000
  C   C180      1.0  0.7826635665702298  0.26236715936881555  0.487471088062762  1.0000
  H   H117      1.0  0.8218828170534694  0.2254564127395677  0.4260214482269981  1.0000
  H   H118      1.0  0.864419392360976  0.2120000527460662  0.4675797581060283  1.0000
  H   H119      1.0  0.8026881787657313  0.2628628636650448  0.5348369968058038  1.0000
  H   H120      1.0  0.7598364924826619  0.276384828621834  0.4929435511925768  1.0000
  C   C181      1.0  0.8356713561677037  0.3258903664659872  0.26536460064399414  1.0000
  C   C182      1.0  0.8599722220551471  0.3012683221366321  0.26250444458263456  1.0000
  C   C183      1.0  0.8831432592210315  0.30056908559425555  0.23740144495268423  1.0000
  C   C184      1.0  0.8824020543884822  0.32478502981857804  0.21540664172252103  1.0000
  C   C185      1.0  0.8595826013566399  0.350368150694173  0.21939776608271272  1.0000
  C   C186      1.0  0.8360284444260764  0.35081129178788356  0.24421511349636166  1.0000
  H   H121      1.0  0.8609597709029226  0.28271134837415496  0.2795186546922961  1.0000
  H   H122      1.0  0.9013087127188806  0.281057044950384  0.23480434678294312  1.0000
  H   H123      1.0  0.8602122400678468  0.36997090074150346  0.20349946701029903  1.0000
  H   H124      1.0  0.8178299919471508  0.37029981402591594  0.2467668964996939  1.0000
  C   C187      1.0  0.7443636080306644  0.14394274056046702  0.311205399771375  1.0000
  C   C188      1.0  0.7381618687340207  0.1450154532846963  0.3433891292488537  1.0000
  C   C189      1.0  0.7399344966125722  0.11744039040357168  0.36102512454627766  1.0000
  C   C190      1.0  0.7485825873500431  0.08886079603034691  0.3466003754790802  1.0000
  C   C191      1.0  0.7538539849068129  0.08761940141441227  0.31424047085701845  1.0000
  C   C192      1.0  0.7515328074890975  0.11519074872123891  0.29646909063022625  1.0000
  H   H125      1.0  0.7321476201435868  0.16716439592561125  0.3547695965080778  1.0000
  H   H126      1.0  0.7355840054898874  0.11840771979978615  0.3860261698756138  1.0000
  H   H127      1.0  0.7597544337255683  0.06543578906796066  0.30295449725307677  1.0000
  H   H128      1.0  0.7561707950221536  0.11433837350774678  0.2715097971073116  1.0000
  Fe  Fe65      1.0  0.929841544374778  0.18790020499761695  0.8563665970419642  1.0000
  S   S129      1.0  0.8783496693971641  0.174520210217934  0.8749820879208267  1.0000
  S   S130      1.0  0.973020925419319  0.15371371419635796  0.8452876226174898  1.0000
  Fe  Fe66      1.0  0.9062042400672448  0.25469243602541414  0.8427825934497621  1.0000
  S   S131      1.0  0.8521504753071583  0.2472588841651149  0.859844429421666  1.0000
  S   S132      1.0  0.921129801646258  0.3002498798441075  0.8205842705366234  1.0000
  Fe  Fe67      1.0  0.8786457196886105  0.22127032600899982  0.8990817071494229  1.0000
  S   S133      1.0  0.8596239261090619  0.22424670556948675  0.948483302895699  1.0000
  Fe  Fe68      1.0  0.8563819443687848  0.2013550888002604  0.8343919982992877  1.0000
  S   S134      1.0  0.8136971978581321  0.1790021403001867  0.8072012874141873  1.0000
  S   S135      1.0  0.9326119269901813  0.23240089087463606  0.884405588351735  1.0000
  S   S136      1.0  0.9078096703885898  0.21105941280984378  0.8135860266337651  1.0000
  Fe  Fe69      1.0  0.9712251953878783  0.9412757316323193  0.832734455217579  1.0000
  S   S137      1.0  0.9181613709745032  0.9216010161197392  0.8297372139929748  1.0000
  S   S138      1.0  0.009742790039813487  0.9197562838881082  0.799448568462283  1.0000
  Fe  Fe70      1.0  0.9518162893029267  0.9869045634353314  0.8844350125874149  1.0000
  S   S139      1.0  0.8973218208880482  0.9707029449931818  0.8864475911008862  1.0000
  S   S140      1.0  0.9646870781583146  0.02545500608167095  0.9181255888620065  1.0000
  Fe  Fe71      1.0  0.9205981551785123  0.9223767033969776  0.8819642295447736  1.0000
  S   S141      1.0  0.9068356655330737  0.8802635220089183  0.9100052452711558  1.0000
  Fe  Fe72      1.0  0.899718995372264  0.9715239913695516  0.8342480587917195  1.0000
  S   S142      1.0  0.8539528063961337  0.9905285968688405  0.8074341558078556  1.0000
  S   S143      1.0  0.9752575218583653  0.9382900456417811  0.8850548077558846  1.0000
  S   S144      1.0  0.9526888629700208  0.9916074766522232  0.8322023264361917  1.0000
  Fe  Fe73      1.0  0.5332802336551226  0.3041050006752227  0.5737062644684388  1.0000
  S   S145      1.0  0.5722121198221183  0.33786774485040855  0.5921115131819678  1.0000
  S   S146      1.0  0.5108993067726434  0.2650193186572278  0.6014674504304429  1.0000
  Fe  Fe74      1.0  0.5844427204357614  0.3011013716645395  0.007096820152419081  1.0000
  S   S147      1.0  0.5674158982425545  0.3475693137640831  0.02689790314837559  1.0000
  S   S148      1.0  0.601334861681204  0.29666121638687803  0.9570336425090439  1.0000
  Fe  Fe75      1.0  0.5966179573604593  0.33213697590248126  0.5447715896810857  1.0000
  S   S149      1.0  0.6522950433357627  0.32332995209020715  0.5317765382269085  1.0000
  Fe  Fe76      1.0  0.5380044525444576  0.37436938325817887  0.5690223040029748  1.0000
  S   S150      1.0  0.5262253459090512  0.4208972806784292  0.5920709857100805  1.0000
  S   S151      1.0  0.5604305872528726  0.29520685419646714  0.5283658887041648  1.0000
  S   S152      1.0  0.4970539139831082  0.3410843866676918  0.5544341849041443  1.0000
  Fe  Fe77      1.0  0.8441411815724145  0.211273166058256  0.6432630929838989  1.0000
  S   S153      1.0  0.8391112341401671  0.25674735459525133  0.6694896787731921  1.0000
  S   S154      1.0  0.8392161643338119  0.16312912220672238  0.6630122842591103  1.0000
  Fe  Fe78      1.0  0.8811981837630063  0.3456607656989082  0.06946918917916811  1.0000
  S   S155      1.0  0.8276692627225091  0.3668647521930348  0.0681671812592588  1.0000
  S   S156      1.0  0.9096576799108341  0.342542402918  0.023577265044163687  1.0000
  Fe  Fe79      1.0  0.8830011251440265  0.27201902279652496  0.6398283032055004  1.0000
  S   S157      1.0  0.9257096185619045  0.30116815018553356  0.6591073320111849  1.0000
  Fe  Fe80      1.0  0.8153131721621831  0.33079342769142916  0.10416682839162239  1.0000
  S   S158      1.0  0.7698938888081625  0.29904415231316056  0.10462282334239248  1.0000
  S   S159      1.0  0.8916135857288685  0.224875054621123  0.6176952846569835  1.0000
  S   S160      1.0  0.8674505623736596  0.3070190764265155  0.10231975741676025  1.0000
  Fe  Fe81      1.0  0.4727089715761931  0.33497190994189613  0.8325059668848497  1.0000
  S   S161      1.0  0.41756574969400106  0.321432748309417  0.8259174024698136  1.0000
  S   S162      1.0  0.48412891074261316  0.3622660662814319  0.8757582329965359  1.0000
  Fe  Fe82      1.0  0.49564329524948936  0.3052719384926203  0.7715574503856352  1.0000
  S   S163      1.0  0.44212577390090785  0.29014350424544577  0.7592533848564265  1.0000
  S   S164      1.0  0.5429614573875106  0.2955956541356095  0.742583612897132  1.0000
  Fe  Fe83      1.0  0.42528308868440684  0.33771597956792976  0.7767092143403365  1.0000
  S   S165      1.0  0.38671683000109497  0.370094003078453  0.7528305567357235  1.0000
  Fe  Fe84      1.0  0.440228099687934  0.27549960453411926  0.8095921726092101  1.0000
  S   S166      1.0  0.41875592668792627  0.22890889739949752  0.82238903098302  1.0000
  S   S167      1.0  0.47918314760797515  0.3543343616314331  0.784417138539454  1.0000
  S   S168      1.0  0.494881164936089  0.2875137949155732  0.8207877864078862  1.0000
  Fe  Fe85      1.0  0.5882013847718695  0.032249684043936355  0.8042641815514913  1.0000
  S   S169      1.0  0.5375436105201701  0.036091335372041344  0.8291796609360574  1.0000
  S   S170      1.0  0.6317835664445721  0.9974418148653662  0.8114978803466516  1.0000
  Fe  Fe86      1.0  0.5665694090318154  0.07978043566891513  0.7544675843785016  1.0000
  S   S171      1.0  0.5136429856977607  0.08747593770076056  0.7742612463864508  1.0000
  S   S172      1.0  0.586559662320315  0.10256533277403279  0.7113633838614336  1.0000
  Fe  Fe87      1.0  0.5415928292781712  0.08795253733010888  0.8204538828326629  1.0000
  S   S173      1.0  0.5345174900738143  0.12705751695448342  0.855363381170065  1.0000
  Fe  Fe88      1.0  0.5141066159352894  0.03532910753168572  0.780772832654563  1.0000
  S   S174      1.0  0.4717576049762316  0.004490883066015083  0.763056033921294  1.0000
  S   S175      1.0  0.5948157325310927  0.08401721085401204  0.7998881135496081  1.0000
  S   S176      1.0  0.5646846402075182  0.02774310516471079  0.7566132183221665  1.0000
  Fe  Fe89      1.0  0.8385394323754451  0.8985761033511893  0.06707544541756949  1.0000
  S   S177      1.0  0.8258574899445426  0.8476673058769715  0.0664738059420722  1.0000
  S   S178      1.0  0.8232475789689341  0.9287642804299472  0.026457683474919058  1.0000
  Fe  Fe90      1.0  0.8396346653100583  0.9786386789197569  0.6347783889465334  1.0000
  S   S179      1.0  0.7955316344736179  0.9462576099975715  0.6422997358722993  1.0000
  S   S180      1.0  0.8877536966356149  0.9800822462531417  0.6639720774089232  1.0000
  Fe  Fe91      1.0  0.8802862001810922  0.8407972975088629  0.08387438746493481  1.0000
  S   S181      1.0  0.9125493338017565  0.7999655648703734  0.06633259599074637  1.0000
  Fe  Fe92      1.0  0.8123564396546218  0.8554942874756907  0.11676357353207512  1.0000
  S   S182      1.0  0.7654134468037949  0.8362873750936369  0.1392596879628385  1.0000
  S   S183      1.0  0.8480220111253932  0.9646901929697077  0.5849858946870913  1.0000
  S   S184      1.0  0.8063903834443252  0.02089246981052817  0.6233737702039269  1.0000
  Fe  Fe93      1.0  0.5010337774360122  0.05929739199026085  0.5616024685210929  1.0000
  S   S185      1.0  0.5371188131487914  0.017791659380320457  0.5674217711099969  1.0000
  S   S186      1.0  0.4780003774470931  0.08543614703812064  0.6023085789596577  1.0000
  Fe  Fe94      1.0  0.6393595011978545  0.948757922150709  0.9830951271326641  1.0000
  S   S187      1.0  0.6086047563973425  0.905061835519358  0.9836061947201824  1.0000
  S   S188      1.0  0.6793620057119093  0.9508092972742563  0.9455863715835179  1.0000
  Fe  Fe95      1.0  0.50733252864504  0.9972782018167214  0.5273416073575818  1.0000
  S   S189      1.0  0.5106834634813774  0.9295240947849446  0.9789025201661706  1.0000
  Fe  Fe96      1.0  0.5680087058274416  0.04136067101627239  0.5302231723916643  1.0000
  S   S190      1.0  0.6253347904772958  0.048884225013210436  0.5294682936338082  1.0000
  S   S191      1.0  0.4680316214835593  0.03658317212557605  0.5251166949992381  1.0000
  S   S192      1.0  0.5338312255811299  0.08438250178799622  0.5273496680941625  1.0000
  Fe  Fe97      1.0  0.08989035322281524  0.7946855314435073  0.02266224298519348  1.0000
  S   S193      1.0  0.007317886459351053  0.8128567340741741  0.5810812730178314  1.0000
  S   S194      1.0  0.053388216268447586  0.8303560416369586  0.001301226967762581  1.0000
  Fe  Fe98      1.0  0.09070789375024324  0.7306166228505782  0.053074568681091394  1.0000
  S   S195      1.0  0.03035493264021505  0.7570294281753895  0.5319327320513256  1.0000
  S   S196      1.0  0.05561966197419932  0.6910378662296948  0.06430335787832742  1.0000
  Fe  Fe99      1.0  0.03443821426235827  0.7661693639279819  0.5835525494279848  1.0000
  S   S197      1.0  0.0839842653947458  0.7592180571166277  0.6106706330223132  1.0000
  Fe  Fe100     1.0  0.15345849260530442  0.7527786876076427  0.0187299978112907  1.0000
  S   S198      1.0  0.19937266166979883  0.7333496105677989  0.9925152628577194  1.0000
  S   S199      1.0  0.9868731330067623  0.740029079641734  0.5957581379215323  1.0000
  S   S200      1.0  0.0984668907419286  0.7461112448054862  0.0035681418507336193  1.0000
  Fe  Fe101     1.0  0.9535526829855782  0.5357704045056467  0.6096118642673205  1.0000
  S   S201      1.0  0.0018358454809854763  0.5238481421814117  0.5828995225377628  1.0000
  S   S202      1.0  0.9400681980548481  0.584729275641911  0.6259503625020327  1.0000
  Fe  Fe102     1.0  0.92690111440829  0.4693246064991146  0.6045085704281948  1.0000
  S   S203      1.0  0.9725640571927056  0.45229055274689905  0.5765391160304643  1.0000
  S   S204      1.0  0.9650851049065545  0.531542270605277  0.11752893686853305  1.0000
  Fe  Fe103     1.0  0.0033662229787836395  0.4798870979604547  0.6111349110605463  1.0000
  S   S205      1.0  0.05276670664620742  0.4588617991060185  0.6303299671213716  1.0000
  Fe  Fe104     1.0  0.05483953265169261  0.4629633527810043  0.06612508050474486  1.0000
  S   S206      1.0  0.048973308129290904  0.4314343596283819  0.024406858971441903  1.0000
  S   S207      1.0  0.9579094799644233  0.4938056525584132  0.6411201188268908  1.0000
  S   S208      1.0  0.040875160137544775  0.5140334032619152  0.06371867722408031  1.0000
  Fe  Fe105     1.0  0.352582359597094  0.8265965952363598  0.8494886956149776  1.0000
  S   S209      1.0  0.36217325871064127  0.8674014592548726  0.818104397428664  1.0000
  S   S210      1.0  0.3713083303863787  0.7778409663097815  0.8380436138207964  1.0000
  Fe  Fe106     1.0  0.3042626776534179  0.8641954375387978  0.8921862265810392  1.0000
  S   S211      1.0  0.30971310502501836  0.9080788274493582  0.8642748059135857  1.0000
  S   S212      1.0  0.26428126161544063  0.865734274466015  0.9299818534760738  1.0000
  Fe  Fe107     1.0  0.305305489322298  0.8766694673951987  0.8225351312131473  1.0000
  S   S213      1.0  0.26890290750460355  0.8849641267769448  0.7824884487218973  1.0000
  Fe  Fe108     1.0  0.3660109081698482  0.8945659317411593  0.8629629454106936  1.0000
  S   S214      1.0  0.40511286768696525  0.9310011252749195  0.8744804219235092  1.0000
  S   S215      1.0  0.2952676678063157  0.8338478985485221  0.8505374282671699  1.0000
  S   S216      1.0  0.36111150963949573  0.85281945990493  0.8945050447610484  1.0000
  Fe  Fe109     1.0  0.16929501830930827  0.7438548799886162  0.7853008117584166  1.0000
  S   S217      1.0  0.14090781925614193  0.6988478144478891  0.783131642585943  1.0000
  S   S218      1.0  0.22009162380827973  0.747124139286437  0.7608543894927756  1.0000
  Fe  Fe110     1.0  0.11860338205164056  0.7739990519933524  0.8314240733307969  1.0000
  S   S219      1.0  0.08629683524717136  0.7312600456058375  0.8338241839332475  1.0000
  S   S220      1.0  0.10594822608644883  0.8155807007522666  0.8620882449654113  1.0000
  Fe  Fe111     1.0  0.13688620801250795  0.7045008695680091  0.835151910152703  1.0000
  S   S221      1.0  0.15278494074360438  0.6658933549914015  0.8681545845805092  1.0000
  Fe  Fe112     1.0  0.09356747059866821  0.7302121478134532  0.7817313125670838  1.0000
  S   S222      1.0  0.048733258532998036  0.724824999954534  0.7491639380208388  1.0000
  S   S223      1.0  0.16883714004539185  0.7474834493459787  0.8375277404690398  1.0000
  S   S224      1.0  0.1224263459581072  0.7750234710145872  0.7791170490219991  1.0000
  Fe  Fe113     1.0  0.30061772095902295  0.5870225300071835  0.844734645081447  1.0000
  S   S225      1.0  0.2899077858933788  0.5376830525118266  0.8305696800564496  1.0000
  S   S226      1.0  0.28230990846966914  0.606859013546683  0.8905886012586084  1.0000
  Fe  Fe114     1.0  0.34072149249115424  0.5999957688208214  0.7856551509029395  1.0000
  S   S227      1.0  0.3343208265678243  0.5514232282382734  0.7666659860815613  1.0000
  S   S228      1.0  0.3680266414047611  0.6334926873239686  0.7546926145870075  1.0000
  Fe  Fe115     1.0  0.2798766244935867  0.5580506004923302  0.7830623321161536  1.0000
  S   S229      1.0  0.23467489434509162  0.5448854968909584  0.7534775779250451  1.0000
  Fe  Fe116     1.0  0.34528737797919  0.5358633089195493  0.8157402057816159  1.0000
  S   S230      1.0  0.3799461118513259  0.4960411373769426  0.831300738170681  1.0000
  S   S231      1.0  0.2851531702191387  0.6078204953230945  0.798582937046235  1.0000
  S   S232      1.0  0.35712019537210843  0.5839992813565935  0.8335408331050352  1.0000
  Fe  Fe117     1.0  0.14673728377198447  0.4156811777280544  0.8122913257509715  1.0000
  S   S233      1.0  0.12525969371879664  0.46466825037152  0.8174601921354905  1.0000
  S   S234      1.0  0.1990384074300069  0.4075709567472361  0.7907882364564363  1.0000
  Fe  Fe118     1.0  0.08733358289560988  0.3873122238208345  0.8467419902284178  1.0000
  S   S235      1.0  0.06036351513961402  0.43367206934435637  0.854991580451414  1.0000
  S   S236      1.0  0.06909701071715912  0.3414558537525013  0.8653620278813122  1.0000
  Fe  Fe119     1.0  0.07465094896809066  0.44341938955806176  0.805270235008579  1.0000
  S   S237      1.0  0.037016903831113446  0.4708671572627963  0.7755222467745793  1.0000
  Fe  Fe120     1.0  0.113331452549702  0.45093626407704734  0.8664890910549726  1.0000
  S   S238      1.0  0.124789949262198  0.4841819139707169  0.9059769841909252  1.0000
  S   S239      1.0  0.0969325609006797  0.39526048927259955  0.7956303309729397  1.0000
  S   S240      1.0  0.13925790696406626  0.4036535900326186  0.8626914237895528  1.0000
  Fe  Fe121     1.0  0.37180827473030514  0.5290159253382114  0.5723587969661849  1.0000
  S   S241      1.0  0.32097578835875007  0.5514443391609118  0.5584453435633508  1.0000
  S   S242      1.0  0.3738741529553131  0.47690832353149  0.5800215571182903  1.0000
  Fe  Fe122     1.0  0.40897445498179374  0.590850517464535  0.5715286596169789  1.0000
  S   S243      1.0  0.36154051901661455  0.6184030055186771  0.5572552709327191  1.0000
  S   S244      1.0  0.46072872584433716  0.6129393236515861  0.5766945549614212  1.0000
  Fe  Fe123     1.0  0.3349659362917125  0.5891330441015156  0.5925999365966113  1.0000
  S   S245      1.0  0.29534457278037013  0.6106087107608353  0.6249143232560378  1.0000
  Fe  Fe124     1.0  0.3435955783432933  0.5164262843792422  0.03339280270503342  1.0000
  S   S246      1.0  0.3160553108485948  0.5009761104765234  0.9898175043000809  1.0000
  S   S247      1.0  0.3833058908373338  0.5642530502213491  0.6097574601779563  1.0000
  S   S248      1.0  0.4007977146797086  0.5231800284546946  0.03791693166262089  1.0000
  Fe  Fe125     1.0  0.3657166677984121  0.8430090356443699  0.07988805099983498  1.0000
  S   S249      1.0  0.3737001704432666  0.7983883506404721  0.05277128870138004  1.0000
  S   S250      1.0  0.3290798979227972  0.8814819532122491  0.06460118144198179  1.0000
  Fe  Fe126     1.0  0.3685013576277665  0.7877012788989224  0.658222209351557  1.0000
  S   S251      1.0  0.42267193598203096  0.8045311431911731  0.6526460895330943  1.0000
  S   S252      1.0  0.3502626933308529  0.7533990575173602  0.6936271872215521  1.0000
  Fe  Fe127     1.0  0.39664038198394125  0.847848717884886  0.6328288232532564  1.0000
  S   S253      1.0  0.41335790092536223  0.8972942817677527  0.6423308827898614  1.0000
  Fe  Fe128     1.0  0.3697820666292314  0.7750522368593917  0.0993931138127917  1.0000
  S   S254      1.0  0.33677169722966294  0.7331843430825057  0.10658261545483305  1.0000
  S   S255      1.0  0.3423455178241662  0.8325096020029564  0.6424323943994882  1.0000
  S   S256      1.0  0.35682990139408105  0.8192752222412939  0.1256767005386039  1.0000
  C   C193      1.0  0.46016825741162737  0.6540265504109839  0.5772921192217602  1.0000
  C   C194      1.0  0.406153787304301  0.6737100959227375  0.06616681426448734  1.0000
  C   C195      1.0  0.38906070549091276  0.7010726787385145  0.07664609090104157  1.0000
  C   C196      1.0  0.46058615477536824  0.7198696606684274  0.5777830772803798  1.0000
  C   C197      1.0  0.4299405675788337  0.7041447883829773  0.5835635752968981  1.0000
  C   C198      1.0  0.4297417064704891  0.6712684548552651  0.5834381250028329  1.0000
  H   H129      1.0  0.4310954091865119  0.6751844460503446  0.054975006786016634  1.0000
  H   H130      1.0  0.4008477598821921  0.7234917942836594  0.07332701019587562  1.0000
  H   H131      1.0  0.40633717077791276  0.717150631796493  0.5879652763733068  1.0000
  H   H132      1.0  0.4062082812965274  0.6593479494604676  0.5886961458934842  1.0000
  C   C199      1.0  0.2889197418871345  0.5782561325346275  0.919587238915475  1.0000
  C   C200      1.0  0.3052413566965612  0.5859023255849984  0.9478409075794286  1.0000
  C   C201      1.0  0.3132526508272502  0.5624052070869586  0.9698251483879402  1.0000
  C   C202      1.0  0.30434679900453093  0.5313285504553122  0.9638434910112831  1.0000
  C   C203      1.0  0.2868664514025727  0.5239683625635116  0.9361158748221184  1.0000
  C   C204      1.0  0.2793720820845045  0.5473321656453116  0.9139791355567054  1.0000
  H   H133      1.0  0.31278939178069365  0.6097926951469222  0.9522643697137969  1.0000
  H   H134      1.0  0.32724095182893365  0.5683434471406537  0.9908595626178205  1.0000
  H   H135      1.0  0.2796667173653417  0.500033141184016  0.9314433234066167  1.0000
  H   H136      1.0  0.26598575775837524  0.5413917712880594  0.8926525180722381  1.0000
  C   C205      1.0  0.34750726914792573  0.6309038201040356  0.7181610319277847  1.0000
  C   C206      1.0  0.3672380466857481  0.6280074356325247  0.6909597199506802  1.0000
  C   C207      1.0  0.35103725829748017  0.6236776810809432  0.6619173747782907  1.0000
  C   C208      1.0  0.31511022480819884  0.6212755533338723  0.6601685949975231  1.0000
  C   C209      1.0  0.29522676422985034  0.6247542847714534  0.6872437754886569  1.0000
  C   C210      1.0  0.3114420696564254  0.6295716418234014  0.7162322376398842  1.0000
  H   H137      1.0  0.39508170354335914  0.6278617277436187  0.6924445619126725  1.0000
  H   H138      1.0  0.3664476038662515  0.621523948863613  0.6409820148864529  1.0000
  H   H139      1.0  0.2674313813814987  0.6226276460241571  0.6860150144997803  1.0000
  H   H140      1.0  0.29601869246373186  0.6319008444485749  0.7371160063331242  1.0000
  C   C211      1.0  0.22649278500991832  0.5053226212679208  0.7595353644044278  1.0000
  C   C212      1.0  0.19390835426634132  0.4936854193786854  0.752458761739212  1.0000
  C   C213      1.0  0.1859803620710434  0.4629811435486174  0.7607711829250192  1.0000
  C   C214      1.0  0.2107810379794346  0.44384537383272804  0.7757606872612903  1.0000
  C   C215      1.0  0.24405410388479942  0.4549535033796896  0.7811314065100113  1.0000
  C   C216      1.0  0.2518222991017229  0.48577967976905423  0.773225125217714  1.0000
  H   H141      1.0  0.17434286733518212  0.5086792175799589  0.7416134591607995  1.0000
  H   H142      1.0  0.1604010456931424  0.45427304732944535  0.756067351594488  1.0000
  H   H143      1.0  0.26335153049954685  0.4404307970965159  0.7927399170360574  1.0000
  H   H144      1.0  0.2772320844406484  0.4945350398504238  0.7783289185295199  1.0000
  C   C217      1.0  0.367998753484878  0.7709323767836187  0.7976013344494032  1.0000
  C   C218      1.0  0.3569554875387718  0.7418260557485629  0.7869067207164424  1.0000
  C   C219      1.0  0.35150267582984807  0.7367544345801817  0.7548738495931469  1.0000
  C   C220      1.0  0.357876639571844  0.7605553674999156  0.7333655373402327  1.0000
  C   C221      1.0  0.3705417181242483  0.7891841243353843  0.7437538320336482  1.0000
  C   C222      1.0  0.3754462371894331  0.7943971653222818  0.7759393335333536  1.0000
  H   H145      1.0  0.3520232586998463  0.7233683830713077  0.8034158606398023  1.0000
  H   H146      1.0  0.3424093750586241  0.7142884397500181  0.7468222426782966  1.0000
  H   H147      1.0  0.3763588320864057  0.807260928575313  0.7270760588226634  1.0000
  H   H148      1.0  0.38568633336420904  0.816272572132347  0.7839277566313047  1.0000
  C   C223      1.0  0.28185245869618814  0.8682842638600891  0.9676830167741645  1.0000
  C   C224      1.0  0.2645441335894756  0.8863437965156828  0.9903272133512132  1.0000
  C   C225      1.0  0.2791160045488527  0.8900616697823918  0.02016270232482764  1.0000
  C   C226      1.0  0.3106623410902044  0.875193223459692  0.027635795479471925  1.0000
  C   C227      1.0  0.3276586624004731  0.8565657125197546  0.0051883739900109305  1.0000
  C   C228      1.0  0.313187808813675  0.8530499972085682  0.975199766085448  1.0000
  H   H149      1.0  0.2401757698993317  0.8980048747677776  0.9846123408875882  1.0000
  H   H150      1.0  0.26594455933230976  0.9045400209059112  0.03745483912975933  1.0000
  H   H151      1.0  0.35251248379018907  0.8457725029997645  0.010470022355452135  1.0000
  H   H152      1.0  0.3264279864639962  0.8387660881270145  0.957818277775951  1.0000
  C   C229      1.0  0.2560338988189863  0.8472844183071305  0.7717548514016148  1.0000
  C   C230      1.0  0.2796275295248781  0.8220402527477606  0.7742457821351203  1.0000
  C   C231      1.0  0.26881200913465286  0.7914087174256857  0.7690882989154574  1.0000
  C   C232      1.0  0.2340438988340099  0.7857822933103772  0.7628125234411994  1.0000
  C   C233      1.0  0.21048278406862675  0.8110022951699851  0.7596618814264026  1.0000
  C   C234      1.0  0.2216603753569682  0.8418501593870432  0.7634622627747173  1.0000
  H   H153      1.0  0.30618240788740975  0.8258847125572303  0.7808717681566847  1.0000
  H   H154      1.0  0.2871796330044811  0.7720498269452317  0.7713174582482514  1.0000
  H   H155      1.0  0.18367404241247587  0.8067588575073288  0.7542088024855971  1.0000
  H   H156      1.0  0.20340192305461982  0.8612922938956511  0.7611230839664659  1.0000
  C   C235      1.0  0.0548161957954183  0.4661039148994798  0.6706829500578152  1.0000
  C   C236      1.0  0.034976591796181955  0.490621640417206  0.6836326288536048  1.0000
  C   C237      1.0  0.03132154170585588  0.4930759223261409  0.7161259368639677  1.0000
  C   C238      1.0  0.04788515639740809  0.47124146337303485  0.7357889896065494  1.0000
  C   C239      1.0  0.06998715580724735  0.44816329004938377  0.7230223691202622  1.0000
  C   C240      1.0  0.07340755686618472  0.4455541114191818  0.6903742887865908  1.0000
  H   H157      1.0  0.02198669873959269  0.5074531064639394  0.6685653032682557  1.0000
  H   H158      1.0  0.014813210992174142  0.5113773759323424  0.7259721156390199  1.0000
  H   H159      1.0  0.08315500848355817  0.4314472360647575  0.7381080255544706  1.0000
  H   H160      1.0  0.0890812948211055  0.42673898633284135  0.6803971876686284  1.0000
  C   C241      1.0  0.07116595659004843  0.44625082162936247  0.9922205392002393  1.0000
  C   C242      1.0  0.08913557991508214  0.47431089979702507  0.9943606543176212  1.0000
  C   C243      1.0  0.10596876937257282  0.4860146527124034  0.9679281747919745  1.0000
  C   C244      1.0  0.10510470511214276  0.4694364750067619  0.9395572405568486  1.0000
  C   C245      1.0  0.08786373388845092  0.44106518394260297  0.9378167758947702  1.0000
  C   C246      1.0  0.07059731198190144  0.42974049351620996  0.9639471523453171  1.0000
  H   H161      1.0  0.08990932463898482  0.48708545427951394  0.016236901865394948  1.0000
  H   H162      1.0  0.11942421760109401  0.5078917377257552  0.9694091085806217  1.0000
  H   H163      1.0  0.08780326737266897  0.4277430894394085  0.9163158070469068  1.0000
  H   H164      1.0  0.05675860412018774  0.40823252027515466  0.9621648142143201  1.0000
  C   C247      1.0  0.18727193042329904  0.7154350583760012  0.9572966934910898  1.0000
  C   C248      1.0  0.20419434764041933  0.6876881175284738  0.9476447324552566  1.0000
  C   C249      1.0  0.19324364208127376  0.6720743268340972  0.9205011439314615  1.0000
  C   C250      1.0  0.166130356185626  0.6848021041618823  0.9024517058619871  1.0000
  C   C251      1.0  0.149803848724809  0.7129398229898859  0.911679867392326  1.0000
  C   C252      1.0  0.15998390540843266  0.7279838498008852  0.9393614349018489  1.0000
  H   H165      1.0  0.22531821205054658  0.6779245944507944  0.9615154258051573  1.0000
  H   H166      1.0  0.20620243106878822  0.6504859499264404  0.9132586836467135  1.0000
  H   H167      1.0  0.12895674998314166  0.7229757362975331  0.8976846699606174  1.0000
  H   H168      1.0  0.14711603330266398  0.7496157046142757  0.9465283369165131  1.0000
  C   C253      1.0  0.059795572146737364  0.7400713580719841  0.7126846986454363  1.0000
  C   C254      1.0  0.03379113131272149  0.7515156174667079  0.69264729593909  1.0000
  C   C255      1.0  0.041745478347438025  0.759793839708478  0.6618484827972658  1.0000
  C   C256      1.0  0.07550468571412128  0.7557536129524144  0.6507743659788189  1.0000
  C   C257      1.0  0.10195565866146405  0.7461386020199139  0.6713912525363583  1.0000
  C   C258      1.0  0.0941375507201494  0.7385132223574575  0.7024761938838037  1.0000
  H   H169      1.0  0.007348653369778413  0.7533792645948758  0.7007143741198872  1.0000
  H   H170      1.0  0.021516162109456838  0.7685498164927407  0.646479054255515  1.0000
  H   H171      1.0  0.1281733182629916  0.7433875840866904  0.6629849738536104  1.0000
  H   H172      1.0  0.11436889915009285  0.7298918790826557  0.7180009876354438  1.0000
  C   C259      1.0  0.07618175358347123  0.6546211018688568  0.0718360853733786  1.0000
  C   C260      1.0  0.9412174838496056  0.6670869936914819  0.5791076032728468  1.0000
  C   C261      1.0  0.9344270128434065  0.6439221680379408  0.6014161839834753  1.0000
  C   C262      1.0  0.9488469261176244  0.6136544571671962  0.598122484812289  1.0000
  C   C263      1.0  0.07179869352196722  0.5986614971373939  0.08100427227830642  1.0000
  C   C264      1.0  0.056054695987388214  0.6284094892101109  0.07742992972974361  1.0000
  H   H173      1.0  0.9293232379212822  0.6902090522873953  0.5812804120723892  1.0000
  H   H174      1.0  0.9175598690360556  0.6493360255171212  0.6209374703417192  1.0000
  H   H175      1.0  0.056027077698177497  0.5785887293030277  0.08537535354481474  1.0000
  H   H176      1.0  0.028190800660389037  0.6309944092300838  0.07871421128872225  1.0000
  C   C265      1.0  0.4712580568005795  0.9336503476202657  0.5573487833138838  1.0000
  C   C266      1.0  0.4733881670088781  0.9018284117694453  0.5651338023922179  1.0000
  C   C267      1.0  0.45600398844376405  0.8906973687094513  0.5914355371093925  1.0000
  C   C268      1.0  0.43606084473587786  0.9112824281240932  0.6098811025512489  1.0000
  C   C269      1.0  0.4576436470029587  0.8579710452916065  0.015009761024140644  1.0000
  C   C270      1.0  0.46690505688186407  0.8876826573242864  0.004628016494557796  1.0000
  H   H177      1.0  0.48903031812865233  0.8858349288737748  0.5511480261695143  1.0000
  H   H178      1.0  0.4584916708908555  0.8662205972702337  0.5977087234461369  1.0000
  H   H179      1.0  0.43251481265943503  0.8547807887519284  0.02518150530790164  1.0000
  H   H180      1.0  0.44964070705410314  0.9075243912579182  0.008372970382874767  1.0000
  C   C271      1.0  0.9495547735239115  0.8088129729931558  0.0448366651083163  1.0000
  C   C272      1.0  0.8456647426656233  0.8372590057189662  0.5690633832294795  1.0000
  C   C273      1.0  0.8732521754938888  0.8192326812200212  0.5815801481484137  1.0000
  C   C274      1.0  0.012516477901653333  0.8220700934052088  0.016093759439344435  1.0000
  C   C275      1.0  0.9878298929092129  0.8460986855370145  0.02097147565092916  1.0000
  C   C276      1.0  0.9563823207720472  0.8394769036033346  0.0355519948498233  1.0000
  H   H181      1.0  0.8328685901754265  0.8297837837423079  0.5478097406844001  1.0000
  H   H182      1.0  0.8814999205426081  0.7976910480609676  0.5701770749983875  1.0000
  H   H183      1.0  0.9935358356342205  0.8699094715271298  0.014596195772514031  1.0000
  H   H184      1.0  0.937677608117417  0.8580657182154933  0.03984252368180452  1.0000
  C   C277      1.0  0.7281848086036765  0.8434038432532416  0.1167039294776222  1.0000
  C   C278      1.0  0.7033825645147759  0.03112050429410762  0.5903158666779321  1.0000
  C   C279      1.0  0.684150395514581  0.04124663254857097  0.5642289971894946  1.0000
  C   C280      1.0  0.648176528195151  0.03864679381587233  0.5637712389048716  1.0000
  C   C281      1.0  0.6692703614093646  0.8301559538359408  0.10373014984194806  1.0000
  C   C282      1.0  0.6991129438090049  0.8253994933071429  0.12189930897218737  1.0000
  H   H185      1.0  0.7311757932354541  0.033081711884074494  0.5903828132266775  1.0000
  H   H186      1.0  0.697249133517267  0.05067542407791681  0.5442385718729934  1.0000
  H   H187      1.0  0.6472803272349836  0.8154070245924412  0.10719100191280995  1.0000
  H   H188      1.0  0.7000257765454013  0.807150463207363  0.1394350567575593  1.0000
  C   C283      1.0  0.4511772253944693  0.9851912570421406  0.793674372833605  1.0000
  C   C284      1.0  0.4553550094670746  0.9953439231171325  0.8245741668628161  1.0000
  C   C285      1.0  0.4406915184253211  0.9787285638228013  0.8491556936812347  1.0000
  C   C286      1.0  0.42126407267595656  0.9521742343973826  0.8428985275458128  1.0000
  C   C287      1.0  0.4161208722928525  0.9424851983846496  0.811907531301934  1.0000
  C   C288      1.0  0.4311374815249325  0.9589826732942686  0.7872761114885526  1.0000
  H   H189      1.0  0.4694557505719683  0.016279467552136273  0.8295609393108634  1.0000
  H   H190      1.0  0.44428958204725194  0.9866055922627632  0.8730452590568429  1.0000
  H   H191      1.0  0.4012266427718481  0.9220195618706059  0.8069469054196161  1.0000
  H   H192      1.0  0.4277691136427044  0.9511611845115915  0.7633687708879756  1.0000
  C   C289      1.0  0.6439947721374744  0.985929733971856  0.8494811012339513  1.0000
  C   C290      1.0  0.6735743927251301  0.9667627053516855  0.8528771626167782  1.0000
  C   C291      1.0  0.6842796546402113  0.956575008133239  0.8825377620860608  1.0000
  C   C292      1.0  0.6651296193363305  0.9649516644902978  0.9090384824979783  1.0000
  C   C293      1.0  0.6353593029034912  0.9841343640078598  0.9058277353118861  1.0000
  C   C294      1.0  0.6248981160804836  0.9948654440419884  0.8759859726676525  1.0000
  H   H193      1.0  0.6884615730641775  0.9598684214511288  0.8324999628667905  1.0000
  H   H194      1.0  0.7073928503250815  0.9419683438648986  0.8848922999864587  1.0000
  H   H195      1.0  0.6208353500164211  0.991149722585867  0.9263287925929139  1.0000
  H   H196      1.0  0.6022792310181451  0.010060832625943483  0.8735212191161735  1.0000
  C   C295      1.0  0.5565794729403468  0.09785331509237083  0.6809378877752025  1.0000
  C   C296      1.0  0.5212311104012685  0.10223307280643756  0.686653458301846  1.0000
  C   C297      1.0  0.49723766833682176  0.09889065848161582  0.6622533404966696  1.0000
  C   C298      1.0  0.5084624827548399  0.09023027459714617  0.6323197103883874  1.0000
  C   C299      1.0  0.5437543978534979  0.0850514859353444  0.6267324597203712  1.0000
  C   C300      1.0  0.5678702926002399  0.08944088471831146  0.6509161271072781  1.0000
  H   H197      1.0  0.5123488551264965  0.10876167839128104  0.709741826989925  1.0000
  H   H198      1.0  0.46992329517856185  0.10267719524730845  0.6666704076977327  1.0000
  H   H199      1.0  0.5526212439750526  0.07804558619586444  0.6037104808477439  1.0000
  H   H200      1.0  0.5952035433445382  0.08573129787596456  0.6464714417421328  1.0000
  C   C301      1.0  0.3850755877767326  0.4057709414143355  0.7736355454127017  1.0000
  C   C302      1.0  0.36474431453748846  0.43123119689167544  0.7628576881272637  1.0000
  C   C303      1.0  0.36263527749759994  0.45919595674080527  0.7804245492785928  1.0000
  C   C304      1.0  0.38124856780879546  0.46172966967772955  0.808527634360832  1.0000
  C   C305      1.0  0.4015318357405124  0.4363191920866283  0.8191005770175801  1.0000
  C   C306      1.0  0.4033666145648366  0.4084482181301343  0.8017878108898913  1.0000
  H   H201      1.0  0.35053551392331805  0.4292771381484974  0.7410735247725877  1.0000
  H   H202      1.0  0.34686010861762745  0.47876838535204214  0.7722167115477127  1.0000
  H   H203      1.0  0.41601214142943815  0.43814991564234557  0.8407758638616625  1.0000
  H   H204      1.0  0.419013381387853  0.38906247440947084  0.8104667344332991  1.0000
  C   C307      1.0  0.4506385137108182  0.20048421560056354  0.8320017701280834  1.0000
  C   C308      1.0  0.446363871238588  0.1692016294080425  0.8229860282357025  1.0000
  C   C309      1.0  0.4721042251258293  0.14644573823394902  0.8298829046351751  1.0000
  C   C310      1.0  0.5017291984088795  0.15481506819228752  0.8465774138436077  1.0000
  C   C311      1.0  0.505690202780774  0.18597497904857585  0.8560719739080488  1.0000
  C   C312      1.0  0.48041596764207084  0.2088183299201938  0.8484606962170382  1.0000
  H   H205      1.0  0.42326565248412285  0.16260087415101507  0.8104038898110335  1.0000
  H   H206      1.0  0.46868307532164  0.1223313221319704  0.8228611973548985  1.0000
  H   H207      1.0  0.5285742617041309  0.19247791092191013  0.8690367744785659  1.0000
  H   H208      1.0  0.4837293293285812  0.23273310633177577  0.8558683026709705  1.0000
  C   C313      1.0  0.9146383257129329  0.34006676261397223  0.6496935062605088  1.0000
  C   C314      1.0  0.8674050143884767  0.5022079250121525  0.10712911304742723  1.0000
  C   C315      1.0  0.8966666881846794  0.5208947639327928  0.10854335472289245  1.0000
  C   C316      1.0  0.8958465820871279  0.40112725760579787  0.6309480252926738  1.0000
  C   C317      1.0  0.8706126531209123  0.3805429842444809  0.6409843970481384  1.0000
  C   C318      1.0  0.879928160177751  0.3499821625622974  0.650041801264134  1.0000
  H   H209      1.0  0.8431717820344483  0.5119593432163951  0.09835260200110674  1.0000
  H   H210      1.0  0.8948781656252182  0.545064511841307  0.10101397931307288  1.0000
  H   H211      1.0  0.8437744727408804  0.3881761793340834  0.6415618636640547  1.0000
  H   H212      1.0  0.8601971539257622  0.3340825361489442  0.6573973782303351  1.0000
  C   C319      1.0  0.4162232436467702  0.461518103856142  0.583220691990385  1.0000
  C   C320      1.0  0.46370262461469225  0.4072094201522405  0.09880856259487159  1.0000
  C   C321      1.0  0.47225418233811184  0.3800696519454802  0.08166326839153748  1.0000
  C   C322      1.0  0.48383470455039695  0.4361629727252518  0.587882444944848  1.0000
  C   C323      1.0  0.47793800588288904  0.46864859379318025  0.58942067288776  1.0000
  C   C324      1.0  0.4442385596381472  0.4813514633062124  0.5867352505476486  1.0000
  H   H213      1.0  0.47448319370347425  0.4105129278131442  0.12198361557015502  1.0000
  H   H214      1.0  0.4895724695242359  0.36246152888797073  0.09158036875692588  1.0000
  H   H215      1.0  0.49951474721767797  0.4840910678989151  0.592490651574838  1.0000
  H   H216      1.0  0.4399657419687686  0.5064922836929223  0.5877181027354385  1.0000
  C   C325      1.0  0.5212796053740394  0.26987834876932076  0.6409991426237054  1.0000
  C   C326      1.0  0.49650700394923064  0.26400854803875584  0.6637953648675787  1.0000
  C   C327      1.0  0.5031931381143884  0.27138364491289924  0.6952069974773759  1.0000
  C   C328      1.0  0.5347735311408612  0.28424376214929264  0.7038652864235235  1.0000
  C   C329      1.0  0.5602230085391554  0.2884743075209857  0.6812701255228422  1.0000
  C   C330      1.0  0.5534211018271508  0.28141940921744035  0.6498160917462155  1.0000
  H   H217      1.0  0.47168038735856777  0.25486589947718874  0.6570238368651512  1.0000
  H   H218      1.0  0.4838344622373214  0.2670971434736391  0.7125243491041775  1.0000
  H   H219      1.0  0.5849286513449781  0.2979522207008746  0.6879262440350576  1.0000
  H   H220      1.0  0.5730900109642431  0.2849258508849726  0.6324045164251009  1.0000
  C   C331      1.0  0.5700644176284464  0.31585554586123804  0.9335398208975194  1.0000
  C   C332      1.0  0.5426618340312971  0.3323039393660557  0.9477078001539847  1.0000
  C   C333      1.0  0.5177742496551955  0.3481460357550255  0.9296450191298987  1.0000
  C   C334      1.0  0.5186252694392192  0.34582976955482947  0.8971138835031682  1.0000
  C   C335      1.0  0.5454615363996053  0.3287658191908984  0.8825251723325344  1.0000
  C   C336      1.0  0.5715584920473799  0.31415551454489216  0.9007945546787826  1.0000
  H   H221      1.0  0.5398560513444541  0.33229038601618194  0.9726070593130671  1.0000
  H   H222      1.0  0.496866059118749  0.3609999252723787  0.9410265397296289  1.0000
  H   H223      1.0  0.5463105902187579  0.3271267674743586  0.8572656113826775  1.0000
  H   H224      1.0  0.5925258828059838  0.301229562551007  0.8896364269967028  1.0000
  C   C337      1.0  0.680735427017958  0.315596151004253  0.5630658069333553  1.0000
  C   C338      1.0  0.6945152866589662  0.3666235252553501  0.10413373202625231  1.0000
  C   C339      1.0  0.7272539038489193  0.3515828131573214  0.10503572645391257  1.0000
  C   C340      1.0  0.7284543092793053  0.3051567490171787  0.6118789658116978  1.0000
  C   C341      1.0  0.6972198809632238  0.3213725501856416  0.6176149213809179  1.0000
  C   C342      1.0  0.6732610635744912  0.32643208552956804  0.5932584340806146  1.0000
  H   H225      1.0  0.6925057735209267  0.3918512121132896  0.10191819721422823  1.0000
  H   H226      1.0  0.75040934896238  0.3652721221147436  0.10383266274055902  1.0000
  H   H227      1.0  0.6916275123256136  0.3302828458178394  0.6408437008106405  1.0000
  H   H228      1.0  0.6494151850457933  0.33935910009347003  0.5976984120102578  1.0000
  C   C343      1.0  0.035990052557034025  0.8906955110474326  0.8171782967214751  1.0000
  C   C344      1.0  0.048871418930770405  0.8948227674229456  0.847570583071807  1.0000
  C   C345      1.0  0.07039710978974734  0.8716357590906195  0.861186549820091  1.0000
  C   C346      1.0  0.07848940943379001  0.8439871545018731  0.8447135549469372  1.0000
  C   C347      1.0  0.06525026626196073  0.8397123770714582  0.8145201613594758  1.0000
  C   C348      1.0  0.04441522344931248  0.8632121568248636  0.800616461454125  1.0000
  H   H229      1.0  0.04305337415667365  0.9162906981402283  0.8601931982073558  1.0000
  H   H230      1.0  0.0808399884747859  0.8751798717917488  0.8844535772290554  1.0000
  H   H231      1.0  0.07101619636552958  0.8183617199121417  0.8017571741184043  1.0000
  H   H232      1.0  0.03454528964339176  0.8599128180012128  0.7770991996851864  1.0000
  C   C349      1.0  0.8630885053919699  0.988468428472871  0.7674724580445472  1.0000
  C   C350      1.0  0.8972847848135572  0.984590208290429  0.7575687326473612  1.0000
  C   C351      1.0  0.9047960243371977  0.9833216586664443  0.7256165990908032  1.0000
  C   C352      1.0  0.8780029686710729  0.9848218301986909  0.7035466407217761  1.0000
  C   C353      1.0  0.843739520849114  0.9889146814906973  0.7133440635619265  1.0000
  C   C354      1.0  0.8363142509880455  0.9911059187006834  0.7453950793610371  1.0000
  H   H233      1.0  0.9180400408806931  0.9826494066627784  0.7744482371033836  1.0000
  H   H234      1.0  0.9313380005837409  0.9806871749337582  0.718037651871781  1.0000
  H   H235      1.0  0.8230013653140418  0.9901668511849442  0.696263327766063  1.0000
  H   H236      1.0  0.8098506902728697  0.9940871564956221  0.7530856078998922  1.0000
  C   C355      1.0  0.8794044320399125  0.8908413622010698  0.9407735126845075  1.0000
  C   C356      1.0  0.8564640197295736  0.9165109988220606  0.9379143491505312  1.0000
  C   C357      1.0  0.8385635650078818  0.9278556074508131  0.964194389804141  1.0000
  C   C358      1.0  0.8431727847806827  0.9131146498018751  0.9931215503816947  1.0000
  C   C359      1.0  0.8645557950114182  0.8863221511332393  0.9955046766343223  1.0000
  C   C360      1.0  0.8826465758766538  0.8751503209948809  0.9693192245231866  1.0000
  H   H237      1.0  0.8529182329087446  0.9279397843477475  0.9155708444291366  1.0000
  H   H238      1.0  0.8216216816683874  0.9483287407943518  0.962194099027713  1.0000
  H   H239      1.0  0.8680803033955137  0.8746187356613795  0.017674405098594415  1.0000
  H   H240      1.0  0.9001881226473638  0.8551276999150641  0.9715915313155222  1.0000
  C   C361      1.0  0.9628682322917812  0.3115629393814418  0.8315790598308316  1.0000
  C   C362      1.0  0.973422702514433  0.3422590953353499  0.8261342259860217  1.0000
  C   C363      1.0  0.006504326102140023  0.3515628568966131  0.8356457676198104  1.0000
  C   C364      1.0  0.028960019048379193  0.33008653501465823  0.8505411956235581  1.0000
  C   C365      1.0  0.018765678842606492  0.2992208332459795  0.8549888549524624  1.0000
  C   C366      1.0  0.9858720242570659  0.2899648313311054  0.8454507417198487  1.0000
  H   H241      1.0  0.9557619433185173  0.3590099517088277  0.8152515578860987  1.0000
  H   H242      1.0  0.014349144651797818  0.3754532776840558  0.8321078238699549  1.0000
  H   H243      1.0  0.036390831518012146  0.2823659169995715  0.8658122483990618  1.0000
  H   H244      1.0  0.9785751615511006  0.26598130904176737  0.8486269542974682  1.0000
  C   C367      1.0  0.8751648101701157  0.25674548576861345  0.9687945360854407  1.0000
  C   C368      1.0  0.8882521116951796  0.2824349464321707  0.9528401692148957  1.0000
  C   C369      1.0  0.898943554335516  0.3088667601911313  0.9696982890266609  1.0000
  C   C370      1.0  0.89680673908186  0.30943261259688865  0.0024401002034044605  1.0000
  C   C371      1.0  0.8840548486841546  0.2835891331249179  0.018216198260734506  1.0000
  C   C372      1.0  0.8731641761004004  0.2573502904638683  0.0014540985564088782  1.0000
  H   H245      1.0  0.8894815008201434  0.2821565108681756  0.9275324385551702  1.0000
  H   H246      1.0  0.9081638746648933  0.32904481110102857  0.9573186588068341  1.0000
  H   H247      1.0  0.8831349933997501  0.28347816143688553  0.04339866610128151  1.0000
  H   H248      1.0  0.8635835087934388  0.2373064148648601  0.013861760996758399  1.0000
  C   C373      1.0  0.8245654244898988  0.17246722876563497  0.7680400921016987  1.0000
  C   C374      1.0  0.8461331685515237  0.19300845129737648  0.7524539628016013  1.0000
  C   C375      1.0  0.8515770855818505  0.18957934643427063  0.720209845502366  1.0000
  C   C376      1.0  0.8359147869596668  0.16530065343596279  0.7037209358995198  1.0000
  C   C377      1.0  0.8155938802593207  0.1439174009750406  0.7195785027046545  1.0000
  C   C378      1.0  0.8095359257725172  0.14775843427742918  0.7516842451618428  1.0000
  H   H249      1.0  0.8571949482821318  0.21247339937031332  0.7648706804640772  1.0000
  H   H250      1.0  0.8676832692909195  0.20580901777995553  0.7080084337961068  1.0000
  H   H251      1.0  0.803450173324328  0.12514533608054412  0.7067877741672558  1.0000
  H   H252      1.0  0.7927200344824111  0.1319169217662033  0.7637016354749248  1.0000
  C   C379      1.0  0.9712320624631482  0.1184785868074325  0.8662428492605608  1.0000
  C   C380      1.0  0.9871277634952708  0.0913431717861104  0.8539218532045127  1.0000
  C   C381      1.0  0.9849964393872002  0.06271364203140295  0.8697468769414847  1.0000
  C   C382      1.0  0.9676799707358896  0.061285319024169116  0.8983427801277737  1.0000
  C   C383      1.0  0.9521924800619401  0.08852245592253882  0.9109180227721071  1.0000
  C   C384      1.0  0.9535134294087332  0.11701774785604724  0.8946476465500353  1.0000
  H   H253      1.0  0.0009489439690779644  0.09241024389989527  0.8320128066530248  1.0000
  H   H254      1.0  0.9974421888990008  0.04187482783110563  0.8601494921774533  1.0000
  H   H255      1.0  0.9387889791059112  0.08752973204499082  0.9330432801203071  1.0000
  H   H256      1.0  0.9413967780277622  0.13795072367863814  0.9043966603396674  1.0000
  N   N1        1.0  0.37852675326616164  0.9371786109188665  0.9660400831170916  1.0000
  C   C385      1.0  0.3868380233495908  0.9044947938574924  0.9566854678410893  1.0000
  C   C386      1.0  0.40908574446871115  0.9567321833892816  0.9611914150473353  1.0000
  C   C387      1.0  0.368662037849825  0.9381132759939311  0.9994369493893119  1.0000
  C   C388      1.0  0.34931628367628326  0.9493079787183494  0.9467492568710587  1.0000
  H   H257      1.0  0.3636098922504854  0.8898444483929298  0.9571813729525035  1.0000
  H   H258      1.0  0.4063420911684887  0.8932909081144716  0.972389341005952  1.0000
  H   H259      1.0  0.3973642588786487  0.9031347586816645  0.9325838502014685  1.0000
  H   H260      1.0  0.403889278312691  0.9814894298245801  0.9682935497907956  1.0000
  H   H261      1.0  0.43184067026307066  0.9479272207372663  0.9748791156610468  1.0000
  H   H262      1.0  0.41690447044992207  0.956811154106228  0.9361448386821009  1.0000
  H   H263      1.0  0.36300220166274855  0.962481297365325  0.007567291961791511  1.0000
  H   H264      1.0  0.38947011876658216  0.9280576922193625  0.014750934190079779  1.0000
  H   H265      1.0  0.3451089407039668  0.9243654980354512  0.0036441624274730078  1.0000
  H   H266      1.0  0.3422873686593604  0.9739511812147924  0.953035557539631  1.0000
  H   H267      1.0  0.32584527050182815  0.9349765054974339  0.9498009253346493  1.0000
  H   H268      1.0  0.3557726072029049  0.948767452727231  0.9213786131129552  1.0000
  N   N2        1.0  0.9106844059550712  0.5888510254092989  0.4898564783023218  1.0000
  C   C389      1.0  0.8965821263230079  0.5570472033619441  0.49203216266464467  1.0000
  C   C390      1.0  0.8979928235657567  0.6041353048939738  0.46085578282138884  1.0000
  C   C391      1.0  0.9488540631326059  0.586575953146822  0.48923648078385173  1.0000
  C   C392      1.0  0.8994292319562146  0.607664731934312  0.5172795790437669  1.0000
  H   H269      1.0  0.9057718283759685  0.54500841376443  0.5137269573128712  1.0000
  H   H270      1.0  0.9051154205057174  0.5419854683869257  0.47200637083797736  1.0000
  H   H271      1.0  0.8678351342499748  0.5576914160232838  0.4923929825046942  1.0000
  H   H272      1.0  0.9081939799717588  0.6282469140825584  0.4586901939100935  1.0000
  H   H273      1.0  0.9062528139108138  0.5906344315804984  0.4397013695188717  1.0000
  H   H274      1.0  0.8692590351161724  0.606195191477991  0.46042167001341644  1.0000
  H   H275      1.0  0.9604053833853093  0.6101143430951624  0.4869903096158834  1.0000
  H   H276      1.0  0.9582638281843768  0.5718304097040515  0.4693199176757854  1.0000
  H   H277      1.0  0.9593805463751975  0.5755345984147856  0.5109938371329117  1.0000
  H   H278      1.0  0.9099680460232112  0.6317384497996843  0.5165858114739752  1.0000
  H   H279      1.0  0.908379519585951  0.5966995909027741  0.5396197971410914  1.0000
  H   H280      1.0  0.8707767719939591  0.6101121139544742  0.5184088093763639  1.0000
  N   N3        1.0  0.3785692658570421  0.6800855328109503  0.19000417748132545  1.0000
  C   C393      1.0  0.3474940280425092  0.6987245587877509  0.18077471572655687  1.0000
  C   C394      1.0  0.36798744870267064  0.6494781785759401  0.20242811004849365  1.0000
  C   C395      1.0  0.39782897076245716  0.697273547374652  0.2143877557508527  1.0000
  C   C396      1.0  0.4009084645617602  0.6749550200051707  0.1623658643970218  1.0000
  H   H281      1.0  0.35452843978165394  0.7220746917294812  0.17151112237172106  1.0000
  H   H282      1.0  0.32981588211038027  0.7028387256455141  0.20091830950174266  1.0000
  H   H283      1.0  0.3326064544128138  0.6868129560139008  0.16197051222044132  1.0000
  H   H284      1.0  0.39079218823432527  0.6345699495449983  0.20926017444477205  1.0000
  H   H285      1.0  0.35138924733652965  0.6524213968461768  0.22351325226032123  1.0000
  H   H286      1.0  0.3529829568479568  0.6361015973174877  0.18469397575714958  1.0000
  H   H287      1.0  0.40715393918934173  0.7200015948053011  0.20535259686173768  1.0000
  H   H288      1.0  0.4208478545260861  0.6835083598323745  0.22274371160583314  1.0000
  H   H289      1.0  0.381348035212671  0.7026870906454445  0.23515358018382035  1.0000
  H   H290      1.0  0.4254906149652391  0.6623979474530616  0.16866327094967595  1.0000
  H   H291      1.0  0.40755356980651003  0.697529276077936  0.15109133998715693  1.0000
  H   H292      1.0  0.38788652782314603  0.6605896993210454  0.14420101588035075  1.0000
  N   N4        1.0  0.25929582166307963  0.7864146349139516  0.0526151094159688  1.0000
  C   C397      1.0  0.24035923259646697  0.8074453140620412  0.03070492627970256  1.0000
  C   C398      1.0  0.28278463095112194  0.7652822946199759  0.03471166113372148  1.0000
  C   C399      1.0  0.23449650094477947  0.7676130948459181  0.07028706627242043  1.0000
  C   C400      1.0  0.2796044542399607  0.8053198204450943  0.07479961658562029  1.0000
  H   H293      1.0  0.22260007221398892  0.8239570898921661  0.0433622849694284  1.0000
  H   H294      1.0  0.22458478951698724  0.7939312347217712  0.013710761224966506  1.0000
  H   H295      1.0  0.25842051302867564  0.8217050054709759  0.016840966616626925  1.0000
  H   H296      1.0  0.29752159199837935  0.749012121200944  0.05045165714912735  1.0000
  H   H297      1.0  0.2681715486712064  0.7506423269596003  0.017772572180565493  1.0000
  H   H298      1.0  0.30189231748992285  0.7787094023640123  0.021131153736615005  1.0000
  H   H299      1.0  0.24805265482429517  0.7517867532596209  0.0872860427110013  1.0000
  H   H300      1.0  0.2191863035821182  0.7526017344099164  0.05434097203318733  1.0000
  H   H301      1.0  0.21592827126417014  0.7827936955412268  0.08368997813648497  1.0000
  H   H302      1.0  0.29397508541500317  0.7901553183003278  0.09182381475119833  1.0000
  H   H303      1.0  0.2627386440536512  0.8218571853157581  0.08838885436667406  1.0000
  H   H304      1.0  0.29884359132405347  0.8195221413270469  0.06235809167159844  1.0000
  N   N5        1.0  0.29198840964646555  0.360084564309889  0.8065973317152861  1.0000
  C   C401      1.0  0.32612540650117117  0.34467421975071677  0.8120223852930145  1.0000
  C   C402      1.0  0.26451231385455976  0.3367347669041708  0.8089526346438487  1.0000
  C   C403      1.0  0.2910697167349263  0.37406858279769256  0.7749811561068125  1.0000
  C   C404      1.0  0.28626169338910823  0.38491414398394097  0.8303929667523786  1.0000
  H   H305      1.0  0.3472028574582646  0.3619703587275549  0.8114713143368824  1.0000
  H   H306      1.0  0.33216366671420006  0.3267585903242571  0.7936871714891781  1.0000
  H   H307      1.0  0.3274658627293252  0.33285780765832046  0.8351810462553649  1.0000
  H   H308      1.0  0.23843811828522643  0.3477645649790895  0.8048135535289993  1.0000
  H   H309      1.0  0.2680754584632612  0.3176605617915466  0.7913298426421828  1.0000
  H   H310      1.0  0.2641680615744755  0.32582297843844626  0.8325630782813722  1.0000
  H   H311      1.0  0.2652938850630402  0.38494492369409683  0.7695861836321979  1.0000
  H   H312      1.0  0.29678871812781216  0.356238277517297  0.7565194786678441  1.0000
  H   H313      1.0  0.3105281007401983  0.3926056269792496  0.7727305102633297  1.0000
  H   H314      1.0  0.2602285221459426  0.39632014108821945  0.8277061794793614  1.0000
  H   H315      1.0  0.3058151956610582  0.4035738516019582  0.8285013297573658  1.0000
  H   H316      1.0  0.2878135405231306  0.37530999836697715  0.8545491784101643  1.0000
  N   N6        1.0  0.739234963907183  0.8743517673636818  0.980727915325767  1.0000
  C   C405      1.0  0.7587027211113626  0.8737025583168713  0.010606813592833442  1.0000
  C   C406      1.0  0.743499857400988  0.8437631702983317  0.9647108736574236  1.0000
  C   C407      1.0  0.7525167535351792  0.899388622091325  0.9605548924582653  1.0000
  C   C408      1.0  0.7022256207422668  0.8806383790680931  0.9870667041102325  1.0000
  H   H317      1.0  0.7868337451634293  0.8694388711377463  0.00663605336540285  1.0000
  H   H318      1.0  0.7496006470823346  0.8549788793567976  0.026424110281082935  1.0000
  H   H319      1.0  0.7559411554543801  0.8964338836286755  0.02339642532351016  1.0000
  H   H320      1.0  0.7712643532711088  0.8382223066139897  0.9599060727214072  1.0000
  H   H321      1.0  0.7334050003391294  0.8244369114904259  0.9792442812060196  1.0000
  H   H322      1.0  0.7294234261459841  0.8436278135909432  0.9418975000849672  1.0000
  H   H323      1.0  0.7371767852627865  0.9018243909735516  0.938510657850369  1.0000
  H   H324      1.0  0.7799051202345199  0.8946340206780732  0.9540097985621762  1.0000
  H   H325      1.0  0.7512244345084129  0.9226445554842713  0.9725732657297125  1.0000
  H   H326      1.0  0.6913012927119528  0.8628055492977508  0.002966709898492681  1.0000
  H   H327      1.0  0.6866329430635171  0.8809909731843576  0.9650664393518625  1.0000
  H   H328      1.0  0.6983785899276143  0.9039847037050053  0.9982340722678985  1.0000
  N   N7        1.0  0.7292025169781478  0.021785413402495957  0.4651940353371468  1.0000
  C   C409      1.0  0.7633078077145498  0.033482610488875686  0.45599293366397214  1.0000
  C   C410      1.0  0.7054248859430047  0.04862262255019845  0.47172668425059483  1.0000
  C   C411      1.0  0.7331654214725972  0.002303323293431081  0.49362050204609315  1.0000
  C   C412      1.0  0.7149852908159968  0.0027871955288336636  0.43933314320410793  1.0000
  H   H329      1.0  0.7813587980480207  0.013835298534548901  0.44952076081985515  1.0000
  H   H330      1.0  0.7755442116091495  0.04689109583481188  0.4753436954034835  1.0000
  H   H331      1.0  0.7611670643954931  0.04925410742602088  0.43537354559055613  1.0000
  H   H332      1.0  0.7157099402086091  0.06381605975881599  0.4906731149156968  1.0000
  H   H333      1.0  0.7013288291034101  0.06344542635121875  0.4505568553971512  1.0000
  H   H334      1.0  0.6795792718156433  0.040640777222092916  0.47939659099863136  1.0000
  H   H335      1.0  0.7077815806356323  0.9938447799851166  0.5018934451472461  1.0000
  H   H336      1.0  0.7449177473234737  0.015697494226745157  0.5132841399258606  1.0000
  H   H337      1.0  0.7502712044755898  0.9813983509556921  0.4892932894106616  1.0000
  H   H338      1.0  0.7121679454758705  0.016798860717613717  0.41742451993574975  1.0000
  H   H339      1.0  0.6890709965671875  0.9937930198251479  0.44528924444655565  1.0000
  H   H340      1.0  0.7322667490792898  0.9822704262643885  0.43381940485709064  1.0000
  N   N8        1.0  0.9544283114699439  0.4218634524642686  0.7228395528363818  1.0000
  C   C413      1.0  0.970656142759873  0.4056171781332105  0.7499087612559668  1.0000
  C   C414      1.0  0.9477219957204733  0.45516366563159877  0.730950785325655  1.0000
  C   C415      1.0  0.921423784619422  0.40700849008600193  0.7146734881818863  1.0000
  C   C416      1.0  0.9779710701508922  0.4197716596858385  0.6957502349851216  1.0000
  H   H341      1.0  0.9759326790369304  0.38039389000833773  0.7447397861747028  1.0000
  H   H342      1.0  0.9539202756242371  0.40715192752189167  0.7709948310307203  1.0000
  H   H343      1.0  0.9958161369293103  0.4162372984044587  0.7563698282654244  1.0000
  H   H344      1.0  0.9368382876715164  0.4685158876468382  0.7106566367853376  1.0000
  H   H345      1.0  0.9292585431535468  0.4577102751287696  0.750716621808115  1.0000
  H   H346      1.0  0.9718815694123427  0.46679606954082054  0.7383333101939568  1.0000
  H   H347      1.0  0.9083527965078868  0.41926429936940596  0.6946979505655753  1.0000
  H   H348      1.0  0.9031993764348183  0.4076098389992189  0.7347346580424929  1.0000
  H   H349      1.0  0.9255332969886476  0.38205607735999797  0.7076145394307921  1.0000
  H   H350      1.0  0.967069699837265  0.43243600789553865  0.6750903789645459  1.0000
  H   H351      1.0  0.9832653929260162  0.39504915653635847  0.6885716061850107  1.0000
  H   H352      1.0  0.0032359674000088656  0.4303130888704347  0.7012491546611485  1.0000
  N   N9        1.0  0.6535949112350847  0.29211592158323885  0.43724640238283474  1.0000
  C   C417      1.0  0.6432286544694787  0.2678285788579741  0.41454044397721995  1.0000
  C   C418      1.0  0.6224897109139357  0.309089505643479  0.4490357400031268  1.0000
  C   C419      1.0  0.6764272394510303  0.3144238892190712  0.4216053111575398  1.0000
  C   C420      1.0  0.6723161505650617  0.277095441982072  0.4637117848816113  1.0000
  H   H353      1.0  0.6259338818501312  0.25054858740733427  0.42543897958143634  1.0000
  H   H354      1.0  0.666117431916288  0.25463988026683304  0.4051100002724521  1.0000
  H   H355      1.0  0.6290552290377677  0.278318007665828  0.3942162330359064  1.0000
  H   H356      1.0  0.6071446355127578  0.32002390601174013  0.42963442391047973  1.0000
  H   H357      1.0  0.6050657549648499  0.29311427961345843  0.4616254078372412  1.0000
  H   H358      1.0  0.629475405326216  0.32796581610052306  0.4658428562704726  1.0000
  H   H359      1.0  0.6849978172377568  0.3329830391791056  0.43810507136879073  1.0000
  H   H360      1.0  0.6630801890276556  0.32615031119640947  0.40151742342503566  1.0000
  H   H361      1.0  0.7001118860291394  0.3023318473714562  0.4123814254591418  1.0000
  H   H362      1.0  0.6836081682748646  0.2948311040098398  0.4796519834240626  1.0000
  H   H363      1.0  0.6940396709409957  0.26172389770778975  0.455476726528089  1.0000
  H   H364      1.0  0.6549726122826027  0.2624575186808934  0.4779407275631514  1.0000
  N   N10       1.0  0.17575638563798113  0.5554056187078275  0.8422492454216496  1.0000
  C   C421      1.0  0.20200930550591645  0.5794865009913006  0.837318882621012  1.0000
  C   C422      1.0  0.15522750683286768  0.5635609111177861  0.8703385548718005  1.0000
  C   C423      1.0  0.19307393934087602  0.5244680447966953  0.8467458270928929  1.0000
  C   C424      1.0  0.15268594845653283  0.5541209907337483  0.8145670533805909  1.0000
  H   H365      1.0  0.21748480990882624  0.5743209454875253  0.8159421107207373  1.0000
  H   H366      1.0  0.22025532905133627  0.5808067688729952  0.8575332578317362  1.0000
  H   H367      1.0  0.1898065569239229  0.60323302526539  0.8344001585820635  1.0000
  H   H368      1.0  0.13492961432577233  0.5459705456023807  0.8745834711308356  1.0000
  H   H369      1.0  0.17187453433635413  0.5642617459965387  0.8916696095666901  1.0000
  H   H370      1.0  0.1421621989289168  0.586989352211327  0.8678807016801199  1.0000
  H   H371      1.0  0.21127966138174847  0.5247080418240084  0.8669866374868562  1.0000
  H   H372      1.0  0.20799768035412391  0.5171258253847506  0.8256202153485395  1.0000
  H   H373      1.0  0.17399818964141067  0.505954169431898  0.85148903119535  1.0000
  H   H374      1.0  0.13925543287769404  0.5770978884807572  0.8103898571167827  1.0000
  H   H375      1.0  0.13251434069673884  0.5361859449015778  0.8174673004439287  1.0000
  H   H376      1.0  0.16741996948655546  0.5479357447956704  0.7929620278977116  1.0000
  N   N11       1.0  0.43608815211700214  0.8418550262363269  0.4859600855197627  1.0000
  C   C425      1.0  0.4496267963034565  0.8250211726057294  0.5138261763979509  1.0000
  C   C426      1.0  0.4384198210893925  0.820978756953555  0.45830138434917816  1.0000
  C   C427      1.0  0.4567046092889356  0.8700185488215518  0.4804354763600856  1.0000
  C   C428      1.0  0.39957318795832264  0.8514124780100891  0.49122569556171514  1.0000
  H   H377      1.0  0.44935842462673325  0.8403827856668061  0.5349305912726223  1.0000
  H   H378      1.0  0.4767737204048591  0.8165194409396839  0.5104581380215732  1.0000
  H   H379      1.0  0.4339146134174352  0.8041871553136113  0.5193017223439783  1.0000
  H   H380      1.0  0.4655709106266319  0.8132118276329211  0.4536743128660757  1.0000
  H   H381      1.0  0.42300408138550855  0.7995824362163944  0.4615788793487199  1.0000
  H   H382      1.0  0.42855816265511265  0.8328658421578835  0.43674784242491765  1.0000
  H   H383      1.0  0.4480199354787417  0.8824129373761413  0.4587789329281883  1.0000
  H   H384      1.0  0.4846467072815854  0.8638351959472101  0.47768405291043803  1.0000
  H   H385      1.0  0.454441497547074  0.8869498751418476  0.500281726652632  1.0000
  H   H386      1.0  0.38855619227155047  0.8644955382360547  0.4708577148132734  1.0000
  H   H387      1.0  0.3967220800084  0.8665747530611332  0.5123955720547163  1.0000
  H   H388      1.0  0.38308764610522494  0.8307516989374001  0.49483153233632693  1.0000
  N   N12       1.0  0.024147713135138416  0.6595336823997416  0.6576593811561074  1.0000
  C   C429      1.0  0.9963299343260662  0.6828995488209016  0.6644065427860013  1.0000
  C   C430      1.0  0.030931393281544484  0.6589032954686643  0.6236220453520505  1.0000
  C   C431      1.0  0.013326549513470454  0.6283166254773399  0.6681114472642893  1.0000
  C   C432      1.0  0.05602557757662385  0.6681200878151247  0.6744939618142956  1.0000
  H   H389      1.0  0.9916551831511164  0.6852694486851314  0.690034752034052  1.0000
  H   H390      1.0  0.9715409273872543  0.6765107098170494  0.6529354076026633  1.0000
  H   H391      1.0  0.002966339411651253  0.7064190233442666  0.6555835281619903  1.0000
  H   H392      1.0  0.05144606349119618  0.6412706476364533  0.6175021995544319  1.0000
  H   H393      1.0  0.007355880581303431  0.6529939956517892  0.6101482535838613  1.0000
  H   H394      1.0  0.03937975972787067  0.6821744492192071  0.6151035942246212  1.0000
  H   H395      1.0  0.03311653998152986  0.6098025065204496  0.6625701658977657  1.0000
  H   H396      1.0  0.9888466171474127  0.6215114048502227  0.6564706308219678  1.0000
  H   H397      1.0  0.008744687247521865  0.6279720526872424  0.6938185362368084  1.0000
  H   H398      1.0  0.06581962755190296  0.6906880379640437  0.6657618329375634  1.0000
  H   H399      1.0  0.07702478633890886  0.6501773463843401  0.6712459245850547  1.0000
  H   H400      1.0  0.05150791268372168  0.6709436577244212  0.7001240384022002  1.0000
  N   N13       1.0  0.5865391169385664  0.3467207733810338  0.19197128566994634  1.0000
  C   C433      1.0  0.6001206167048772  0.3378188192621031  0.2231797699118555  1.0000
  C   C434      1.0  0.5488550142528608  0.35306781146481653  0.19389921498602755  1.0000
  C   C435      1.0  0.5933541721146589  0.32080105919171426  0.16963347897307543  1.0000
  C   C436      1.0  0.6038859656893478  0.3751657244987154  0.1811814909607644  1.0000
  H   H401      1.0  0.6286079027134712  0.33360368037015603  0.22283593204060553  1.0000
  H   H402      1.0  0.5885243678712296  0.3158142136920895  0.2313717353668049  1.0000
  H   H403      1.0  0.5940736068049574  0.35617413969148043  0.24109555382293932  1.0000
  H   H404      1.0  0.5374985194599903  0.35879109350839833  0.17056462083374604  1.0000
  H   H405      1.0  0.5350590088581608  0.3324644243932478  0.20309559288364953  1.0000
  H   H406      1.0  0.5427924011334769  0.372977680124639  0.21006959390147376  1.0000
  H   H407      1.0  0.6214117606259671  0.314549437016335  0.16855048382965945  1.0000
  H   H408      1.0  0.5849530150828388  0.3271894203588959  0.14552816013140615  1.0000
  H   H409      1.0  0.5794908234906894  0.2992776381321824  0.17637350761349782  1.0000
  H   H410      1.0  0.5932645518154618  0.38320758317257025  0.15824675732710605  1.0000
  H   H411      1.0  0.63213405196745  0.37072088689888405  0.17791566285230304  1.0000
  H   H412      1.0  0.6005249373882985  0.3947866757932968  0.19823391763949813  1.0000
  N   N14       1.0  0.8538237711203198  0.12029869922143988  0.5717348290461218  1.0000
  C   C437      1.0  0.8831170704254386  0.09858794991483498  0.5646621267324524  1.0000
  C   C438      1.0  0.8671901732724057  0.1503316447658536  0.5834524887395062  1.0000
  C   C439      1.0  0.8317690287537228  0.10628929179343083  0.5958698182147445  1.0000
  C   C440      1.0  0.8332037261482609  0.12601400640700455  0.5429689999366565  1.0000
  H   H413      1.0  0.9002663430916042  0.1083529156541545  0.546484919025189  1.0000
  H   H414      1.0  0.8739141500275558  0.0756438986120962  0.5557908172772064  1.0000
  H   H415      1.0  0.899103941643044  0.09368781575275542  0.5859266186489123  1.0000
  H   H416      1.0  0.8456999347062699  0.16705601750631438  0.5892771126013291  1.0000
  H   H417      1.0  0.8828784946603841  0.14697968610538117  0.6051855135881862  1.0000
  H   H418      1.0  0.8835824790580191  0.1618879655881541  0.5657284866437969  1.0000
  H   H419      1.0  0.8096143419529003  0.12219579652840595  0.602114918974323  1.0000
  H   H420      1.0  0.846526638207472  0.10160105726950319  0.6179123789831565  1.0000
  H   H421      1.0  0.821068684431129  0.0836463955640443  0.5876604123041352  1.0000
  H   H422      1.0  0.8229087535952866  0.10376584500236685  0.5333435776207629  1.0000
  H   H423      1.0  0.8489800586599315  0.13686951094159397  0.524362598640173  1.0000
  H   H424      1.0  0.8107819388683157  0.1421887090436292  0.5475723623495408  1.0000
  N   N15       1.0  0.18742027427426947  0.8752341033949088  0.8585628528758346  1.0000
  C   C441      1.0  0.2034339783385045  0.8435892408288851  0.8553670333988562  1.0000
  C   C442      1.0  0.21453136576790524  0.8990210182476516  0.8582343144310743  1.0000
  C   C443      1.0  0.16860743179887905  0.8773746969091675  0.8885592132532335  1.0000
  C   C444      1.0  0.16329696266651372  0.8809950537028212  0.8321130813915935  1.0000
  H   H425      1.0  0.2180171061344428  0.8411235288432691  0.8330608086996251  1.0000
  H   H426      1.0  0.18353037077621104  0.8251317569225801  0.8554516913225931  1.0000
  H   H427      1.0  0.2216785070163898  0.8384145747206844  0.87505603025233  1.0000
  H   H428      1.0  0.20325541522134513  0.9231541685793789  0.8602468497482709  1.0000
  H   H429      1.0  0.23305999738288935  0.8955786387988999  0.8779663737610945  1.0000
  H   H430      1.0  0.22966086439502567  0.8977984526845751  0.8362140030160536  1.0000
  H   H431      1.0  0.18642695136530207  0.8733926872940967  0.9088596539962822  1.0000
  H   H432      1.0  0.14832953211485567  0.8594435052187894  0.8899482466166214  1.0000
  H   H433      1.0  0.15571225689682344  0.9007357198016148  0.8916615448885595  1.0000
  H   H434      1.0  0.14883285961741866  0.9036898283125536  0.8347462153177672  1.0000
  H   H435      1.0  0.14398025526500247  0.8622502148746631  0.8301596941427467  1.0000
  H   H436      1.0  0.17726107914269318  0.8814458235354836  0.8094208021665719  1.0000
  N   N16       1.0  0.7560310662766457  0.2866744451554783  0.2084377046785605  1.0000
  C   C445      1.0  0.7414269411318796  0.31429827001066934  0.22515953952866802  1.0000
  C   C446      1.0  0.7285491654284392  0.2719999421793514  0.18962997964700168  1.0000
  C   C447      1.0  0.7701077999693465  0.2638303885633227  0.23140388489234912  1.0000
  C   C448      1.0  0.7840258209566625  0.2966919590125316  0.1875704531378071  1.0000
  H   H437      1.0  0.7617157765357684  0.32648654956274686  0.23882602870822656  1.0000
  H   H438      1.0  0.7210178199557243  0.30750613615727185  0.2419342393808867  1.0000
  H   H439      1.0  0.7299255276174911  0.33172286588207683  0.2085642527540716  1.0000
  H   H440      1.0  0.7387074314670634  0.2512227201516783  0.17645667416416808  1.0000
  H   H441      1.0  0.7070039850427867  0.2640724520358881  0.204677032546112  1.0000
  H   H442      1.0  0.7174175464363987  0.28869315154916253  0.17212361151356903  1.0000
  H   H443      1.0  0.7496914845754661  0.25561737408003954  0.24752190651439387  1.0000
  H   H444      1.0  0.7906491560368826  0.27438611677221875  0.2461288538802131  1.0000
  H   H445      1.0  0.78171921017529  0.24282623715931786  0.21962641320338286  1.0000
  H   H446      1.0  0.7947699948493768  0.27679326117502817  0.1734508311134603  1.0000
  H   H447      1.0  0.8058391653309297  0.3067497401545264  0.2010727828756373  1.0000
  H   H448      1.0  0.7746217603453905  0.3149500030994985  0.17083341037559724  1.0000
  N   N17       1.0  0.5571600023210039  0.44048084653692177  0.06205680988358674  1.0000
  C   C449      1.0  0.5541125229447222  0.42176565122574455  0.09090948359917252  1.0000
  C   C450      1.0  0.5909246671375825  0.4333074691368564  0.047266763098079194  1.0000
  C   C451      1.0  0.5547370220266047  0.47420498723439664  0.07005708007649747  1.0000
  C   C452      1.0  0.5288375668382498  0.432722430185733  0.0401363057355788  1.0000
  H   H449      1.0  0.5301061831539946  0.4281476618024552  0.10383104150270878  1.0000
  H   H450      1.0  0.5763776113259503  0.4254211084590935  0.10704391355442484  1.0000
  H   H451      1.0  0.5535501521805414  0.3962043908281495  0.08554012209394607  1.0000
  H   H452      1.0  0.5940759724167872  0.44655880581808327  0.025123582713282074  1.0000
  H   H453      1.0  0.6128451795718666  0.4390747510205994  0.0631463182751153  1.0000
  H   H454      1.0  0.5939369416778101  0.4079355873945248  0.04161716435057472  1.0000
  H   H455      1.0  0.5571196435586931  0.4890615228772005  0.048846668998528964  1.0000
  H   H456      1.0  0.5754918198160022  0.4808713026492673  0.08681185034569125  1.0000
  H   H457      1.0  0.5294052776666702  0.48041110661362246  0.08112158438424044  1.0000
  H   H458      1.0  0.5309880668514302  0.4455363917788798  0.017632136567671042  1.0000
  H   H459      1.0  0.5030940842615762  0.438897823132216  0.0502298278846407  1.0000
  H   H460      1.0  0.5287409491897072  0.40722426650516436  0.03453037556245042  1.0000
  N   N18       1.0  0.48590912413730647  0.37584474599096906  0.6772133244702978  1.0000
  C   C453      1.0  0.518410525871628  0.3769609773536442  0.6955391599434376  1.0000
  C   C454      1.0  0.49200885446683457  0.3577432303916155  0.6481020946557029  1.0000
  C   C455      1.0  0.4742045383111197  0.4080933819393844  0.6692440841057173  1.0000
  C   C456      1.0  0.4591239545754888  0.3605791291852243  0.6959710265778307  1.0000
  H   H461      1.0  0.5147752174295839  0.3903367101934955  0.7177661948768259  1.0000
  H   H462      1.0  0.5392188845364402  0.3883018182829373  0.6820290115581097  1.0000
  H   H463      1.0  0.5280263306523988  0.3530071709552744  0.7019269019020904  1.0000
  H   H464      1.0  0.4681049776668376  0.35638485571980083  0.6335960653225936  1.0000
  H   H465      1.0  0.5121460328271877  0.3686321191379145  0.6334574583214085  1.0000
  H   H466      1.0  0.5009706554135187  0.33335187688124734  0.6532240214318052  1.0000
  H   H467      1.0  0.45005975454447333  0.4081481998083803  0.6549131115741436  1.0000
  H   H468      1.0  0.49406319915263724  0.42040424277140587  0.6554029136629663  1.0000
  H   H469      1.0  0.46893120677642214  0.422347078450688  0.6906544583532379  1.0000
  H   H470      1.0  0.4342338270612541  0.359133799853379  0.6828878999227681  1.0000
  H   H471      1.0  0.45363601388732155  0.37383476316450803  0.7179808810222122  1.0000
  H   H472      1.0  0.46731258115119534  0.33631120108987383  0.7026702368937382  1.0000
  N   N19       1.0  0.5359948003250797  0.9318018924403058  0.8842277084845345  1.0000
  C   C457      1.0  0.544416811100755  0.9037682734985482  0.8650592232286819  1.0000
  C   C458      1.0  0.5612756063094784  0.9341478081985308  0.9101754760537091  1.0000
  C   C459      1.0  0.5008361987844399  0.9291145526842061  0.8971765656075259  1.0000
  C   C460      1.0  0.5374451060257603  0.9601083212873801  0.8644832257825086  1.0000
  H   H473      1.0  0.5257563343548856  0.9012872753814676  0.8452888777047898  1.0000
  H   H474      1.0  0.5435547054877082  0.8819942771280227  0.8792992382834516  1.0000
  H   H475      1.0  0.5708027789658241  0.9050715383203828  0.854893047948159  1.0000
  H   H476      1.0  0.5560224368823495  0.9553279991440797  0.9248958448488802  1.0000
  H   H477      1.0  0.5602352447881209  0.9134891384591011  0.9259470429766049  1.0000
  H   H478      1.0  0.5882044603378072  0.9355151473467338  0.9013332280265376  1.0000
  H   H479      1.0  0.48113863061614837  0.9267724292027835  0.878289800297111  1.0000
  H   H480      1.0  0.49344648545246755  0.9500197793065424  0.9115507595776612  1.0000
  H   H481      1.0  0.49891678440875753  0.9082648856636484  0.9126253635449364  1.0000
  H   H482      1.0  0.531555746659324  0.9817443351645044  0.8783098502418257  1.0000
  H   H483      1.0  0.5184139280313683  0.9592902403719898  0.8448349068851425  1.0000
  H   H484      1.0  0.5635502895656168  0.9627109545238708  0.8540351995394828  1.0000
  N   N20       1.0  0.9964996754228947  0.8270526166296849  0.9146715200614155  1.0000
  C   C461      1.0  0.9855878265319281  0.8296983498715299  0.881514232592477  1.0000
  C   C462      1.0  0.0022819865532044403  0.8586845526789028  0.927618258756172  1.0000
  C   C463      1.0  0.028926020888424997  0.8081188527087466  0.9167928274229342  1.0000
  C   C464      1.0  0.9692359583594029  0.8117481771078766  0.9328188646684106  1.0000
  H   H485      1.0  0.9613735366709095  0.8441431547391595  0.8790352605011728  1.0000
  H   H486      1.0  0.9807651943214403  0.8063131418195695  0.8709830807611904  1.0000
  H   H487      1.0  0.005660351889001047  0.8409398082379252  0.8671121827340339  1.0000
  H   H488      1.0  0.9781925123711163  0.8734021000342717  0.9268725843431658  1.0000
  H   H489      1.0  0.011122787060801054  0.8575066214241029  0.9524213629967895  1.0000
  H   H490      1.0  0.022302362297913936  0.8710893954569432  0.9141846992849035  1.0000
  H   H491      1.0  0.0370622723206222  0.8043890492930139  0.9415589987719704  1.0000
  H   H492      1.0  0.05053684579628759  0.8198874389494595  0.9049542479341907  1.0000
  H   H493      1.0  0.026245786986422104  0.7846936025304391  0.9056565206801591  1.0000
  H   H494      1.0  0.9764635313351938  0.809787776900443  0.9580251587898292  1.0000
  H   H495      1.0  0.9644175659738005  0.7877172579374414  0.923905056629636  1.0000
  H   H496      1.0  0.944316052154082  0.8252924618349038  0.9315461320541347  1.0000
  N   N21       1.0  0.91085354763648  0.8919933372803258  0.5096991067100121  1.0000
  C   C465      1.0  0.9443465715199718  0.9053281829144728  0.5188974742660815  1.0000
  C   C466      1.0  0.904277124532206  0.8980721746024164  0.47610847106719373  1.0000
  C   C467      1.0  0.882968898406437  0.9067851218124947  0.5285403736409064  1.0000
  C   C468      1.0  0.9118464193049656  0.8578274124374363  0.5152898531491122  1.0000
  H   H497      1.0  0.9657949975226425  0.8955352314098468  0.5043290944255915  1.0000
  H   H498      1.0  0.9508432402785871  0.9000232486738388  0.5437859382689518  1.0000
  H   H499      1.0  0.9440610757136271  0.9312351820138236  0.5160145172059714  1.0000
  H   H500      1.0  0.8787140130816627  0.8891822485116442  0.4684930131378746  1.0000
  H   H501      1.0  0.9041424372211462  0.9236231265548579  0.47093643297511634  1.0000
  H   H502      1.0  0.9244285126146069  0.8866200695380663  0.46112813056299795  1.0000
  H   H503      1.0  0.8814702681141017  0.9325981437201605  0.5250363144182669  1.0000
  H   H504      1.0  0.8869562597116248  0.9024508121923586  0.5540146466760824  1.0000
  H   H505      1.0  0.8572319553582369  0.8974085492157264  0.5221539927523347  1.0000
  H   H506      1.0  0.8866401482600063  0.8471464410245895  0.5094266382824066  1.0000
  H   H507      1.0  0.9177360411535108  0.8523890123679582  0.540271670124217  1.0000
  H   H508      1.0  0.9320746934470976  0.8457763322403906  0.5009090125734095  1.0000
  N   N22       1.0  0.3752022384777679  0.4526241793718411  0.19024523694509632  1.0000
  C   C469      1.0  0.38401797403356186  0.46561184504059455  0.2213261337527996  1.0000
  C   C470      1.0  0.3765498169674611  0.4777000808857637  0.16658856604038375  1.0000
  C   C471      1.0  0.339935299156216  0.4400722389378825  0.19093608633934359  1.0000
  C   C472      1.0  0.4002226881356159  0.4271781907743357  0.18214378914682977  1.0000
  H   H509      1.0  0.3825384418126965  0.4474527157183301  0.23982657447962627  1.0000
  H   H510      1.0  0.3660154258637909  0.4851818358299398  0.22798335091470684  1.0000
  H   H511      1.0  0.4106454829412968  0.4748843292000611  0.221852064179467  1.0000
  H   H512      1.0  0.3703213084156692  0.46867521269184087  0.14278938009947623  1.0000
  H   H513      1.0  0.3577611652670021  0.4970873685792937  0.1718920883660504  1.0000
  H   H514      1.0  0.40271304663162905  0.48794562140291325  0.16552081577531447  1.0000
  H   H515      1.0  0.33259546589675965  0.42988209947363404  0.1678837284205845  1.0000
  H   H516      1.0  0.32042016438778437  0.45875876280625605  0.1967868733507544  1.0000
  H   H517      1.0  0.3378681558374942  0.4212100807594319  0.20876103136378918  1.0000
  H   H518      1.0  0.39444749945804564  0.41691984047762276  0.15872113418942493  1.0000
  H   H519      1.0  0.3997680915419873  0.407877100715353  0.19968492426007467  1.0000
  H   H520      1.0  0.42708135644121553  0.43590542819896083  0.1812717571612834  1.0000
  N   N23       1.0  0.9963704436295537  0.761918355174542  0.13593078728772462  1.0000
  C   C473      1.0  0.030982687211333904  0.7586018696022113  0.15060877671296738  1.0000
  C   C474      1.0  0.9904336741683519  0.7946790943326258  0.12575153464344363  1.0000
  C   C475      1.0  0.9696762437776515  0.7536907634251111  0.1589038330753092  1.0000
  C   C476      1.0  0.994184527360732  0.7407568124728089  0.108528609885385  1.0000
  H   H521      1.0  0.03671921329954042  0.7339853842384481  0.15782454373032984  1.0000
  H   H522      1.0  0.03319266747116045  0.7737484173251087  0.17179637768227837  1.0000
  H   H523      1.0  0.051735430716311814  0.7654535254933478  0.1342529518894676  1.0000
  H   H524      1.0  0.964566728061893  0.7979620748460747  0.11453661710065287  1.0000
  H   H525      1.0  0.9915866711256929  0.8112284073684841  0.1459370951746143  1.0000
  H   H526      1.0  0.010039741647069444  0.8017880921095811  0.10832553966686768  1.0000
  H   H527      1.0  0.9432191116516928  0.7562351720982932  0.14858879576137393  1.0000
  H   H528      1.0  0.9706999213848017  0.7691922981416843  0.1799364676185898  1.0000
  H   H529      1.0  0.9731734085213258  0.7290250535190542  0.1669304454144485  1.0000
  H   H530      1.0  0.968056043900979  0.7421371940777576  0.09744869095637279  1.0000
  H   H531      1.0  0.9995747818266741  0.7158609069998699  0.11503434263397999  1.0000
  H   H532      1.0  0.013276380871133142  0.7468071034719626  0.09027269669846039  1.0000
  N   N24       1.0  0.9973207451923716  0.938750742699352  0.20981014146734317  1.0000
  C   C477      1.0  0.032083804297597274  0.933175695860479  0.2235318792261529  1.0000
  C   C478      1.0  0.9971196901064425  0.9277143528651984  0.17695125144959553  1.0000
  C   C479      1.0  0.9883566040676707  0.9726036978624595  0.21101668456978143  1.0000
  C   C480      1.0  0.9716136687851972  0.9214143742370982  0.22787006404617893  1.0000
  H   H533      1.0  0.033170117310514335  0.9411456632485706  0.24831560018027282  1.0000
  H   H534      1.0  0.05223052134912143  0.9459106238396903  0.21058077851797835  1.0000
  H   H535      1.0  0.03954734979633168  0.9078170534623752  0.2231772710322517  1.0000
  H   H536      1.0  0.9712782716680934  0.9315931897959748  0.16583194574569962  1.0000
  H   H537      1.0  0.016440032352113665  0.940067272580897  0.16265440477293489  1.0000
  H   H538      1.0  0.0033488009112323525  0.9021112362234938  0.17543732650526528  1.0000
  H   H539      1.0  0.9621873043038401  0.9775047800924755  0.20083643799495257  1.0000
  H   H540      1.0  0.0072721403155320274  0.9865817268425708  0.19782691610452888  1.0000
  H   H541      1.0  0.9880826942569039  0.9814748211139489  0.23561610230210506  1.0000
  H   H542      1.0  0.9450639916968526  0.9256032524896759  0.21852706679929462  1.0000
  H   H543      1.0  0.9715345386217855  0.9288519748581692  0.2528750841223156  1.0000
  H   H544      1.0  0.9769649564429005  0.8956894168109367  0.2267288916051643  1.0000
  N   N25       1.0  0.752815242530852  0.2463639581108209  0.7412137328526367  1.0000
  C   C481      1.0  0.72656411277293  0.2565780104906621  0.7643528923319509  1.0000
  C   C482      1.0  0.7515153141184231  0.21202758054547952  0.7368915982050342  1.0000
  C   C483      1.0  0.7875203194914356  0.25479822643195155  0.7526798585394179  1.0000
  C   C484      1.0  0.7457480784389947  0.2619899104407544  0.7109368095387566  1.0000
  H   H545      1.0  0.7314128304500489  0.2452971090716127  0.7875238427672119  1.0000
  H   H546      1.0  0.7000535283200876  0.25041164673537153  0.7565797833080387  1.0000
  H   H547      1.0  0.7267225739401656  0.28242915533437  0.7680196365567874  1.0000
  H   H548      1.0  0.7259030569348068  0.2048004340656635  0.7277723188698749  1.0000
  H   H549      1.0  0.7714344790367293  0.20348378299578268  0.7199368400139896  1.0000
  H   H550      1.0  0.7563508619095127  0.19946050334253537  0.7593811221027792  1.0000
  H   H551      1.0  0.8078492665833654  0.2480149904326629  0.7354601803688469  1.0000
  H   H552      1.0  0.7940682260033803  0.24272903117735248  0.7751454379064534  1.0000
  H   H553      1.0  0.7893040153608771  0.28048425969319807  0.7567811253062285  1.0000
  H   H554      1.0  0.7475800435687235  0.28793773075919227  0.7128609152622764  1.0000
  H   H555      1.0  0.7194756458414908  0.25686899080427644  0.7017805390849565  1.0000
  H   H556      1.0  0.76453040794989  0.2540934291730846  0.6927156814495626  1.0000
  N   N26       1.0  0.44102158245894957  0.6993990064408746  0.684034004968175  1.0000
  C   C485      1.0  0.46746421855053116  0.7066861938557295  0.6604569585907238  1.0000
  C   C486      1.0  0.43757777888072175  0.7256134565060811  0.7066147364078199  1.0000
  C   C487      1.0  0.4514233453941139  0.67051925251501  0.7009885440001121  1.0000
  C   C488      1.0  0.4074843438305183  0.6947628098653517  0.6681353013486319  1.0000
  H   H557      1.0  0.47057455943984294  0.6873510075642087  0.6430036346937412  1.0000
  H   H558      1.0  0.49317827819008564  0.7103445200966549  0.6714849322991148  1.0000
  H   H559      1.0  0.4603440252131248  0.7283822554048772  0.6472181170695259  1.0000
  H   H560      1.0  0.4182718608951768  0.720449854944772  0.7250497655446208  1.0000
  H   H561      1.0  0.4625208071433969  0.730328293716778  0.7186105570098298  1.0000
  H   H562      1.0  0.4286086463085945  0.7475809958649831  0.6948688815845951  1.0000
  H   H563      1.0  0.4540852138340619  0.6501368587065253  0.6847278609612604  1.0000
  H   H564      1.0  0.43196001142093515  0.6645112354214938  0.7190721825383015  1.0000
  H   H565      1.0  0.4766453757410933  0.6731665449882218  0.7132479675207275  1.0000
  H   H566      1.0  0.3865512612627682  0.6906227116575819  0.685344988017425  1.0000
  H   H567      1.0  0.4086773167087342  0.6744362836574725  0.6517326208259011  1.0000
  H   H568      1.0  0.3994134585220107  0.7157458705291238  0.654310720905088  1.0000
  N   N27       1.0  0.6323670301143649  0.13200247820023203  0.28227864954441645  1.0000
  C   C489      1.0  0.6325503393148251  0.1430751233367109  0.31513217849916103  1.0000
  C   C490      1.0  0.6537474061403877  0.10292320503630759  0.27982014727569315  1.0000
  C   C491      1.0  0.6468066418435452  0.1563373090226956  0.2618952529949531  1.0000
  C   C492      1.0  0.5965167089411523  0.12554393591829927  0.2723539751971889  1.0000
  H   H569      1.0  0.6168294150176462  0.1650721945940452  0.3179667328727083  1.0000
  H   H570      1.0  0.6593300177474083  0.1479870417655993  0.32327812095130803  1.0000
  H   H571      1.0  0.622016823493945  0.12512561676417389  0.331161941558946  1.0000
  H   H572      1.0  0.6542626956553559  0.09373775513168892  0.255400198106762  1.0000
  H   H573      1.0  0.6808946245867784  0.10688144816810463  0.2872609997138664  1.0000
  H   H574      1.0  0.6437028221534714  0.0841082401228983  0.2950750772455825  1.0000
  H   H575      1.0  0.6470404598595455  0.14880461167166104  0.23691631976287963  1.0000
  H   H576      1.0  0.6739129906333078  0.16168897181125885  0.26871010392460065  1.0000
  H   H577      1.0  0.6314755459613421  0.17873002248779435  0.26324341916016786  1.0000
  H   H578      1.0  0.5955357404375491  0.1166919139972693  0.2477848797007653  1.0000
  H   H579      1.0  0.5796375921271857  0.14698740607260308  0.2734118852413989  1.0000
  H   H580      1.0  0.5848178269443227  0.10744064680851739  0.28744864729359065  1.0000
  N   N28       1.0  0.44278778968204907  0.4256117032087998  0.4804149863365055  1.0000
  C   C493      1.0  0.4192696684171637  0.4247888777738763  0.4530140736199076  1.0000
  C   C494      1.0  0.47895699666049263  0.42672524796894695  0.46954682525535507  1.0000
  C   C495      1.0  0.43843314791488225  0.3971174878779919  0.49940923542498195  1.0000
  C   C496      1.0  0.43460352520206863  0.4536936959587731  0.49966826052199254  1.0000
  H   H581      1.0  0.3917189450083325  0.4236736088726625  0.46019811855876147  1.0000
  H   H582      1.0  0.42489264852835085  0.40404201649576527  0.4377908545123205  1.0000
  H   H583      1.0  0.4216267655803297  0.4460449072917142  0.4381854512492517  1.0000
  H   H584      1.0  0.4974831299840523  0.4270375687848183  0.48962077584757846  1.0000
  H   H585      1.0  0.48590203411534627  0.40581108824575046  0.45493676832424756  1.0000
  H   H586      1.0  0.4832812720623037  0.44792302495980496  0.45513448992626504  1.0000
  H   H587      1.0  0.45652667848573414  0.3966123193293159  0.5197599106550377  1.0000
  H   H588      1.0  0.44381813505891027  0.3754713356603124  0.48539364327395157  1.0000
  H   H589      1.0  0.4116746155891457  0.3957713157443396  0.5086425840422178  1.0000
  H   H590      1.0  0.45243410873099044  0.4554015169416103  0.5201504436831552  1.0000
  H   H591      1.0  0.40777167037512807  0.4532469226919332  0.5089980398317555  1.0000
  H   H592      1.0  0.4367607451697359  0.4756340883502564  0.48587119375226906  1.0000
  N   N29       1.0  0.49774893835083756  0.9067202980141129  0.22919131842959367  1.0000
  C   C497      1.0  0.5037189311863473  0.922284648769874  0.1988931404462643  1.0000
  C   C498      1.0  0.5102026518095235  0.8737611130113565  0.22752311555227187  1.0000
  C   C499      1.0  0.4603520276248718  0.9078699228601292  0.23627462504745977  1.0000
  C   C500      1.0  0.5168233307562438  0.9230686024635718  0.2541725709449288  1.0000
  H   H593      1.0  0.4939231876152941  0.9470415384620116  0.19929701751112008  1.0000
  H   H594      1.0  0.49016877587776175  0.9101560312518294  0.17939889905077133  1.0000
  H   H595      1.0  0.5318102778333929  0.9228331669471048  0.1932594097398007  1.0000
  H   H596      1.0  0.5054113859737144  0.8612437560869671  0.24985716723013426  1.0000
  H   H597      1.0  0.49677561875089427  0.8607546940190925  0.20860594255929518  1.0000
  H   H598      1.0  0.5384623525903589  0.8722148183396665  0.22280013519410408  1.0000
  H   H599      1.0  0.4451434840356945  0.8952375712711311  0.2181482139205018  1.0000
  H   H600      1.0  0.45009609591570676  0.9324907513615189  0.23730388189740997  1.0000
  H   H601      1.0  0.4549268555122197  0.8970966890441435  0.25938809697753273  1.0000
  H   H602      1.0  0.513304191087383  0.9117530643989156  0.27733054425033876  1.0000
  H   H603      1.0  0.5075501963161169  0.947780211581054  0.2564081849120641  1.0000
  H   H604      1.0  0.5450749431214867  0.9234039709439368  0.2493033072348194  1.0000
  N   N30       1.0  0.5409465563629645  0.19323317103812  0.7564729669764049  1.0000
  C   C501      1.0  0.515212323745033  0.21459082028609502  0.7713523092291942  1.0000
  C   C502      1.0  0.5729822994214152  0.21032189869322082  0.7504101954917304  1.0000
  C   C503      1.0  0.5268463862664907  0.18134726644862253  0.7265617309089383  1.0000
  C   C504      1.0  0.5487510250913149  0.1666131115265081  0.7775840907707323  1.0000
  H   H605      1.0  0.4904397332219644  0.2026305292327253  0.775705353190904  1.0000
  H   H606      1.0  0.5092595422321101  0.23534055373836776  0.7564463349334192  1.0000
  H   H607      1.0  0.524749797436953  0.22348043402920426  0.7942910024695692  1.0000
  H   H608      1.0  0.5931802061391654  0.19464082682663744  0.7398195058248668  1.0000
  H   H609      1.0  0.5681485389950863  0.2301802119169288  0.7340082725573117  1.0000
  H   H610      1.0  0.5837276733670664  0.2203944590162713  0.7723980065234247  1.0000
  H   H611      1.0  0.5457053781978904  0.16517035819722625  0.7147014286494151  1.0000
  H   H612      1.0  0.5205122114025218  0.2008752518466365  0.7101151149237874  1.0000
  H   H613      1.0  0.5027746836956576  0.16810370393848253  0.7303507527005182  1.0000
  H   H614      1.0  0.5675179757004453  0.14955965635019106  0.7668967380482516  1.0000
  H   H615      1.0  0.5249651511955878  0.15370859876642806  0.7831241738071737  1.0000
  H   H616      1.0  0.5597995388733173  0.17453972784561897  0.8003506753472402  1.0000
  N   N31       1.0  0.4049163426242442  0.6657254614269108  0.4800366570737749  1.0000
  C   C505      1.0  0.39628662551082244  0.6600339978240745  0.4467524124328394  1.0000
  C   C506      1.0  0.4311698234451365  0.6902466423886551  0.48241231218452574  1.0000
  C   C507      1.0  0.41883372857444545  0.636464409619453  0.4942045025558271  1.0000
  C   C508      1.0  0.3732957665942684  0.6761616923798104  0.4967522560561161  1.0000
  H   H617      1.0  0.3764908564324884  0.6415801438968936  0.4442854303588431  1.0000
  H   H618      1.0  0.41943886775521766  0.6521555124281263  0.43327322149814085  1.0000
  H   H619      1.0  0.38556719968986203  0.6817033997593409  0.435404443148797  1.0000
  H   H620      1.0  0.42203365216879374  0.7122955752975488  0.47089660033140807  1.0000
  H   H621      1.0  0.43733665220934204  0.6958467670450614  0.5073281624888899  1.0000
  H   H622      1.0  0.4557185283610542  0.682748950012543  0.47086288824046124  1.0000
  H   H623      1.0  0.44280930164131665  0.627987513361154  0.4823141585870001  1.0000
  H   H624      1.0  0.39987148962775126  0.6173305250034805  0.4926416632654489  1.0000
  H   H625      1.0  0.4253125744673405  0.6398405694254555  0.5193840232787703  1.0000
  H   H626      1.0  0.3787618968509652  0.6811916598242415  0.5218808996616551  1.0000
  H   H627      1.0  0.3531159683011853  0.6579547007846154  0.49570426969716236  1.0000
  H   H628      1.0  0.3618467624840834  0.6979127796807592  0.48620703896777817  1.0000
  N   N32       1.0  0.9191941312391362  0.28973178117313086  0.42438250350477447  1.0000
  C   C509      1.0  0.904597495806523  0.25822272291460785  0.4212471063970319  1.0000
  C   C510      1.0  0.9138310944275704  0.30125912321628495  0.45672583922468163  1.0000
  C   C511      1.0  0.9015695153778772  0.31131032465090436  0.40210256980097586  1.0000
  C   C512      1.0  0.956597633535614  0.28799729263760027  0.4174550327781938  1.0000
  H   H629      1.0  0.9091410386258643  0.24833201222522897  0.3975445084625985  1.0000
  H   H630      1.0  0.8762077384959706  0.2589646713834648  0.4248841752337464  1.0000
  H   H631      1.0  0.916290143226967  0.24146391836766357  0.43841500610191614  1.0000
  H   H632      1.0  0.9242349534510225  0.3251707482288121  0.45990486568792255  1.0000
  H   H633      1.0  0.8858452383835257  0.3024061860450843  0.46270556606468094  1.0000
  H   H634      1.0  0.9269229561765333  0.28558722396163977  0.4741351303009738  1.0000
  H   H635      1.0  0.9121962908080119  0.33523326610626997  0.4033722532857283  1.0000
  H   H636      1.0  0.8733817529703443  0.31355136584958426  0.4069045024625631  1.0000
  H   H637      1.0  0.9046893124642922  0.3031366769762988  0.3775192167197248  1.0000
  H   H638      1.0  0.9706865948739614  0.27181822296235925  0.43370930825688003  1.0000
  H   H639      1.0  0.9684565428336992  0.31140899472312245  0.41954005091025776  1.0000
  H   H640      1.0  0.9614834085666099  0.27937632199255735  0.39319588279465795  1.0000
  N   N33       1.0  0.8907494049435529  0.8653626101654334  0.30791721845224895  1.0000
  C   C513      1.0  0.9028299420400702  0.8332795242903256  0.29962186788214445  1.0000
  C   C514      1.0  0.8529701908098025  0.8655990098680222  0.31306110639134266  1.0000
  C   C515      1.0  0.89874562492408  0.8868723971904766  0.28204287587269855  1.0000
  C   C516      1.0  0.9084987758737295  0.8755530612537293  0.33687332597719616  1.0000
  H   H641      1.0  0.8897582822813387  0.8245982661237495  0.27810106643021426  1.0000
  H   H642      1.0  0.897890448973832  0.8164721426495851  0.31889682892779275  1.0000
  H   H643      1.0  0.9312320109630607  0.8323104068120298  0.2953967857371287  1.0000
  H   H644      1.0  0.8429198016394356  0.8894073868141986  0.3194648349385681  1.0000
  H   H645      1.0  0.8386852409431299  0.8584478295608788  0.2915685084496658  1.0000
  H   H646      1.0  0.8459619536189982  0.8494998067057532  0.33232466185330795  1.0000
  H   H647      1.0  0.8904436994918431  0.9113545590547638  0.2875832581325347  1.0000
  H   H648      1.0  0.885385576581192  0.8800714860801614  0.25995446432143715  1.0000
  H   H649      1.0  0.9269083899874511  0.8869895183900088  0.27725738773358816  1.0000
  H   H650      1.0  0.936978311363609  0.8763870158475726  0.33361747005755965  1.0000
  H   H651      1.0  0.9039547133330936  0.8591869300821089  0.3566077617202734  1.0000
  H   H652      1.0  0.8994858727678677  0.8992440992651357  0.34456040060600024  1.0000
  N   N34       1.0  0.5167892059111892  0.17526102486716733  0.5663669275147359  1.0000
  C   C517      1.0  0.5018468163332879  0.18300692887522274  0.5973189259512979  1.0000
  C   C518      1.0  0.5474802872638216  0.15440313115837756  0.5706474638642591  1.0000
  C   C519      1.0  0.5271254731039802  0.2043128819159894  0.5505656083627787  1.0000
  C   C520      1.0  0.49071317978883694  0.15925335790493156  0.5469990788698286  1.0000
  H   H653      1.0  0.47883062467352167  0.19904275348732625  0.5950625429217686  1.0000
  H   H654      1.0  0.520804548862432  0.19515254634396206  0.61257280976766  1.0000
  H   H655      1.0  0.49364813023851656  0.16151524166272657  0.6097547751400143  1.0000
  H   H656      1.0  0.5673265455580547  0.16546176362296738  0.5857935131091211  1.0000
  H   H657      1.0  0.540386379613282  0.1320307365473421  0.5819107775465031  1.0000
  H   H658      1.0  0.5598826117068627  0.14841419734850536  0.5478699747645284  1.0000
  H   H659      1.0  0.5380793806363583  0.19937135264790062  0.5269774570409834  1.0000
  H   H660      1.0  0.5470273975125535  0.216850401468768  0.5644338092450232  1.0000
  H   H661      1.0  0.5047185035774628  0.22094358915826007  0.5475399406885227  1.0000
  H   H662      1.0  0.4672419872070918  0.1744159195046202  0.543306204196418  1.0000
  H   H663      1.0  0.48219999538936037  0.1372841587234752  0.5583266114522292  1.0000
  H   H664      1.0  0.5011229388348069  0.152734312255004  0.5235478277084846  1.0000
  N   N35       1.0  0.5010499157522232  0.16192393798255722  0.35616998068735894  1.0000
  C   C521      1.0  0.5371341118546022  0.15872383361051945  0.36752097527071387  1.0000
  C   C522      1.0  0.47735492789834894  0.15021220944727243  0.3802511654172788  1.0000
  C   C523      1.0  0.4970068258315239  0.14352744460690836  0.3270142684206255  1.0000
  C   C524      1.0  0.492688383232805  0.19529206664094567  0.3498486534324442  1.0000
  H   H665      1.0  0.5556035909024943  0.16775594400542126  0.35003875350347874  1.0000
  H   H666      1.0  0.5443892465334722  0.13379517881782044  0.37243430156917223  1.0000
  H   H667      1.0  0.5410937470452141  0.17240462586661986  0.3894731183299979  1.0000
  H   H668      1.0  0.4828430562265187  0.12507986102427382  0.38558604999847984  1.0000
  H   H669      1.0  0.47984666370486156  0.16348874076298237  0.40260753050083625  1.0000
  H   H670      1.0  0.4498950507547739  0.15234797493740548  0.37242976368767183  1.0000
  H   H671      1.0  0.4700694777412287  0.1456008948531189  0.31774499940233636  1.0000
  H   H672      1.0  0.5031499450444024  0.11818138609691498  0.3307920838811583  1.0000
  H   H673      1.0  0.5142040859217366  0.15202396077309355  0.30819795319920124  1.0000
  H   H674      1.0  0.4657147906089273  0.1986867106738417  0.34096508381998125  1.0000
  H   H675      1.0  0.5099418783586018  0.20473733525600268  0.3316705708546534  1.0000
  H   H676      1.0  0.4958103646790272  0.2101130305497072  0.371166275833084  1.0000
  N   N36       1.0  0.9392279222889639  0.8902044893271562  0.709389022894656  1.0000
  C   C525      1.0  0.9594948996912087  0.9017320117529972  0.7363648576631009  1.0000
  C   C526      1.0  0.901920821797004  0.8936198320748912  0.7163740235844879  1.0000
  C   C527      1.0  0.948256698434302  0.856801235057759  0.7036055963306393  1.0000
  C   C528      1.0  0.9473094090681453  0.9087270795911145  0.6812886890063133  1.0000
  H   H677      1.0  0.9878312554263533  0.8997211194530556  0.7320630405968259  1.0000
  H   H678      1.0  0.9542493347841987  0.8882873514727355  0.7580493062605677  1.0000
  H   H679      1.0  0.9533179317356167  0.9268228904120792  0.7416016647647967  1.0000
  H   H680      1.0  0.8857190932126533  0.8851755992590875  0.6966115842859182  1.0000
  H   H681      1.0  0.8949610666238811  0.8801786767640657  0.737606621058941  1.0000
  H   H682      1.0  0.894235040613001  0.9185684933861974  0.720613799223033  1.0000
  H   H683      1.0  0.9336037718722919  0.8472348110871102  0.6833114810238489  1.0000
  H   H684      1.0  0.9424762011656734  0.8420776936518518  0.7242844048889285  1.0000
  H   H685      1.0  0.976245981399763  0.8533852986425888  0.6982789130256536  1.0000
  H   H686      1.0  0.9322282682353109  0.900960749450828  0.660513492318752  1.0000
  H   H687      1.0  0.9752133417791836  0.9065915991872053  0.6752624638944409  1.0000
  H   H688      1.0  0.9409429964290553  0.9340521902512842  0.6848320504141534  1.0000
  N   N37       1.0  0.4525367179741376  0.9712733049733505  0.4280660551852432  1.0000
  C   C529      1.0  0.42255124877363187  0.9585933828467479  0.4446931305363137  1.0000
  C   C530      1.0  0.44183592712368697  0.9813435445403744  0.3962883527043535  1.0000
  C   C531      1.0  0.48010822189157415  0.9467886041829419  0.42588844524301933  1.0000
  C   C532      1.0  0.465765596109243  0.9983972077028328  0.4455940147623131  1.0000
  H   H689      1.0  0.4298351723218648  0.9509931960145354  0.4688518238600461  1.0000
  H   H690      1.0  0.41195639276506313  0.9379975170761192  0.4320451919302129  1.0000
  H   H691      1.0  0.40128258563894703  0.9765097293349939  0.44681929255890696  1.0000
  H   H692      1.0  0.464117043805186  0.9900703993720792  0.382687677874154  1.0000
  H   H693      1.0  0.43053686959337656  0.9617149676578503  0.3827405844732685  1.0000
  H   H694      1.0  0.4219455170138009  0.0006063572906545023  0.3971493576785144  1.0000
  H   H695      1.0  0.4707644952564478  0.9255284297811381  0.4136174581716095  1.0000
  H   H696      1.0  0.4895174848949532  0.9395197923567101  0.44956035458101173  1.0000
  H   H697      1.0  0.5028002531267198  0.9552808318799344  0.4127256569198913  1.0000
  H   H698      1.0  0.4735827306106676  0.991666362624613  0.4698009570960068  1.0000
  H   H699      1.0  0.4459591797121662  0.017674627197651338  0.44748019288856405  1.0000
  H   H700      1.0  0.48879033480602724  0.008253243968052493  0.43399296036949536  1.0000
  N   N38       1.0  0.7233496232457626  0.9264364094627822  0.18474706796341875  1.0000
  C   C533      1.0  0.691653562586934  0.9360109117473409  0.2017844444440761  1.0000
  C   C534      1.0  0.7162653261310384  0.9264865898990933  0.15068381125737465  1.0000
  C   C535      1.0  0.7344175198645111  0.894581163299655  0.19459496825743158  1.0000
  C   C536      1.0  0.7511313936395202  0.9485847036080988  0.19200500765992676  1.0000
  H   H701      1.0  0.6961125359084516  0.9365792417963369  0.22757347615147694  1.0000
  H   H702      1.0  0.6702801161089321  0.9195677322752841  0.19720513858295974  1.0000
  H   H703      1.0  0.682185406579393  0.9598023268106213  0.19468072170176906  1.0000
  H   H704      1.0  0.7074761680689265  0.9500892730891151  0.1424048068206211  1.0000
  H   H705      1.0  0.7397740415117904  0.9194555353069499  0.1371997858651541  1.0000
  H   H706      1.0  0.6956812985104741  0.9097260314481703  0.14437427099464795  1.0000
  H   H707      1.0  0.7588976986926688  0.8870528335988545  0.18288020634680605  1.0000
  H   H708      1.0  0.7147724751147286  0.8769064361251325  0.18840419961140767  1.0000
  H   H709      1.0  0.7390014854089969  0.8934706379371641  0.22035144335898776  1.0000
  H   H710      1.0  0.7756521261266514  0.9417677077211443  0.1799063781641808  1.0000
  H   H711      1.0  0.7569037267461982  0.9492063537963753  0.21760200045312764  1.0000
  H   H712      1.0  0.7438463203765978  0.9728524280798163  0.18467712805495418  1.0000
  N   N39       1.0  0.16951466512696056  0.491905212961068  0.22219996125918284  1.0000
  C   C537      1.0  0.13369650048540338  0.5042379015900115  0.22582633623723147  1.0000
  C   C538      1.0  0.17157996521732732  0.4588403719284398  0.23240455442660563  1.0000
  C   C539      1.0  0.19311524702930738  0.5106784166449854  0.24164584560128397  1.0000
  C   C540      1.0  0.17963698889530444  0.4938169405874123  0.18893403021818997  1.0000
  H   H713      1.0  0.1313664691959009  0.5293514506741597  0.21906051066687304  1.0000
  H   H714      1.0  0.12461878346277078  0.5020497414840137  0.2504002938952624  1.0000
  H   H715      1.0  0.11532779094687218  0.4912466037536449  0.21077499805165878  1.0000
  H   H716      1.0  0.1986524033789152  0.44940511758758345  0.2321298536730662  1.0000
  H   H717      1.0  0.16190770808038746  0.4561117747918216  0.2567190500264192  1.0000
  H   H718      1.0  0.1559991981705846  0.44362026187200837  0.2168794313486788  1.0000
  H   H719      1.0  0.2201630395360783  0.5012195843102286  0.2405700310528885  1.0000
  H   H720      1.0  0.18541883774137657  0.5103637851710491  0.2667312676461514  1.0000
  H   H721      1.0  0.1932609788413191  0.5355575532774185  0.2339687896934017  1.0000
  H   H722      1.0  0.20630608441930942  0.4842328867303197  0.18524327680847774  1.0000
  H   H723      1.0  0.1787026976717474  0.5184525185781224  0.18042418830860452  1.0000
  H   H724      1.0  0.16191856661537818  0.4801376888277096  0.1736840030215909  1.0000
  N   N40       1.0  0.02041929507326201  0.3332464427735269  0.9559828610746619  1.0000
  C   C541      1.0  0.986942697956143  0.3219823559725774  0.9674315719960875  1.0000
  C   C542      1.0  0.014171704707540478  0.3582668932728222  0.9326216205297042  1.0000
  C   C543      1.0  0.03991759733652578  0.30697072427302996  0.9411781752087249  1.0000
  C   C544      1.0  0.040647757928523154  0.3456750406031603  0.9825770207767834  1.0000
  H   H725      1.0  0.9905318820559347  0.30302277861463106  0.9850764833471066  1.0000
  H   H726      1.0  0.9710834488100949  0.31233908937520394  0.9479463479275548  1.0000
  H   H727      1.0  0.9714563117306622  0.3411504262190446  0.9787953900453692  1.0000
  H   H728      1.0  0.03893842635523326  0.36718341767815615  0.92333623337177  1.0000
  H   H729      1.0  0.9992336503256746  0.3495476718963939  0.912100136342462  1.0000
  H   H730      1.0  0.9995359878454292  0.3785609072563512  0.9428255984902963  1.0000
  H   H731      1.0  0.04594532180176336  0.2879204032987507  0.9582046735079237  1.0000
  H   H732      1.0  0.06480005188655547  0.31488320955497556  0.9311918386069424  1.0000
  H   H733      1.0  0.024966344022608666  0.29658088970592317  0.921537571152559  1.0000
  H   H734      1.0  0.0664438523715285  0.35366142922542076  0.974866612805576  1.0000
  H   H735      1.0  0.04517064653794889  0.32759715424495334  0.0009554203461690225  1.0000
  H   H736      1.0  0.027142315062053113  0.36607143534981684  0.9939087220593701  1.0000
  N   N41       1.0  0.273526943701086  0.70355322709098  0.8502877761410755  1.0000
  C   C545      1.0  0.2657023223763199  0.7138314493859992  0.8826405100870403  1.0000
  C   C546      1.0  0.27417688071125196  0.7311489780793216  0.8294775863655902  1.0000
  C   C547      1.0  0.24661608205019606  0.6819472452104147  0.8393919286484156  1.0000
  C   C548      1.0  0.3076676597373051  0.6872176809007874  0.8496684717416472  1.0000
  H   H737      1.0  0.26538206770858197  0.6935124617776813  0.8989532339172842  1.0000
  H   H738      1.0  0.2398636837835796  0.7258550105025531  0.8840596627493174  1.0000
  H   H739      1.0  0.2852975082802357  0.7304094338089295  0.8915620627455068  1.0000
  H   H740      1.0  0.27968507423589123  0.72414991644236  0.8048187322969043  1.0000
  H   H741      1.0  0.24892701482047044  0.7442023744613071  0.8293309153101606  1.0000
  H   H742      1.0  0.29447814975345105  0.7478459527719302  0.8367878075809784  1.0000
  H   H743      1.0  0.24580965193837057  0.6606564243816208  0.8543790753997536  1.0000
  H   H744      1.0  0.25125766258241516  0.6741777056633605  0.8148393642534126  1.0000
  H   H745      1.0  0.22042880973030352  0.6932955078741797  0.8401033854233168  1.0000
  H   H746      1.0  0.32865114965765174  0.7030000284069398  0.8574130085941372  1.0000
  H   H747      1.0  0.31420028931973554  0.6787597918305189  0.8256577146056188  1.0000
  H   H748      1.0  0.3083093910549713  0.6664457457734297  0.8653976428289258  1.0000
  N   N42       1.0  0.10119868128052323  0.8084178663667014  0.4240566404589136  1.0000
  C   C549      1.0  0.07259023039947388  0.796708626539165  0.40446502900254294  1.0000
  C   C550      1.0  0.13185939687952986  0.7873951905422711  0.42048675196670116  1.0000
  C   C551      1.0  0.09049432504096289  0.8092654583443479  0.4572406408964588  1.0000
  C   C552      1.0  0.10983008512706571  0.8403711768128065  0.41395381700295986  1.0000
  H   H749      1.0  0.04917511346300585  0.8121668070200573  0.4063719347453819  1.0000
  H   H750      1.0  0.06505797704741978  0.7727787737178509  0.41157137886564754  1.0000
  H   H751      1.0  0.07982447899435408  0.7956553149182157  0.37924820188511127  1.0000
  H   H752      1.0  0.12642134706313013  0.7631892861714011  0.42834436794425945  1.0000
  H   H753      1.0  0.1401397795371846  0.7858780031441098  0.39556987408392447  1.0000
  H   H754      1.0  0.15425798156272008  0.7959027556680051  0.43434440145444875  1.0000
  H   H755      1.0  0.11169446355697077  0.8172947689594503  0.47284198188851184  1.0000
  H   H756      1.0  0.08259425783289664  0.7858005312901164  0.46551573711915517  1.0000
  H   H757      1.0  0.06803598907622566  0.8256383789571423  0.460808401651113  1.0000
  H   H758      1.0  0.11774433702603959  0.8405967486117504  0.38894885140911184  1.0000
  H   H759      1.0  0.13157438063249516  0.8498887169407365  0.42797031239988265  1.0000
  H   H760      1.0  0.08726918361980696  0.8568971959043715  0.41642810484598763  1.0000
  N   N43       1.0  0.9430339954422357  0.4359869668136565  0.03643924953964994  1.0000
  C   C553      1.0  0.9599410373357209  0.41555037295863967  0.06012819873678854  1.0000
  C   C554      1.0  0.9552145632713758  0.4683573371617077  0.04035800831673808  1.0000
  C   C555      1.0  0.9051284006350393  0.43552382252588223  0.04052942284735428  1.0000
  C   C556      1.0  0.9518739292538422  0.42440750786928727  0.004755419481785372  1.0000
  H   H761      1.0  0.9516583842034789  0.3908586179997784  0.05767840688842152  1.0000
  H   H762      1.0  0.9536426679575309  0.42357675181019644  0.084327265605872  1.0000
  H   H763      1.0  0.9885605317387122  0.4154490934406592  0.05791483873991976  1.0000
  H   H764      1.0  0.9426613864482232  0.4846587374467869  0.023271222748254994  1.0000
  H   H765      1.0  0.9494385734181455  0.47764958128955853  0.06417821210201247  1.0000
  H   H766      1.0  0.9837052844726127  0.4694914794033842  0.03713091373404409  1.0000
  H   H767      1.0  0.8913956231408864  0.45089769995158885  0.023310444757931315  1.0000
  H   H768      1.0  0.8975403780952308  0.4438889105655971  0.06421133229297893  1.0000
  H   H769      1.0  0.895121625915888  0.41139891039463594  0.03778651876862482  1.0000
  H   H770      1.0  0.9395338595947111  0.43933695971669545  0.9863449944215893  1.0000
  H   H771      1.0  0.9430626424712835  0.39999572939315414  0.0011720814737061769  1.0000
  H   H772      1.0  0.9802984690900756  0.42442059603412047  0.0009021339775805437  1.0000
  N   N44       1.0  0.6897344647066909  0.031009657640084454  0.7365829978000054  1.0000
  C   C557      1.0  0.674606771208858  0.05248888803266727  0.7128114655090093  1.0000
  C   C558      1.0  0.6842420048041691  0.04456218273865753  0.76811143155342  1.0000
  C   C559      1.0  0.7272476544506616  0.026547622512839597  0.7310966444864747  1.0000
  C   C560      1.0  0.6727476948833481  0.00039961450882963767  0.7344163140907854  1.0000
  H   H773      1.0  0.6867840727554032  0.07581143387688805  0.7135831278792606  1.0000
  H   H774      1.0  0.646304561881027  0.056295489387203634  0.7163618702465115  1.0000
  H   H775      1.0  0.6780563196854907  0.042970090040851394  0.6887090009851606  1.0000
  H   H776      1.0  0.6562280345769153  0.048464474040690764  0.7728795975786783  1.0000
  H   H777      1.0  0.694537695806408  0.028619754254602725  0.7867509389030102  1.0000
  H   H778      1.0  0.6970354781717814  0.06747756868475352  0.7707873156439259  1.0000
  H   H779      1.0  0.7323930889343409  0.015897389296640974  0.7077079546217899  1.0000
  H   H780      1.0  0.7393731668959628  0.010637200111704104  0.7488484025294233  1.0000
  H   H781      1.0  0.7408849231901103  0.04917911171564149  0.7320156602811004  1.0000
  H   H782      1.0  0.6832380480439949  0.9836714595142046  0.7522428368837033  1.0000
  H   H783      1.0  0.6765243284825255  0.9894958385636043  0.7108618699224308  1.0000
  H   H784      1.0  0.6444265958780239  0.002871998950146226  0.7385924315179635  1.0000
  N   N45       1.0  0.8807341166761068  0.08797945676567664  0.8126288955992103  1.0000
  C   C561      1.0  0.8734833053789797  0.07457044211939312  0.7813699928160329  1.0000
  C   C562      1.0  0.9017130541235046  0.06534339685602397  0.8312417462391636  1.0000
  C   C563      1.0  0.8478003890156517  0.09481000357352487  0.828953278186505  1.0000
  C   C564      1.0  0.8999434544470629  0.11723648148169619  0.8090613475455066  1.0000
  H   H785      1.0  0.8977615517875679  0.06759662657326793  0.7690261939287897  1.0000
  H   H786      1.0  0.8589555456668518  0.09158624425213335  0.7662701279972208  1.0000
  H   H787      1.0  0.8576636600313383  0.053241852335194295  0.7831771661688434  1.0000
  H   H788      1.0  0.9269548259747453  0.05984109037705232  0.8198669586939691  1.0000
  H   H789      1.0  0.9073839803839764  0.07466307139086803  0.8550610923352785  1.0000
  H   H790      1.0  0.8881479529027705  0.04287649044893427  0.8342979371005561  1.0000
  H   H791      1.0  0.8328966742529106  0.07307158354240939  0.8323774175179773  1.0000
  H   H792      1.0  0.8311592926828111  0.11167938407910749  0.8155187205796799  1.0000
  H   H793      1.0  0.8523579258493625  0.10534731540223286  0.8524832187671766  1.0000
  H   H794      1.0  0.8847473476637479  0.13513815236091808  0.7955803395707403  1.0000
  H   H795      1.0  0.925049471985315  0.11300007453756433  0.7969572614510816  1.0000
  H   H796      1.0  0.9060921027429493  0.1276512296226986  0.8322418568345779  1.0000
  N   N46       1.0  0.2210456697951153  0.5266150043630746  0.04543584471670736  1.0000
  C   C565      1.0  0.21695171727251883  0.5517553667762906  0.06915873421355179  1.0000
  C   C566      1.0  0.18719325070806558  0.5124519074594938  0.03904118091386688  1.0000
  C   C567      1.0  0.24552951902615394  0.5023363345772744  0.057371076092106676  1.0000
  C   C568      1.0  0.23465732237156156  0.5398995962617751  0.016203809490066057  1.0000
  H   H797      1.0  0.24212222315059884  0.5625935875440675  0.07496163152048758  1.0000
  H   H798      1.0  0.20632934088647814  0.5426076506860851  0.09143525116121973  1.0000
  H   H799      1.0  0.19882447116222313  0.5706618822849883  0.060950534679737205  1.0000
  H   H800      1.0  0.18939656884873934  0.49305257807049213  0.021606999311384763  1.0000
  H   H801      1.0  0.17579499790706055  0.5027916927793591  0.06076065364769523  1.0000
  H   H802      1.0  0.16816043852360196  0.5300901122471108  0.02971774334271493  1.0000
  H   H803      1.0  0.2501032938125385  0.4833281955059656  0.03982084433926247  1.0000
  H   H804      1.0  0.23594521189821083  0.49159184529728284  0.07929053627394554  1.0000
  H   H805      1.0  0.27100412770163884  0.5125147119216077  0.06297156789902036  1.0000
  H   H806      1.0  0.21692673027074827  0.5583961534791302  0.006545606412786231  1.0000
  H   H807      1.0  0.2382643220897538  0.5214996920019742  0.997851851236827  1.0000
  H   H808      1.0  0.26027344069127767  0.5506217091255555  0.020155460834734074  1.0000
  N   N47       1.0  0.5411560254434667  0.8332872001490825  0.10034854684830521  1.0000
  C   C569      1.0  0.5667501703999173  0.8415157265841643  0.12467941547648129  1.0000
  C   C570      1.0  0.5088760563248942  0.8233850647083073  0.11533069130606216  1.0000
  C   C571      1.0  0.5551883205430543  0.8073110738117664  0.0808182046347625  1.0000
  C   C572      1.0  0.5337253350464497  0.8609294293283464  0.0804563011828655  1.0000
  H   H809      1.0  0.590972272560543  0.8500020765141575  0.11398451473158944  1.0000
  H   H810      1.0  0.573866328736759  0.8209410262266348  0.13948651690834593  1.0000
  H   H811      1.0  0.5566526598324857  0.8605368983042662  0.14025151874307282  1.0000
  H   H812      1.0  0.48974845542435197  0.8158257326038387  0.09742715065467165  1.0000
  H   H813      1.0  0.5135160896150437  0.8032324495524081  0.1313783485353623  1.0000
  H   H814      1.0  0.4965348356032979  0.8427633689536989  0.12912993741929024  1.0000
  H   H815      1.0  0.5370007735533365  0.8012258639441611  0.06157994160985458  1.0000
  H   H816      1.0  0.56017160049411  0.7857517632404051  0.09481807614108566  1.0000
  H   H817      1.0  0.5799092630837981  0.813601646787929  0.06956894846836303  1.0000
  H   H818      1.0  0.5567760453748654  0.8673589746512151  0.06664760343218212  1.0000
  H   H819      1.0  0.5255465242320794  0.8817567502163641  0.09454564716262642  1.0000
  H   H820      1.0  0.5126459458307648  0.8563524541202416  0.06344435134227333  1.0000
  N   N48       1.0  0.964261514470333  0.25836974329180584  0.740812023978519  1.0000
  C   C573      1.0  0.9717960891588576  0.2921743652108116  0.7415090546338815  1.0000
  C   C574      1.0  0.9264051630900281  0.25437446030607186  0.7398173477229684  1.0000
  C   C575      1.0  0.978779700994517  0.2431819053514151  0.7692131652038523  1.0000
  C   C576      1.0  0.9800193290472937  0.243794631813044  0.7126844280405217  1.0000
  H   H821      1.0  0.00010797109880456013  0.29612558844551734  0.742676661362811  1.0000
  H   H822      1.0  0.9599043322042222  0.30391885577546185  0.7622773419752212  1.0000
  H   H823      1.0  0.9614157207739508  0.3042651193466232  0.7202558686191948  1.0000
  H   H824      1.0  0.9197483383234725  0.22915078592943852  0.7395662096495484  1.0000
  H   H825      1.0  0.9136823221457427  0.26539312793509956  0.7606025586397147  1.0000
  H   H826      1.0  0.9146894812760621  0.26543784365645673  0.7185467238924622  1.0000
  H   H827      1.0  0.9739320891873998  0.2175618719191845  0.7694278134262241  1.0000
  H   H828      1.0  0.9670213156641457  0.2533302688556332  0.7908016878298775  1.0000
  H   H829      1.0  0.007207064333262014  0.24625656037762772  0.7711377345602825  1.0000
  H   H830      1.0  0.9696606810345615  0.25477913074654424  0.6908174061043444  1.0000
  H   H831      1.0  0.9746661889543586  0.21830720713381582  0.71132927853434  1.0000
  H   H832      1.0  0.008577756592694108  0.24640587641952583  0.7126418496179756  1.0000
  N   N49       1.0  0.7657718327645201  0.2795216038009416  0.008069113520851268  1.0000
  C   C577      1.0  0.7451164492746732  0.3002562584987028  0.9871238411484161  1.0000
  C   C578      1.0  0.7429049381098602  0.2660155836292398  0.0318511116722624  1.0000
  C   C579      1.0  0.7927893493154728  0.2978826117348864  0.023840958978089022  1.0000
  C   C580      1.0  0.7822373886883872  0.25401494068286334  0.9894876345016264  1.0000
  H   H833      1.0  0.7615723896148322  0.3108063089780673  0.968841323886098  1.0000
  H   H834      1.0  0.7324135267164903  0.31982213869531373  0.00043836548708586776  1.0000
  H   H835      1.0  0.7243145580783052  0.2871989261145234  0.9749690602473166  1.0000
  H   H836      1.0  0.7578171726029553  0.25108498146203806  0.04875855759198111  1.0000
  H   H837      1.0  0.7295131057996146  0.2847323212273974  0.04578030635874408  1.0000
  H   H838      1.0  0.7226208575049448  0.2514159228440778  0.0209166273579402  1.0000
  H   H839      1.0  0.8084728522155876  0.28310056361476044  0.0403214822305209  1.0000
  H   H840      1.0  0.7812292114744553  0.31749501840726585  0.03785354091793103  1.0000
  H   H841      1.0  0.8109529730386296  0.30805878658496105  0.006709665412471866  1.0000
  H   H842      1.0  0.7983225617747141  0.23803542170842001  0.004464936119428664  1.0000
  H   H843      1.0  0.799605581226984  0.2633989649196587  0.9712342508691598  1.0000
  H   H844      1.0  0.7627362274298322  0.2395202168029223  0.9772963513589935  1.0000
  N   N50       1.0  0.2536930626815897  0.7215948181827522  0.6714249902850044  1.0000
  C   C581      1.0  0.24715687478323622  0.6923036268928724  0.6539929553099979  1.0000
  C   C582      1.0  0.22041428559502743  0.7374001438260221  0.6793139621834958  1.0000
  C   C583      1.0  0.2742932264601849  0.7425913039377634  0.6518338043161662  1.0000
  C   C584      1.0  0.2729594944969867  0.7141266789547073  0.7005751423365459  1.0000
  H   H845      1.0  0.2717996801582732  0.679970640838221  0.6474219847856404  1.0000
  H   H846      1.0  0.23245398499663916  0.6969873922572025  0.6319549965178728  1.0000
  H   H847      1.0  0.23202927477031218  0.675749641660576  0.6682284142554098  1.0000
  H   H848      1.0  0.22455833193922195  0.7596868227354177  0.6923557375780559  1.0000
  H   H849      1.0  0.20495090427770346  0.743212717995292  0.6579605026421229  1.0000
  H   H850      1.0  0.20440162526522446  0.7225008818064548  0.69459245491413  1.0000
  H   H851      1.0  0.2605326771630285  0.7489199101132276  0.6296904268185697  1.0000
  H   H852      1.0  0.2996034593156831  0.7314167806542713  0.6454601016048481  1.0000
  H   H853      1.0  0.2800057307971404  0.7647942848297218  0.6644513385991577  1.0000
  H   H854      1.0  0.25796851738638193  0.6987575016829172  0.7162057226903397  1.0000
  H   H855      1.0  0.27865974335801974  0.7357735083687985  0.714166952833084  1.0000
  H   H856      1.0  0.29815380871948294  0.7019997961922171  0.6955886675699727  1.0000
  N   N51       1.0  0.30086842273936965  0.5197470246750816  0.6729935562277444  1.0000
  C   C585      1.0  0.32895416075876727  0.5421034330231049  0.6780106910189565  1.0000
  C   C586      1.0  0.30808221054775714  0.5009761625478553  0.6444743245232653  1.0000
  C   C587      1.0  0.26768849981368803  0.537294516467028  0.6691580507769121  1.0000
  C   C588      1.0  0.2987900571062459  0.4988037010085051  0.7003570930775699  1.0000
  H   H857      1.0  0.3237744454991483  0.5576193806289352  0.6985446815939318  1.0000
  H   H858      1.0  0.3316202633716092  0.557625819277326  0.6574413072713045  1.0000
  H   H859      1.0  0.3543412437175815  0.5298794654277691  0.6818763973947981  1.0000
  H   H860      1.0  0.3096455026778155  0.516139910283968  0.6233728822671594  1.0000
  H   H861      1.0  0.33323851884488404  0.4878113182223098  0.6463036978005922  1.0000
  H   H862      1.0  0.2875440993140727  0.48368718715964903  0.6399773895532479  1.0000
  H   H863      1.0  0.2456191669014275  0.5212533352167551  0.6663653663496767  1.0000
  H   H864      1.0  0.26803224398774783  0.5528493132681676  0.648300636194537  1.0000
  H   H865      1.0  0.26207757401175946  0.552528573762024  0.6898612222086696  1.0000
  H   H866      1.0  0.27751691348018803  0.4818678714733926  0.697638485290297  1.0000
  H   H867      1.0  0.2934807364669895  0.5124480225128861  0.7221102685428946  1.0000
  H   H868      1.0  0.3233712661263943  0.4852008365615715  0.7040663395730369  1.0000
  N   N52       1.0  0.3482886746703512  0.9005287875839506  0.7201382403714156  1.0000
  C   C589      1.0  0.3297363582002563  0.8710911682557169  0.7249462594591499  1.0000
  C   C590      1.0  0.38593745486799275  0.894081316581026  0.7224052874848359  1.0000
  C   C591      1.0  0.3378317894971302  0.9236491843409786  0.7443823365111993  1.0000
  C   C592      1.0  0.33954914230147637  0.9132246232245428  0.6888499864454728  1.0000
  H   H869      1.0  0.3012513041425651  0.8747876652982126  0.7225917205914965  1.0000
  H   H870      1.0  0.33498477672360577  0.8613600617769083  0.7486464013605887  1.0000
  H   H871      1.0  0.3375912266689457  0.852771649908741  0.7076909489518007  1.0000
  H   H872      1.0  0.4008996008311671  0.9155450226638614  0.717937047211408  1.0000
  H   H873      1.0  0.3934011615649233  0.885079375732684  0.7459968211260911  1.0000
  H   H874      1.0  0.3944954496282875  0.8761923518581716  0.7048422067585184  1.0000
  H   H875      1.0  0.35154556897969835  0.9460955386902574  0.7416469277550657  1.0000
  H   H876      1.0  0.3435009798802448  0.9147196296228078  0.7683488441991199  1.0000
  H   H877      1.0  0.3094937664381914  0.9289293824919902  0.743357624666052  1.0000
  H   H878      1.0  0.354001125829635  0.9348717532241745  0.6838780161634422  1.0000
  H   H879      1.0  0.3114082520332997  0.9189333127898455  0.6866428537735066  1.0000
  H   H880      1.0  0.3461829822132349  0.8960917385464003  0.6700202597213633  1.0000
  N   N53       1.0  0.49351912024222  0.9928884928830914  0.665697495983794  1.0000
  C   C593      1.0  0.47729498342370796  0.013870680589181283  0.6421542364978948  1.0000
  C   C594      1.0  0.5153283776022511  0.011498349948397157  0.6869709207894674  1.0000
  C   C595      1.0  0.5151648324615634  0.9687565328334584  0.6497080541653064  1.0000
  C   C596      1.0  0.466359631461583  0.9775644038254641  0.6839571158327378  1.0000
  H   H881      1.0  0.4971388043527856  0.02483965059035187  0.6273413447119208  1.0000
  H   H882      1.0  0.4618861798946613  0.03321107994190431  0.6533222045848237  1.0000
  H   H883      1.0  0.45976059774385974  0.0010830056437673985  0.6262093365167803  1.0000
  H   H884      1.0  0.49970853957147887  0.029705874126984888  0.6997129151842936  1.0000
  H   H885      1.0  0.5280713234637306  0.9963704996019621  0.7050062508572057  1.0000
  H   H886      1.0  0.5358679275290221  0.023802281738453335  0.6739939583063935  1.0000
  H   H887      1.0  0.4995545573502181  0.9544165028976942  0.6332694920974096  1.0000
  H   H888      1.0  0.5277247198252779  0.9524159930526418  0.6667975478491358  1.0000
  H   H889      1.0  0.5360075376068922  0.9795405446005268  0.6357734085501239  1.0000
  H   H890      1.0  0.47778754844574456  0.9624329447915315  0.7027141087210451  1.0000
  H   H891      1.0  0.4499890441770631  0.9625518300482959  0.6688257745066438  1.0000
  H   H892      1.0  0.449138351384718  0.995209614112075  0.6957544580633489  1.0000
  N   N54       1.0  0.9420136495642923  0.9639440719397314  0.9936765213230709  1.0000
  C   C597      1.0  0.9439959489922067  0.9923430126166293  0.013462090629309253  1.0000
  C   C598      1.0  0.915047880227014  0.9689031706509338  0.9694752329704092  1.0000
  C   C599      1.0  0.9331399387267951  0.9367765062670823  0.013195337208621538  1.0000
  C   C600      1.0  0.9757157093441883  0.9578020907306868  0.9783933145719064  1.0000
  H   H893      1.0  0.9188273339610654  0.9976702677476844  0.02511890077438972  1.0000
  H   H894      1.0  0.9505831529222931  0.013220855786220786  0.9992199951137836  1.0000
  H   H895      1.0  0.9640834662711706  0.9895546353494165  0.032056725914221484  1.0000
  H   H896      1.0  0.9140887252357129  0.9486196595754927  0.9531369543776387  1.0000
  H   H897      1.0  0.8889647233076828  0.9722395363756802  0.980041229587024  1.0000
  H   H898      1.0  0.9199539524400264  0.9900371384178677  0.9551644727410892  1.0000
  H   H899      1.0  0.9525402915699372  0.9325637488716297  0.03214473056906808  1.0000
  H   H900      1.0  0.9319321296092565  0.9149352172299503  0.9989268484697121  1.0000
  H   H901      1.0  0.9073825856738359  0.9403017007796937  0.024449551590547403  1.0000
  H   H902      1.0  0.9748864915990446  0.9367521093288634  0.9629308883829611  1.0000
  H   H903      1.0  0.9967331182098138  0.9538066090992948  0.9959244118747116  1.0000
  H   H904      1.0  0.9831412157042931  0.9779070671983091  0.9634830979347986  1.0000
  N   N55       1.0  0.9957448578238899  0.3482702213574689  0.234877455967264  1.0000
  C   C601      1.0  0.027144924174457907  0.3555382801522214  0.25299040195685835  1.0000
  C   C602      1.0  0.9702408837468354  0.33428913391964815  0.2559326996340171  1.0000
  C   C603      1.0  0.004777985504228033  0.3258012220153901  0.20963608565316064  1.0000
  C   C604      1.0  0.9808997328576721  0.37742546197529087  0.2211686907171875  1.0000
  H   H905      1.0  0.02112797256918908  0.373002704175382  0.27166708250760974  1.0000
  H   H906      1.0  0.04736238459047093  0.3655285702572316  0.23781605606271428  1.0000
  H   H907      1.0  0.03845034673009251  0.3342280107464235  0.2645191654436675  1.0000
  H   H908      1.0  0.9625279740154893  0.3507788072495127  0.27501853515312785  1.0000
  H   H909      1.0  0.9464249761719312  0.3282136365362781  0.24299427655781847  1.0000
  H   H910      1.0  0.9806488138666443  0.3123837491625707  0.26691754881359564  1.0000
  H   H911      1.0  0.9815977427326695  0.31968176911573726  0.19553948075103744  1.0000
  H   H912      1.0  0.015952697595981613  0.3035729297099703  0.21934453057035505  1.0000
  H   H913      1.0  0.023975102541503812  0.3356874507935449  0.19332153074675054  1.0000
  H   H914      1.0  0.957077428382067  0.37272876281256134  0.20728674007893552  1.0000
  H   H915      1.0  0.9996282095636175  0.3888418237541638  0.2054187921279591  1.0000
  H   H916      1.0  0.9737504658201088  0.3948459609497524  0.23970681115245387  1.0000
  N   N56       1.0  0.46121330998964705  0.26617679785881365  0.9343105762477398  1.0000
  C   C605      1.0  0.49691144928257414  0.26366202263134  0.9222246308667369  1.0000
  C   C606      1.0  0.4366237718192664  0.25740453537340424  0.9092872574403913  1.0000
  C   C607      1.0  0.45364651227645947  0.2987680652875216  0.9445079897461648  1.0000
  C   C608      1.0  0.4577343742427672  0.24489053835917568  0.961267908971528  1.0000
  H   H917      1.0  0.5162143453621598  0.269964975363559  0.9405252959836458  1.0000
  H   H918      1.0  0.5005883947686551  0.2796386418801737  0.9020395927927191  1.0000
  H   H919      1.0  0.5034980928030284  0.2394191410284898  0.9141781822775616  1.0000
  H   H920      1.0  0.4392899901545618  0.2725042468651005  0.8882365612768567  1.0000
  H   H921      1.0  0.4409553130739475  0.23267979918438686  0.9015215775971771  1.0000
  H   H922      1.0  0.40936280802353137  0.25977059629380933  0.9172664619470839  1.0000
  H   H923      1.0  0.4272224971093639  0.3014570222164719  0.9544477613694052  1.0000
  H   H924      1.0  0.45541534946396767  0.3154614227507451  0.9246196039700818  1.0000
  H   H925      1.0  0.4721054827002085  0.30640679668896764  0.9630366688067662  1.0000
  H   H926      1.0  0.4310724604521598  0.24604347137680335  0.9709314978703345  1.0000
  H   H927      1.0  0.47576987706005336  0.25119393884685176  0.9806214210659219  1.0000
  H   H928      1.0  0.46364851599707646  0.2201074785199402  0.95453791902941  1.0000
  N   N57       1.0  0.236263990462654  0.4947235260040814  0.4117380604086801  1.0000
  C   C609      1.0  0.19912453971059804  0.4876308987059504  0.40911328146603176  1.0000
  C   C610      1.0  0.24317625734866585  0.5239552758069201  0.3946375110328976  1.0000
  C   C611      1.0  0.2568790013864837  0.4686381689383805  0.39797952123480196  1.0000
  C   C612      1.0  0.24608149621225706  0.49858010571850814  0.44502143221374  1.0000
  H   H929      1.0  0.19313644620730752  0.46528660267527555  0.4210991583941205  1.0000
  H   H930      1.0  0.19111547174888632  0.48486192715748005  0.3841365580462114  1.0000
  H   H931      1.0  0.18262801772190418  0.5066316199297622  0.41949746379816966  1.0000
  H   H932      1.0  0.2282780084073296  0.5442672619506106  0.4045266485239867  1.0000
  H   H933      1.0  0.2710987614855093  0.5297538410583528  0.3958547727159555  1.0000
  H   H934      1.0  0.2360697172894578  0.5218539663925215  0.3693900812893971  1.0000
  H   H935      1.0  0.28497872784407097  0.4728514644223316  0.4000355528789162  1.0000
  H   H936      1.0  0.2509405721285156  0.4657537906286765  0.37266222933014775  1.0000
  H   H937      1.0  0.2519066103852233  0.4459438566894355  0.4096859578429411  1.0000
  H   H938      1.0  0.24165882908096376  0.4768273499268292  0.45856468937984457  1.0000
  H   H939      1.0  0.23108973944297884  0.5181052958667248  0.456276298839716  1.0000
  H   H940      1.0  0.2740308070227325  0.5040476173274288  0.4475228449575559  1.0000
  N   N58       1.0  0.2607119071532258  0.8263942981247171  0.2653540129870844  1.0000
  C   C613      1.0  0.2946995112912798  0.8312448326780204  0.250710783398452  1.0000
  C   C614      1.0  0.26330362703470755  0.7993320414965258  0.2867923040221746  1.0000
  C   C615      1.0  0.23459525333059372  0.8202037064711062  0.24080674935575  1.0000
  C   C616      1.0  0.2502030940202742  0.8547485340844501  0.28323225311218747  1.0000
  H   H941      1.0  0.29390066481556  0.8515865581699561  0.23449121556399893  1.0000
  H   H942      1.0  0.3034709374507949  0.810227048740933  0.23712408594119003  1.0000
  H   H943      1.0  0.31501549939767104  0.8356254505527567  0.2686877193622344  1.0000
  H   H944      1.0  0.282025937069442  0.8036523818370569  0.3061221764404501  1.0000
  H   H945      1.0  0.2379252063275168  0.7944198891233241  0.29763197641136613  1.0000
  H   H946      1.0  0.27242803510906  0.7776866852662675  0.27442098380242624  1.0000
  H   H947      1.0  0.20862100750045065  0.8164685645975229  0.2511665191857759  1.0000
  H   H948      1.0  0.2416256098083136  0.7988654625717884  0.22693673547531518  1.0000
  H   H949      1.0  0.23189188179471776  0.8401653632655769  0.22419234708629912  1.0000
  H   H950      1.0  0.24859439292634722  0.8758487981698893  0.26804155509970046  1.0000
  H   H951      1.0  0.26882926916524985  0.8597005930635376  0.3025605969152092  1.0000
  H   H952      1.0  0.22437004918751358  0.8520056791790265  0.2940766256913021  1.0000
  N   N59       1.0  0.09391549866665971  0.6459798385167916  0.9728221387973608  1.0000
  C   C617      1.0  0.1205555949835122  0.6605286864635121  0.9926666273639353  1.0000
  C   C618      1.0  0.06980335818518402  0.6287534732530081  0.9928288326857037  1.0000
  C   C619      1.0  0.11074920175596126  0.6240602940480937  0.9504133331745042  1.0000
  C   C620      1.0  0.07460219356935127  0.6707278064544295  0.9554543867809532  1.0000
  H   H953      1.0  0.13897522354583858  0.6740003843656265  0.9784704082817501  1.0000
  H   H954      1.0  0.1358643417325338  0.6426451326180004  0.006054506485660526  1.0000
  H   H955      1.0  0.10867589122513244  0.6770805617267533  0.009918964474113556  1.0000
  H   H956      1.0  0.05005309021964721  0.6164314541532078  0.9786611448479361  1.0000
  H   H957      1.0  0.08369112908343634  0.6109141816877602  0.0075324732789185935  1.0000
  H   H958      1.0  0.055667142908789824  0.6449185998610916  0.0091255780373658  1.0000
  H   H959      1.0  0.09141236705334999  0.6127419198633525  0.9349274013255601  1.0000
  H   H960      1.0  0.12556940253248494  0.6051280862450094  0.9628080646224972  1.0000
  H   H961      1.0  0.1291233680641073  0.6364073314293288  0.9350052728981559  1.0000
  H   H962      1.0  0.06174197937931658  0.6877405679574884  0.9717667588929694  1.0000
  H   H963      1.0  0.054225022035913506  0.6606643776000244  0.9401980123830087  1.0000
  H   H964      1.0  0.0920751271804221  0.6842390057559423  0.9401969214109293  1.0000
  N   N60       1.0  0.8619103136973558  0.11811501093414045  0.31568065256614763  1.0000
  C   C621      1.0  0.8994420398611607  0.11489917628053603  0.32207846467585877  1.0000
  C   C622      1.0  0.8552052333779822  0.14422392153177865  0.2936465089027596  1.0000
  C   C623      1.0  0.8433838199077665  0.12448580910697982  0.34529741113417595  1.0000
  C   C624      1.0  0.8495723622531137  0.0886881325131601  0.30171109553434167  1.0000
  H   H965      1.0  0.9053052596723071  0.09507028804818396  0.3383179711241448  1.0000
  H   H966      1.0  0.9097532881098346  0.13660959102402837  0.33284928611563414  1.0000
  H   H967      1.0  0.9142406562217209  0.11006843732875948  0.30023638185458207  1.0000
  H   H968      1.0  0.8269977852137255  0.14768085265318076  0.2889048200730412  1.0000
  H   H969      1.0  0.8648070825392189  0.1667072294794414  0.30319972647964155  1.0000
  H   H970      1.0  0.8683363614380778  0.139944008016732  0.2708700903973564  1.0000
  H   H971      1.0  0.8150405378866448  0.1274231814336817  0.34127831791086066  1.0000
  H   H972      1.0  0.8525267252562768  0.1463222746024444  0.3566960474004654  1.0000
  H   H973      1.0  0.8473312456782023  0.10498535823594901  0.3622839721157225  1.0000
  H   H974      1.0  0.8217730423733498  0.09055438971523744  0.29528041600914956  1.0000
  H   H975      1.0  0.8528759533648002  0.0688457874198094  0.31832895332846756  1.0000
  H   H976      1.0  0.8642491078352185  0.08219464834433787  0.2801899210553318  1.0000
  N   N61       1.0  0.5600458011196954  0.12192612298566607  0.1052070880589813  1.0000
  C   C625      1.0  0.566104527121413  0.1312743892652204  0.07243641753327701  1.0000
  C   C626      1.0  0.5559687492701199  0.08759864758783364  0.10662861827796033  1.0000
  C   C627      1.0  0.52834185156028  0.13791879938235274  0.11695247194065167  1.0000
  C   C628      1.0  0.5898370483026483  0.13094840123389417  0.12482260870340979  1.0000
  H   H977      1.0  0.56953993345005  0.15704217071031512  0.07053593893819854  1.0000
  H   H978      1.0  0.5440113776982467  0.12506352368099694  0.057005822235249186  1.0000
  H   H979      1.0  0.5897767702209001  0.11948162720520372  0.06284764961943057  1.0000
  H   H980      1.0  0.5514543047779524  0.07967302730046555  0.13105148717372297  1.0000
  H   H981      1.0  0.5337109303379332  0.07988495711701082  0.09216648657946899  1.0000
  H   H982      1.0  0.5794190544679011  0.07476192464437781  0.09785951196403538  1.0000
  H   H983      1.0  0.5052563076844876  0.13158988489111012  0.10286738985622405  1.0000
  H   H984      1.0  0.5305380774591709  0.16388017495528606  0.11605124886495516  1.0000
  H   H985      1.0  0.5231913877783859  0.13149909245399116  0.141723879223302  1.0000
  H   H986      1.0  0.5859611381246087  0.12444346527185024  0.14975750349711459  1.0000
  H   H987      1.0  0.5937010775688044  0.1567266647016532  0.12408076446789144  1.0000
  H   H988      1.0  0.6141708551846888  0.11908291970824814  0.11684313149692786  1.0000
  N   N62       1.0  0.4017701787915121  0.5094665873566377  0.9240851465018327  1.0000
  C   C629      1.0  0.369360828974549  0.49617574704918127  0.9119603630983535  1.0000
  C   C630      1.0  0.3936145925463535  0.5373157886762067  0.9436212627810519  1.0000
  C   C631      1.0  0.4236308501675266  0.5186830578208955  0.897547783037827  1.0000
  C   C632      1.0  0.4204048235431094  0.48564067762613505  0.9432130118665405  1.0000
  H   H989      1.0  0.35253574649236163  0.48833562123421687  0.9312964037241999  1.0000
  H   H990      1.0  0.3746256406033954  0.47553930380817405  0.8965240389918515  1.0000
  H   H991      1.0  0.35423233996468684  0.5136502912023039  0.8978165540135774  1.0000
  H   H992      1.0  0.37802552439128323  0.5551626971022571  0.9303493009363737  1.0000
  H   H993      1.0  0.3784824591936049  0.5309067488027587  0.9646081464822345  1.0000
  H   H994      1.0  0.4174497021633233  0.5487481404751983  0.9521906277585155  1.0000
  H   H995      1.0  0.448177943054532  0.5291269164137705  0.9056895650303614  1.0000
  H   H996      1.0  0.4099436451133944  0.53621641330297  0.8823390182347812  1.0000
  H   H997      1.0  0.43042406452074994  0.4981746140527843  0.8823557283259427  1.0000
  H   H998      1.0  0.44490261472190074  0.4948848583124164  0.9529260988356552  1.0000
  H   H999      1.0  0.42699580397217446  0.4643205485863305  0.9291067576473401  1.0000
  H   H1000     1.0  0.4043725961835535  0.47811903206035183  0.9633354519952386  1.0000
  N   N63       1.0  0.7992943276653189  0.372957042043987  0.561725736075469  1.0000
  C   C633      1.0  0.8369741603791263  0.377802533866085  0.5636620731121802  1.0000
  C   C634      1.0  0.7821582051837163  0.40081996676214293  0.5475035733618706  1.0000
  C   C635      1.0  0.785475544528943  0.3682984825320323  0.5935355366779661  1.0000
  C   C636      1.0  0.7924677710908454  0.34503507965836777  0.5422298472517297  1.0000
  H   H1001     1.0  0.8507460162414133  0.35764428389831265  0.5750674202228669  1.0000
  H   H1002     1.0  0.8429078409740417  0.3991089806302555  0.5776486962111718  1.0000
  H   H1003     1.0  0.848475950738781  0.3809022848955273  0.5400886961459386  1.0000
  H   H1004     1.0  0.7918395320421392  0.40500957783074154  0.5234162485190771  1.0000
  H   H1005     1.0  0.7536225534697595  0.39804666895114355  0.5459136773403227  1.0000
  H   H1006     1.0  0.7869471417665833  0.42234549551651746  0.5615945205414496  1.0000
  H   H1007     1.0  0.7979423519817621  0.3476062657068283  0.6051776829964632  1.0000
  H   H1008     1.0  0.7571263982169252  0.3642866728696706  0.5929763400402364  1.0000
  H   H1009     1.0  0.7899153197550327  0.3890229204640926  0.6088216791601456  1.0000
  H   H1010     1.0  0.8041871301922164  0.3234162643757164  0.5527115538073526  1.0000
  H   H1011     1.0  0.8032003157331951  0.34736748367343034  0.5182505139203091  1.0000
  H   H1012     1.0  0.7642140957230265  0.3412207139564405  0.5397059807610418  1.0000
  N   N64       1.0  0.06511239125638513  0.4202197425077825  0.4781046612222015  1.0000
  C   C637      1.0  0.1011385856285767  0.4136147374558355  0.4882520233765076  1.0000
  C   C638      1.0  0.06470712374810916  0.44470677756763516  0.4537094963264149  1.0000
  C   C639      1.0  0.044367069177494445  0.4311988980129246  0.5051657631526257  1.0000
  C   C640      1.0  0.05025479176191561  0.39130135934255583  0.46514080941969715  1.0000
  H   H1013     1.0  0.10240450088855413  0.3950622569229072  0.5065001499237826  1.0000
  H   H1014     1.0  0.11318639967683608  0.4349036944118494  0.4982032931687702  1.0000
  H   H1015     1.0  0.11739354660976797  0.4052792616563172  0.46824001735255527  1.0000
  H   H1016     1.0  0.03792235573130531  0.44997435069684716  0.44526768760617774  1.0000
  H   H1017     1.0  0.0753386417817381  0.46701850354769  0.46269289396795316  1.0000
  H   H1018     1.0  0.08028971066681057  0.437207905171554  0.43298986410852747  1.0000
  H   H1019     1.0  0.017006715457586585  0.4359849741042253  0.4982622689143939  1.0000
  H   H1020     1.0  0.05438698147729637  0.4533275936048258  0.5152668161286663  1.0000
  H   H1021     1.0  0.04426565126206938  0.4134687572613232  0.5242103771308814  1.0000
  H   H1022     1.0  0.023359209891312904  0.39555537447473854  0.45657085402584324  1.0000
  H   H1023     1.0  0.04948405808950662  0.3724108353888933  0.4829681290079816  1.0000
  H   H1024     1.0  0.06566402791930948  0.3821501047145196  0.4449946651232977  1.0000
