data_image0
_chemical_formula_structural       FeS2FeS2FeSFeS3FeS2FeS2FeSFeS3FeS2FeS2FeSFeS3FeS2FeS2FeSFeS3FeS2FeS2FeSFeS3FeS2FeS2FeSFeS3FeS2FeS2FeSFeS3FeS2FeS2FeSFeS3FeS2FeS2FeSFeS3FeS2FeS2FeSFeS3FeS2FeS2FeSFeS3FeS2FeS2FeSFeS3C6H4C6H4C6H4C6H4C6H4C6H4C6H4C6H4C6H4C6H4C6H4C6H4C6H4C6H4C6H4C6H4C6H4C6H4C6H4C6H4C6H4C6H4C6H4C6H4NC4H12NC4H12NC4H12NC4H12NC4H12NC4H12NC4H12NC4H12NC4H12NC4H12NC4H12NC4H12NC4H12NC4H12NC4H12NC4H12NC4H12NC4H12NC4H12NC4H12NC4H12NC4H12NC4H12NC4H12
_chemical_formula_sum              "Fe48 S96 C240 H384 N24"
_cell_length_a       40.23706780027689
_cell_length_b       32.816953880984826
_cell_length_c       17.780768072287024
_cell_angle_alpha    89.52732213127557
_cell_angle_beta     89.53126529797552
_cell_angle_gamma    90.4158436444234

_space_group_name_H-M_alt    "P 1"
_space_group_IT_number       1

loop_
  _space_group_symop_operation_xyz
  'x, y, z'

loop_
  _atom_site_type_symbol
  _atom_site_label
  _atom_site_symmetry_multiplicity
  _atom_site_fract_x
  _atom_site_fract_y
  _atom_site_fract_z
  _atom_site_occupancy
  Fe  Fe1       1.0  0.16941919772803274  0.8907262113770765  0.7495969033715638  1.0000
  S   S1        1.0  0.14338880557397135  0.878915341729197  0.640836404057137  1.0000
  S   S2        1.0  0.22348282055542903  0.9088639451628734  0.7530011745095853  1.0000
  Fe  Fe2       1.0  0.10662758327367944  0.8770783499095448  0.8430216564009387  1.0000
  S   S3        1.0  0.0755937231913492  0.8630517071086677  0.7428178455627729  1.0000
  S   S4        1.0  0.08239611033695711  0.8763639346340415  0.9572041088969703  1.0000
  Fe  Fe3       1.0  0.11916538908908673  0.8270282151362363  0.7037372592351412  1.0000
  S   S5        1.0  0.10978853823585484  0.7675083067443232  0.6463048639090277  1.0000
  Fe  Fe4       1.0  0.10234260252743817  0.9160834809506854  0.6902766738891516  1.0000
  S   S6        1.0  0.07266516622984986  0.9606159463465995  0.623862856017537  1.0000
  S   S7        1.0  0.1484903573066933  0.8358337831303295  0.8095670963352035  1.0000
  S   S8        1.0  0.13035282547456584  0.933157637721648  0.793533380553641  1.0000
  Fe  Fe5       1.0  0.3774998711722619  0.7786693707180682  0.6866441683406264  1.0000
  S   S9        1.0  0.40157596250438876  0.7914510200841584  0.5746353116551377  1.0000
  S   S10       1.0  0.32275808337601064  0.7631622041104125  0.6933712765405985  1.0000
  Fe  Fe6       1.0  0.44304558428329893  0.7868985348986721  0.7705370582388582  1.0000
  S   S11       1.0  0.47239851439273783  0.8013203945472361  0.6658370295649623  1.0000
  S   S12       1.0  0.4693773778269635  0.7814168578546138  0.8813822279081029  1.0000
  Fe  Fe7       1.0  0.42898659196081024  0.8404310958003915  0.6358452796237396  1.0000
  S   S13       1.0  0.4334672312078055  0.9022378899663248  0.5820453165228924  1.0000
  Fe  Fe8       1.0  0.4426132991160733  0.751142576500248  0.6145138584183337  1.0000
  S   S14       1.0  0.4682442190906689  0.7060001048974361  0.5396886796399407  1.0000
  S   S15       1.0  0.40208631586973803  0.830755863281263  0.7455938337599012  1.0000
  S   S16       1.0  0.41605207690238677  0.7333020154496931  0.7215879495426435  1.0000
  Fe  Fe9       1.0  0.1667071465212454  0.5715405099433215  0.7925861813478837  1.0000
  S   S17       1.0  0.19919319356765083  0.582168865457731  0.6911996403579531  1.0000
  S   S18       1.0  0.14687178598396747  0.6226321474489025  0.8618634490729189  1.0000
  Fe  Fe10      1.0  0.17260102955277165  0.48039772736075825  0.7854833830652328  1.0000
  S   S19       1.0  0.20622239263573605  0.48214732865873033  0.684018173219368  1.0000
  S   S20       1.0  0.15520746298858323  0.42276647958820235  0.842068681224687  1.0000
  Fe  Fe11      1.0  0.23173420154844399  0.5341766609782702  0.7417784034209505  1.0000
  S   S21       1.0  0.28651815724160473  0.547199001107636  0.7554527886909584  1.0000
  Fe  Fe12      1.0  0.17071839592672805  0.529781345625914  0.642397290988771  1.0000
  S   S22       1.0  0.1535536036226901  0.5288998043034482  0.5224486548897355  1.0000
  S   S23       1.0  0.2013471779453489  0.5278034541110589  0.8475275056824901  1.0000
  S   S24       1.0  0.13506674183777043  0.5235620639872341  0.7395004871226066  1.0000
  Fe  Fe13      1.0  0.5068755885269239  0.41062648148032055  0.7140771840702083  1.0000
  S   S25       1.0  0.48179997603203173  0.3945157419783719  0.6063001292706879  1.0000
  S   S26       1.0  0.5297946998959931  0.36462708241249897  0.7908076285496556  1.0000
  Fe  Fe14      1.0  0.49424284604777197  0.5001784274029508  0.6937610706439572  1.0000
  S   S27       1.0  0.4679153746246054  0.49223762205597626  0.5836285369572265  1.0000
  S   S28       1.0  0.502615833468544  0.5595467637775848  0.7523182194195306  1.0000
  Fe  Fe15      1.0  0.442918007501741  0.4390385952720218  0.6415143869038732  1.0000
  S   S29       1.0  0.38931924821163294  0.4207721596617493  0.6248669800882982  1.0000
  Fe  Fe16      1.0  0.5092547203675484  0.4484631888583125  0.5589342677435034  1.0000
  S   S30       1.0  0.5360777285606597  0.44162610379726475  0.44843658283415  1.0000
  S   S31       1.0  0.465682675428547  0.45064850645039095  0.7540231089142222  1.0000
  S   S32       1.0  0.5375937431289431  0.46089955636271035  0.6644287735130954  1.0000
  Fe  Fe17      1.0  0.22215186394307782  0.19784203692252636  0.6722522232131858  1.0000
  S   S33       1.0  0.19559155896899633  0.20905555491236097  0.5638389374587518  1.0000
  S   S34       1.0  0.2766300036092712  0.21384209347838648  0.6743327808089568  1.0000
  Fe  Fe18      1.0  0.15923303094508287  0.1695820938632086  0.7524569164619989  1.0000
  S   S35       1.0  0.12738839413475195  0.17816876633842169  0.6509236323279102  1.0000
  S   S36       1.0  0.1354059930063522  0.14447920543990675  0.8580355930182202  1.0000
  Fe  Fe19      1.0  0.16980738566170994  0.15001463113927443  0.5889346720385417  1.0000
  S   S37       1.0  0.15896313274611068  0.10644025328339869  0.4963517966767986  1.0000
  Fe  Fe20      1.0  0.1557516958325536  0.23644564309641058  0.635151885193059  1.0000
  S   S38       1.0  0.13114711760072534  0.2930361960581536  0.5918323769955887  1.0000
  S   S39       1.0  0.19957830177250635  0.1358326511105737  0.6915927642848798  1.0000
  S   S40       1.0  0.18458787149853495  0.23072314115864292  0.7424488934534127  1.0000
  Fe  Fe21      1.0  0.47147161264686666  0.1573271861578321  0.7418353873440201  1.0000
  S   S41       1.0  0.44128964892996386  0.16994072725748932  0.8457493793312062  1.0000
  S   S42       1.0  0.47898481539112525  0.20296260071967664  0.6493961034960141  1.0000
  Fe  Fe22      1.0  0.4907819346092228  0.07320655838625538  0.7920764676296749  1.0000
  S   S43       1.0  0.46209431405966456  0.07753809188345524  0.9000962460446355  1.0000
  S   S44       1.0  0.5229750723178003  0.019062030316527864  0.7716538093744487  1.0000
  Fe  Fe23      1.0  0.42239465952700334  0.10625952590847715  0.8300777988460306  1.0000
  S   S45       1.0  0.3685191618799093  0.08978796293900392  0.847556409311033  1.0000
  Fe  Fe24      1.0  0.48366693057893756  0.14052612385694752  0.9059488661550764  1.0000
  S   S46       1.0  0.5037319432308045  0.16125442767817835  0.016762918300248897  1.0000
  S   S47       1.0  0.4490004871186202  0.0959932304257138  0.7206083112988502  1.0000
  S   S48       1.0  0.51563336987658  0.13356371677307582  0.8034162290249489  1.0000
  Fe  Fe25      1.0  0.005830995358815816  0.25487533917651634  0.08239861340130328  1.0000
  S   S49       1.0  0.011871593090330146  0.2532133467683771  0.2077966341399491  1.0000
  S   S50       1.0  0.044412384070376065  0.2797733175429072  0.002190539962524607  1.0000
  Fe  Fe26      1.0  0.9344810145135504  0.22468809550512578  0.08855436188498178  1.0000
  S   S51       1.0  0.9337403937650369  0.22111527715209972  0.21406367184122588  1.0000
  S   S52       1.0  0.8897090884475314  0.2103914498226573  0.018542085822319754  1.0000
  Fe  Fe27      1.0  0.960911940095362  0.2804287657664969  0.20984651405769772  1.0000
  S   S53       1.0  0.9435350524880424  0.3303602608308765  0.28476604624376267  1.0000
  Fe  Fe28      1.0  0.9843445594759195  0.19374592886192363  0.20114660727946498  1.0000
  S   S54       1.0  0.00016178317046411372  0.13846708486056733  0.2666090531820928  1.0000
  S   S55       1.0  0.9569957377481491  0.28721949825912063  0.08508734723319633  1.0000
  S   S56       1.0  0.9830384608104208  0.19246927372025022  0.0749104085897998  1.0000
  Fe  Fe29      1.0  0.6729442312091231  0.2307073153467087  0.10260598504729135  1.0000
  S   S57       1.0  0.6509148156817918  0.2677881808308494  0.19518594784398924  1.0000
  S   S58       1.0  0.6495639570931558  0.23262071900050102  0.9888006052975441  1.0000
  Fe  Fe30      1.0  0.72479542309482  0.19327836044798402  0.20231742081312887  1.0000
  S   S59       1.0  0.7068195481558069  0.226404195189771  0.304500759395959  1.0000
  S   S60       1.0  0.7681625743764433  0.1512118288505917  0.21708922991195356  1.0000
  Fe  Fe31      1.0  0.6557555056543554  0.21083233986005567  0.26419085915222196  1.0000
  S   S61       1.0  0.6140960165549487  0.19812346136699155  0.34631219206459796  1.0000
  Fe  Fe32      1.0  0.7035373293855433  0.2801143908760535  0.22707286996219955  1.0000
  S   S62       1.0  0.7188679887540675  0.3412168872357162  0.2701084117979087  1.0000
  S   S63       1.0  0.6739361449180478  0.17228032814886632  0.16876640890675731  1.0000
  S   S64       1.0  0.7257141731083263  0.24874034078161747  0.12744549651091552  1.0000
  Fe  Fe33      1.0  0.5900696440926649  0.8943561656645378  0.21753412146142947  1.0000
  S   S65       1.0  0.6003995568955958  0.9065508070583553  0.09489712304829356  1.0000
  S   S66       1.0  0.5948930907574237  0.8354903215063382  0.2807286875904993  1.0000
  Fe  Fe34      1.0  0.5726924235774066  0.9811779590843136  0.2519538652497244  1.0000
  S   S67       1.0  0.5812520448602717  0.002023511523013166  0.13355425848132207  1.0000
  S   S68       1.0  0.5527722454322966  0.020239726698784377  0.34433768168568624  1.0000
  Fe  Fe35      1.0  0.5544811874703701  0.9448515392107798  0.10150120814645347  1.0000
  S   S69       1.0  0.5158070586848883  0.9511703932264655  0.012349764823073262  1.0000
  Fe  Fe36      1.0  0.626432924079187  0.9626168803214676  0.13675269083596797  1.0000
  S   S70       1.0  0.673564572754373  0.9882926770227196  0.0864575497348321  1.0000
  S   S71       1.0  0.5416141390423483  0.9273859385435654  0.21999494919979967  1.0000
  S   S72       1.0  0.6204007053505233  0.947043562627526  0.2591148859743797  1.0000
  Fe  Fe37      1.0  0.9083448922174088  0.9294315452555177  0.06748264004069537  1.0000
  S   S73       1.0  0.9323203732573484  0.9416572345170151  0.17798407201466082  1.0000
  S   S74       1.0  0.9363457114173469  0.9469957006388936  0.9619320242392483  1.0000
  Fe  Fe38      1.0  0.8445100684787953  0.8971989728537418  0.14018953214883023  1.0000
  S   S75       1.0  0.8635236826580142  0.9066650324152387  0.2567724472320534  1.0000
  S   S76       1.0  0.7941174737620414  0.8678943318207192  0.13087976410699587  1.0000
  Fe  Fe39      1.0  0.8827239518794247  0.9662180244722844  0.21182972534153888  1.0000
  S   S77       1.0  0.8733348327248361  0.025345709371740632  0.27052992961770306  1.0000
  Fe  Fe40      1.0  0.9111660361925821  0.8810756075484912  0.21198177310493138  1.0000
  S   S78       1.0  0.940919870706772  0.8382758549405357  0.28343290105979757  1.0000
  S   S79       1.0  0.8599974892462934  0.9589352644012038  0.09814214047686365  1.0000
  S   S80       1.0  0.8905950443066719  0.8664353995484123  0.09822801171231377  1.0000
  Fe  Fe41      1.0  0.6655710685980133  0.543800822361623  0.13503272747908746  1.0000
  S   S81       1.0  0.7008657079131341  0.5519084420609506  0.23112377919771787  1.0000
  S   S82       1.0  0.6608193098510099  0.484140900601679  0.0740034869690529  1.0000
  Fe  Fe42      1.0  0.6427063602178238  0.6322795193841124  0.13892094157811496  1.0000
  S   S83       1.0  0.6762582793603713  0.6469606106842687  0.2355093223796363  1.0000
  S   S84       1.0  0.6057760695546948  0.6760331209316185  0.08772609587575997  1.0000
  Fe  Fe43      1.0  0.7145118314749312  0.6107883759019858  0.17356389874457379  1.0000
  S   S85       1.0  0.7667576351878286  0.6332069687017248  0.15063466121077052  1.0000
  Fe  Fe44      1.0  0.6590181766117827  0.5870382238053976  0.2827398131178813  1.0000
  S   S86       1.0  0.6414317406403455  0.5834780521534024  0.40248041311212734  1.0000
  S   S87       1.0  0.6822595786692762  0.6001529582189647  0.07299989408303564  1.0000
  S   S88       1.0  0.6226321560019754  0.5746639097856081  0.1910326090849228  1.0000
  Fe  Fe45      1.0  0.9979467484234251  0.5411164041880985  0.23705805986359008  1.0000
  S   S89       1.0  0.9763855150914861  0.539963800634207  0.35368506219910345  1.0000
  S   S90       1.0  0.026778592679533197  0.4870332284062173  0.19725232322855346  1.0000
  Fe  Fe46      1.0  0.972271504519421  0.6253192582919233  0.20363856415783887  1.0000
  S   S91       1.0  0.9481480820117165  0.6313187071563925  0.31747123160566626  1.0000
  S   S92       1.0  0.9711132195506865  0.6751445539081752  0.11625541101596526  1.0000
  Fe  Fe47      1.0  0.9954081843000744  0.603884278787091  0.36008726116351886  1.0000
  S   S93       1.0  0.020374139041987815  0.6246531579004658  0.46584448689801383  1.0000
  Fe  Fe48      1.0  0.9313865722175119  0.5670462664164955  0.2997365897235742  1.0000
  S   S94       1.0  0.8800234961268114  0.5466833244766834  0.3343546524843317  1.0000
  S   S95       1.0  0.020924065075020204  0.6031611136745954  0.24764549551481974  1.0000
  S   S96       1.0  0.9513769496781602  0.5629509508111497  0.18191266502808023  1.0000
  C   C1        1.0  0.7981104529750489  0.6110017331088177  0.20480259350767405  1.0000
  C   C2        1.0  0.790505436081894  0.5895458221934596  0.27098167012259977  1.0000
  C   C3        1.0  0.8159111288826911  0.570440604981041  0.311533534781939  1.0000
  C   C4        1.0  0.8489696960008799  0.5733720240195858  0.286602239026682  1.0000
  C   C5        1.0  0.8566822516856001  0.5960411248014024  0.22176292520108065  1.0000
  C   C6        1.0  0.8312295224226418  0.6145091136307188  0.18057919767872188  1.0000
  H   H1        1.0  0.7650731335487734  0.5875731000292588  0.29089294527298004  1.0000
  H   H2        1.0  0.8099687577820474  0.5533249420686693  0.36223922742945813  1.0000
  H   H3        1.0  0.8821500871707568  0.5984319182061827  0.20224169595385777  1.0000
  H   H4        1.0  0.8371470249956182  0.630891285233403  0.12911187517296985  1.0000
  C   C7        1.0  0.9544038776556049  0.7953289314758126  0.23464818428084389  1.0000
  C   C8        1.0  0.9521580324984734  0.7933995810485489  0.15630712874701258  1.0000
  C   C9        1.0  0.9583929143578792  0.7566926882357725  0.11928035344474774  1.0000
  C   C10       1.0  0.9677424841258514  0.722272865367158  0.16061146193653153  1.0000
  C   C11       1.0  0.9728610014277722  0.7252952620379203  0.23797660314698765  1.0000
  C   C12       1.0  0.9656693897845012  0.7615981172194501  0.2752353805480623  1.0000
  H   H5        1.0  0.9453509722181153  0.8199878807253034  0.12430602845538208  1.0000
  H   H6        1.0  0.9550008261194639  0.7547164182261716  0.05914227144899553  1.0000
  H   H7        1.0  0.9819390690450155  0.6995046538834283  0.26928088889307267  1.0000
  H   H8        1.0  0.967842480966221  0.7631664693178722  0.33568989010747474  1.0000
  C   C13       1.0  0.5992933553903479  0.7942360739861929  0.22002305919152687  1.0000
  C   C14       1.0  0.6271658538007646  0.7694273898292274  0.22641344079063286  1.0000
  C   C15       1.0  0.629997578644201  0.7345287655418357  0.18232078890461056  1.0000
  C   C16       1.0  0.6043351168567981  0.7230469098960102  0.13443946297023945  1.0000
  C   C17       1.0  0.5766488195591821  0.7484389020996058  0.12667797944534098  1.0000
  C   C18       1.0  0.5743096045902426  0.7843392284069601  0.16884530599605396  1.0000
  H   H9        1.0  0.646859145118556  0.7775157508357067  0.2647578977462792  1.0000
  H   H10       1.0  0.6523829076733201  0.7170464255990028  0.18459440512762026  1.0000
  H   H11       1.0  0.5565871074335181  0.7399763731519216  0.08989206721443543  1.0000
  H   H12       1.0  0.5526680192931287  0.8035427689839079  0.16386763998373666  1.0000
  C   C19       1.0  0.7067558771327546  0.9541327658028504  0.09540702977855298  1.0000
  C   C20       1.0  0.7017032628006659  0.915659073834495  0.12809549299402012  1.0000
  C   C21       1.0  0.7286107910097804  0.8891824346068219  0.13769554610982326  1.0000
  C   C22       1.0  0.7607640543374387  0.9013098492324167  0.11597536759519844  1.0000
  C   C23       1.0  0.7658176680950597  0.9398155162203956  0.08320282197667161  1.0000
  C   C24       1.0  0.7388101971916576  0.9660877295082169  0.07247515646014557  1.0000
  H   H13       1.0  0.6770550797511606  0.9061888849682088  0.14597207259056244  1.0000
  H   H14       1.0  0.7245183057997759  0.8593731880621802  0.16273206565704745  1.0000
  H   H15       1.0  0.7903675504364243  0.9490521561450359  0.0648184584426823  1.0000
  H   H16       1.0  0.7427715371391804  0.9957713134460148  0.046896969970435354  1.0000
  C   C25       1.0  0.5980480742956633  0.14813267180573103  0.3454953836486492  1.0000
  C   C26       1.0  0.5715262520692704  0.13792103517643034  0.3936327146068439  1.0000
  C   C27       1.0  0.5581277787240767  0.09837179778242211  0.393901257139448  1.0000
  C   C28       1.0  0.5711189837507803  0.06886519383624101  0.3458257991018321  1.0000
  C   C29       1.0  0.5976870581717331  0.07886718961349626  0.2977019036356985  1.0000
  C   C30       1.0  0.6111608020090892  0.11847769638497681  0.2976779692996394  1.0000
  H   H17       1.0  0.561367203966381  0.1606169291663281  0.4310039760447335  1.0000
  H   H18       1.0  0.5376140080573255  0.0907766627942086  0.4313144710791246  1.0000
  H   H19       1.0  0.6080302618831495  0.05611129396386638  0.2608209079652788  1.0000
  H   H20       1.0  0.6317951166272494  0.1258819843571353  0.26104999869793355  1.0000
  C   C31       1.0  0.6996622109715628  0.3792614863602803  0.2168950955350304  1.0000
  C   C32       1.0  0.6938681689459116  0.37359268398700557  0.14021809169130472  1.0000
  C   C33       1.0  0.6811320800544282  0.40560903001341303  0.09660834576294164  1.0000
  C   C34       1.0  0.6734978156619768  0.4429358400152856  0.1300294503759094  1.0000
  C   C35       1.0  0.677438560682684  0.44758713526244304  0.20750115702572702  1.0000
  C   C36       1.0  0.6910336750257455  0.4160390931301662  0.25071609143095896  1.0000
  H   H21       1.0  0.7002184645423669  0.3449922513148693  0.11401100646715534  1.0000
  H   H22       1.0  0.6780262543142641  0.4016391971228907  0.03679870495542792  1.0000
  H   H23       1.0  0.6700845913697473  0.4754964863241923  0.23433915215846834  1.0000
  H   H24       1.0  0.6948178617131847  0.420169464223725  0.3103895525867324  1.0000
  C   C37       1.0  0.9656814181054639  0.1060821423596663  0.2796704280984006  1.0000
  C   C38       1.0  0.969227357320376  0.0639467344962474  0.27248536498708154  1.0000
  C   C39       1.0  0.9410093926189599  0.03855407640738728  0.2735922565842266  1.0000
  C   C40       1.0  0.9092884095083422  0.055252940161542696  0.28142704115687733  1.0000
  C   C41       1.0  0.9060504380912882  0.09698390201722606  0.2941563062183985  1.0000
  C   C42       1.0  0.9342059310705075  0.12230594628141117  0.2934310191727545  1.0000
  H   H25       1.0  0.9936207908611975  0.051023994118018834  0.2639055788096736  1.0000
  H   H26       1.0  0.9439386956106515  0.006166168086037205  0.26853830392956524  1.0000
  H   H27       1.0  0.8817275682270584  0.10986129582014525  0.3032938190599548  1.0000
  H   H28       1.0  0.9315277743694959  0.15427932786086326  0.3045904756233313  1.0000
  C   C43       1.0  0.9669262850311139  0.3738248129218018  0.26194251773539157  1.0000
  C   C44       1.0  0.9994176894465097  0.37008537608238395  0.23431494357884675  1.0000
  C   C45       1.0  0.017992768398402914  0.40495685749037363  0.21518751724255436  1.0000
  C   C46       1.0  0.003649030916634155  0.4434754685408494  0.22118179653339065  1.0000
  C   C47       1.0  0.9710385312580548  0.4471324082695504  0.24801854428730685  1.0000
  C   C48       1.0  0.952884685079332  0.41237337670038776  0.2696986622192463  1.0000
  H   H29       1.0  0.01042076471853104  0.3403714415884622  0.2286309426407973  1.0000
  H   H30       1.0  0.04340104202647099  0.40201926926468895  0.1957903567784105  1.0000
  H   H31       1.0  0.959517807317144  0.4766630722096311  0.25133149484658146  1.0000
  H   H32       1.0  0.9276708660096509  0.41534889175446715  0.29048327390374395  1.0000
  C   C49       1.0  0.8561110552661405  0.19034895925784173  0.07044027079495696  1.0000
  C   C50       1.0  0.8237382128435151  0.195153127256758  0.04369212725439775  1.0000
  C   C51       1.0  0.7964640381450923  0.18220619652097755  0.08762131241807647  1.0000
  C   C52       1.0  0.8016311508283632  0.16365108338401788  0.15754839017131061  1.0000
  C   C53       1.0  0.8340143422775957  0.15671610775330727  0.1822239591783663  1.0000
  C   C54       1.0  0.861226833869693  0.17069899042379955  0.13935956509522596  1.0000
  H   H33       1.0  0.8196821260616771  0.20999905393518264  0.9899824952845966  1.0000
  H   H34       1.0  0.7714711591210021  0.18667501125366137  0.06738341301702255  1.0000
  H   H35       1.0  0.8379922921428644  0.14188599981285566  0.23589277913703555  1.0000
  H   H36       1.0  0.8861309620940123  0.1658388077499563  0.15942577192889917  1.0000
  C   C55       1.0  0.5432590561387634  0.18410741882804119  0.008978231495426092  1.0000
  C   C56       1.0  0.5629585808929193  0.1877560998497156  0.07306617634430101  1.0000
  C   C57       1.0  0.5954937255706837  0.2029678704762143  0.06695084221709369  1.0000
  C   C58       1.0  0.6084234346698635  0.21495919924180146  0.9968360600440231  1.0000
  C   C59       1.0  0.5884441001326578  0.21235774773314803  0.933002209833689  1.0000
  C   C60       1.0  0.5558525360669311  0.19712061566147232  0.9391725992561821  1.0000
  H   H37       1.0  0.5532758441057843  0.17875881426378937  0.12763733658357101  1.0000
  H   H38       1.0  0.6104917328470163  0.20534672962596007  0.11675114334721037  1.0000
  H   H39       1.0  0.5981074147474845  0.2223058215042863  0.8788532627475223  1.0000
  H   H40       1.0  0.5403806508184091  0.1963150985330048  0.8900762476754486  1.0000
  C   C61       1.0  0.10963201368954643  0.18152782731366485  0.8982819149792467  1.0000
  C   C62       1.0  0.09329071088211777  0.17388812119338856  0.9669071678960544  1.0000
  C   C63       1.0  0.07273415888676482  0.2037328578695859  0.9987067923275246  1.0000
  C   C64       1.0  0.06909706346491573  0.24150624245889965  0.9625852245879555  1.0000
  C   C65       1.0  0.08555720779402454  0.2490951424982971  0.8942075470692754  1.0000
  C   C66       1.0  0.10537261911858131  0.21891791979532524  0.8616826938924059  1.0000
  H   H41       1.0  0.0968768357466971  0.14523693493035333  0.9960301938594139  1.0000
  H   H42       1.0  0.06036242482978591  0.1979195849731354  0.05199051919982023  1.0000
  H   H43       1.0  0.08267356809919768  0.2781209166447558  0.8658207184125827  1.0000
  H   H44       1.0  0.11734826924588493  0.22451534355450306  0.8081525353275293  1.0000
  C   C67       1.0  0.30164079105484437  0.17832984936097732  0.7212722996048628  1.0000
  C   C68       1.0  0.33619084944861516  0.1804144129759111  0.7116973179932841  1.0000
  C   C69       1.0  0.3567763199841923  0.1530184692677146  0.7499057643352457  1.0000
  C   C70       1.0  0.3428512916948137  0.12349872951166176  0.7980662081827893  1.0000
  C   C71       1.0  0.30826208360052393  0.12101581577141331  0.806965392922893  1.0000
  C   C72       1.0  0.2876552724958632  0.148492944614094  0.7687240887298249  1.0000
  H   H45       1.0  0.3470350289597836  0.2029519878799347  0.6740834926031342  1.0000
  H   H46       1.0  0.3834051438201094  0.1546516492334347  0.7417928657320271  1.0000
  H   H47       1.0  0.29744368722597264  0.09843184319700721  0.8446711241423578  1.0000
  H   H48       1.0  0.2610761406163206  0.14724031288937947  0.7775529561547518  1.0000
  C   C73       1.0  0.5656166277259023  0.4807729092639623  0.4359183076600658  1.0000
  C   C74       1.0  0.586260668323603  0.4812758402259498  0.3721134828542685  1.0000
  C   C75       1.0  0.6099877122358394  0.5124641502430959  0.362048414450054  1.0000
  C   C76       1.0  0.6133118891906617  0.5429313116408298  0.4161506334117313  1.0000
  C   C77       1.0  0.5929777915382621  0.5420775290622821  0.48035044465834575  1.0000
  C   C78       1.0  0.56884801002075  0.5114052098372192  0.4896654555659178  1.0000
  H   H49       1.0  0.5838229810459227  0.45771857317733705  0.33028540484977564  1.0000
  H   H50       1.0  0.625863487914118  0.5127046907578251  0.312757754137746  1.0000
  H   H51       1.0  0.5954626751283149  0.5655635786271445  0.522338389128874  1.0000
  H   H52       1.0  0.5526391101853266  0.5117401144187778  0.5382681385945706  1.0000
  C   C79       1.0  0.5234462347910224  0.3167238414122085  0.7512786038706183  1.0000
  C   C80       1.0  0.5148297596989261  0.2837252512007152  0.797666680033108  1.0000
  C   C81       1.0  0.5031876349686029  0.24755759990488513  0.7658006909269817  1.0000
  C   C82       1.0  0.4999855992078388  0.24454633947605225  0.687751036483009  1.0000
  C   C83       1.0  0.5110140703432916  0.27644887517579736  0.6411334888824298  1.0000
  C   C84       1.0  0.5230770909672153  0.3124740402375846  0.6730495245461634  1.0000
  H   H53       1.0  0.5155718985604293  0.28672292945773387  0.8582234166532733  1.0000
  H   H54       1.0  0.49534024335029325  0.22278061043826297  0.8020696641949728  1.0000
  H   H55       1.0  0.5090705362090683  0.2738596456449682  0.5807094450701291  1.0000
  H   H56       1.0  0.5312862438088907  0.33735885856415515  0.6372305731296124  1.0000
  C   C85       1.0  0.11839879126491476  0.5590246073095116  0.5061500013528634  1.0000
  C   C86       1.0  0.10205590314229682  0.5784753004677451  0.5653899708510857  1.0000
  C   C87       1.0  0.07242250545796251  0.5996245520965842  0.552382847264894  1.0000
  C   C88       1.0  0.05866358171070485  0.6005924319645443  0.48033000166121864  1.0000
  C   C89       1.0  0.07528681487983979  0.5816774334461248  0.42086279665016657  1.0000
  C   C90       1.0  0.10536883209710624  0.5615231188774576  0.43354863449924125  1.0000
  H   H57       1.0  0.11194579221853018  0.5767330758819462  0.621418955569566  1.0000
  H   H58       1.0  0.059761076225531236  0.6143119224087136  0.5986310716861096  1.0000
  H   H59       1.0  0.06512390532927137  0.5826006770708503  0.3649857954640652  1.0000
  H   H60       1.0  0.11830971379779598  0.5472937096391093  0.3872235813492551  1.0000
  C   C91       1.0  0.14293782507894176  0.38799688796064874  0.773618179379714  1.0000
  C   C92       1.0  0.1398548049607614  0.4003564509873038  0.6984719177279348  1.0000
  C   C93       1.0  0.13395846747133394  0.371313671345791  0.6426352383932543  1.0000
  C   C94       1.0  0.13166433700098282  0.32998881322378404  0.6620708211783893  1.0000
  C   C95       1.0  0.1331006385846018  0.3180623922817328  0.7375256607907786  1.0000
  C   C96       1.0  0.13861628288526157  0.34700838970994907  0.7934037101330156  1.0000
  H   H61       1.0  0.1427999856195788  0.4321211779543154  0.6830291377838292  1.0000
  H   H62       1.0  0.13290261419219251  0.3806282842411213  0.584194797882158  1.0000
  H   H63       1.0  0.13040068745844888  0.2863755254113007  0.7527123004131852  1.0000
  H   H64       1.0  0.14072588980643166  0.3373505846380757  0.8515359828140939  1.0000
  C   C97       1.0  0.3141971032419141  0.5103810371694615  0.7215464818433923  1.0000
  C   C98       1.0  0.3469889342426479  0.5102993461671639  0.7475315349108107  1.0000
  C   C99       1.0  0.37024583847667614  0.48297074422894637  0.7178426979292333  1.0000
  C   C100      1.0  0.36066664160017947  0.4553247734188227  0.6625695721999594  1.0000
  C   C101      1.0  0.32780399258219156  0.4551122128126183  0.6370625201555378  1.0000
  C   C102      1.0  0.30457774187648134  0.4826503359681163  0.6664086017651794  1.0000
  H   H65       1.0  0.3544454834675237  0.5314805246041394  0.7906746654233099  1.0000
  H   H66       1.0  0.3955031106733744  0.483135440995301  0.7381334845208098  1.0000
  H   H67       1.0  0.3205339690255476  0.4342702677761244  0.5932483324664194  1.0000
  H   H68       1.0  0.27953105209139206  0.4832031661365736  0.644938889402809  1.0000
  C   C103      1.0  0.48255412829319777  0.8285441003242635  0.9175679421254841  1.0000
  C   C104      1.0  0.4740835695223209  0.8649421867921632  0.8813885325235234  1.0000
  C   C105      1.0  0.4842510491616442  0.9024604980209542  0.9112009882471975  1.0000
  C   C106      1.0  0.5034715177909767  0.903733529407749  0.9763456244979147  1.0000
  C   C107      1.0  0.512383362137658  0.8673141797302792  0.012139413245390474  1.0000
  C   C108      1.0  0.5017278583450898  0.8297661519860207  0.983052842219595  1.0000
  H   H69       1.0  0.45973298156718834  0.8640770150313802  0.8304663447907962  1.0000
  H   H70       1.0  0.47782259517398046  0.9306265685322601  0.8832779723249867  1.0000
  H   H71       1.0  0.527154840455766  0.868072816805196  0.06267916768115267  1.0000
  H   H72       1.0  0.5082509423155109  0.8017782392650917  0.011630144177453783  1.0000
  C   C109      1.0  0.4608498516281228  0.9338804052477092  0.6303210000616152  1.0000
  C   C110      1.0  0.4625943004888132  0.9753180195814548  0.6117327487525146  1.0000
  C   C111      1.0  0.48313362608292937  0.0014007638222894858  0.6528268012759593  1.0000
  C   C112      1.0  0.5019930379964573  0.9859357508564236  0.7121174495287417  1.0000
  C   C113      1.0  0.5017800684413346  0.9441397951318182  0.7276391178690713  1.0000
  C   C114      1.0  0.48087500093957347  0.9181400099460616  0.6873073662290039  1.0000
  H   H73       1.0  0.4475199056690102  0.9874470798988174  0.5667712079456926  1.0000
  H   H74       1.0  0.4841232789029593  0.03355007745808969  0.6391918763587107  1.0000
  H   H75       1.0  0.5167301024780832  0.9321485577755706  0.7729705720959109  1.0000
  H   H76       1.0  0.4798627727931756  0.8861288693048625  0.7014720450495489  1.0000
  C   C115      1.0  0.48381040978114753  0.6670716826751404  0.5968461204356104  1.0000
  C   C116      1.0  0.4918553170127364  0.6292947851672805  0.5659495008240395  1.0000
  C   C117      1.0  0.49956395860265906  0.5964056843842686  0.613434914424421  1.0000
  C   C118      1.0  0.4990056673889336  0.6013829617327339  0.6915559375559102  1.0000
  C   C119      1.0  0.49304823290820676  0.6398056216620635  0.7219272740428286  1.0000
  C   C120      1.0  0.4855497050390603  0.6726511206532566  0.6745331503044474  1.0000
  H   H77       1.0  0.4908657951334385  0.6249738763682947  0.5057593488407018  1.0000
  H   H78       1.0  0.5052630885614464  0.5670554532361571  0.5897081262452984  1.0000
  H   H79       1.0  0.49280637752918116  0.6437299166924773  0.7822979641914916  1.0000
  H   H80       1.0  0.48042254493115705  0.7021091314316347  0.6983430029533431  1.0000
  C   C121      1.0  0.04190004445871832  0.8961534489599988  0.9576680220102615  1.0000
  C   C122      1.0  0.021812993698805853  0.8910008374763818  0.02171448428637368  1.0000
  C   C123      1.0  0.9891625208464837  0.9057204188990213  0.02260912594878972  1.0000
  C   C124      1.0  0.9767077534610595  0.9266813008558052  0.9601851169485093  1.0000
  C   C125      1.0  0.9968493897236832  0.931978197469947  0.8961174428757  1.0000
  C   C126      1.0  0.0292952264253159  0.9164396608073523  0.8946078449256057  1.0000
  H   H81       1.0  0.031364661942677736  0.8752554151291916  0.07062273327021273  1.0000
  H   H82       1.0  0.9737419888424791  0.9008431188816302  0.0718490942149641  1.0000
  H   H83       1.0  0.9872112413075582  0.9477469329296276  0.847351308264883  1.0000
  H   H84       1.0  0.044583015046708585  0.9205586882587076  0.8449044508110805  1.0000
  C   C127      1.0  0.09780660635093806  0.9999740752692861  0.5884617492352932  1.0000
  C   C128      1.0  0.09630843553388162  0.010431971278759944  0.5122051506957446  1.0000
  C   C129      1.0  0.11602343630854156  0.04236353538506088  0.48353765815568384  1.0000
  C   C130      1.0  0.13597700739891128  0.06508445974791154  0.5318692934845204  1.0000
  C   C131      1.0  0.13693054521978046  0.05521096399840025  0.6085499959006331  1.0000
  C   C132      1.0  0.11859282455690745  0.021848165331570524  0.636447102374468  1.0000
  H   H85       1.0  0.08024638091016371  0.9934100691000438  0.475116799714252  1.0000
  H   H86       1.0  0.11531325525268431  0.049792491628053874  0.42419392799417405  1.0000
  H   H87       1.0  0.1519168400950985  0.0730560393636993  0.646244559248307  1.0000
  H   H88       1.0  0.11981133006999888  0.013667192887225621  0.6952744328881167  1.0000
  C   C133      1.0  0.1169688572542109  0.7264038692474944  0.7069996898104364  1.0000
  C   C134      1.0  0.12148622593026111  0.6873954289511732  0.6777424733094517  1.0000
  C   C135      1.0  0.12953602806493186  0.6549630517213063  0.7258063033519735  1.0000
  C   C136      1.0  0.13274832490055316  0.6614957294043711  0.8029753319189722  1.0000
  C   C137      1.0  0.12711251692974856  0.7001543305403257  0.8325195971914703  1.0000
  C   C138      1.0  0.119136531290219  0.7325780549675389  0.784503835734297  1.0000
  H   H89       1.0  0.11965176612593903  0.6823921895667708  0.6178068495815462  1.0000
  H   H90       1.0  0.13389441969547758  0.6250999397293642  0.7029832053326323  1.0000
  H   H91       1.0  0.12981428031956252  0.7051635223285379  0.8921820558431013  1.0000
  H   H92       1.0  0.11468120472290427  0.7623074494432592  0.8074161289818935  1.0000
  C   C139      1.0  0.2509138941700485  0.8686467875661643  0.7336319842323173  1.0000
  C   C140      1.0  0.23896275742462525  0.8304590375268609  0.7116023047806652  1.0000
  C   C141      1.0  0.2612959300191882  0.7986399004930904  0.6973951333329252  1.0000
  C   C142      1.0  0.29560386641731623  0.8046478699090165  0.7057947735440543  1.0000
  C   C143      1.0  0.3075212033809956  0.8431002606871644  0.7264147115155332  1.0000
  C   C144      1.0  0.28524507180361075  0.8750040300715705  0.7402992991793379  1.0000
  H   H93       1.0  0.21253623902921803  0.8254790984493005  0.705122334343288  1.0000
  H   H94       1.0  0.25200543783735435  0.7693712393774251  0.6793731102755745  1.0000
  H   H95       1.0  0.333821678103503  0.8481746203996119  0.732636372490038  1.0000
  H   H96       1.0  0.2946066287250245  0.9044578771115376  0.7572235536189706  1.0000
  N   N1        1.0  0.3938159939488316  0.9715578154541893  0.8145168398742539  1.0000
  C   C145      1.0  0.4049203891364763  0.9297455866245043  0.7986114072940482  1.0000
  C   C146      1.0  0.35710404225424136  0.9727945997476999  0.8144497578041368  1.0000
  C   C147      1.0  0.40716111738690786  0.9993321017205459  0.7557012893597739  1.0000
  C   C148      1.0  0.4063042944811839  0.9841794389675492  0.8888375700415465  1.0000
  H   H97       1.0  0.4324641913538793  0.9280498181935181  0.7972017503933253  1.0000
  H   H98       1.0  0.39603759512625525  0.919342185434257  0.7427150585393669  1.0000
  H   H99       1.0  0.3958114785550424  0.9076663878887895  0.8420936829026835  1.0000
  H   H100      1.0  0.34704715311007406  0.9637275474452259  0.7588560533203794  1.0000
  H   H101      1.0  0.34626364788859015  0.9517527792561191  0.8576885847519053  1.0000
  H   H102      1.0  0.3479364163458047  0.004022157261153403  0.8268439807357746  1.0000
  H   H103      1.0  0.39728679746215917  0.030594646956907834  0.7616439601363942  1.0000
  H   H104      1.0  0.4007582304274375  0.9887306934054381  0.6982549473395288  1.0000
  H   H105      1.0  0.434666873800086  0.0016774622686357432  0.7589385268562872  1.0000
  H   H106      1.0  0.397057035811086  0.9635311993536118  0.9344555051903376  1.0000
  H   H107      1.0  0.3983108241988164  0.015673445555230092  0.9026122470054043  1.0000
  H   H108      1.0  0.4339946953166261  0.983823910509252  0.8904706712888586  1.0000
  N   N2        1.0  0.589668439814041  0.32861889685952766  0.4179087362205003  1.0000
  C   C149      1.0  0.6024733493724961  0.3635861468179792  0.46120508350044054  1.0000
  C   C150      1.0  0.5861805883426622  0.2925340619217819  0.4678562759199423  1.0000
  C   C151      1.0  0.6130585775979698  0.3192442483689523  0.35592489618366074  1.0000
  C   C152      1.0  0.5568772448719861  0.3390887672460074  0.3865202938231978  1.0000
  H   H109      1.0  0.6271881196204077  0.35694104839707613  0.4858953268012188  1.0000
  H   H110      1.0  0.5851969190582751  0.37170204877937  0.5079783838377148  1.0000
  H   H111      1.0  0.605215140028465  0.391350934203048  0.4250674638999357  1.0000
  H   H112      1.0  0.5687140114199541  0.29832011621740173  0.515425635882489  1.0000
  H   H113      1.0  0.5766683993499174  0.2655469719094236  0.4366764729343492  1.0000
  H   H114      1.0  0.6105076097830523  0.2835811589134521  0.49212625936375964  1.0000
  H   H115      1.0  0.6381089641618577  0.31118912527885356  0.3774949541538315  1.0000
  H   H116      1.0  0.6163310685428404  0.34561835957763065  0.3166815599725628  1.0000
  H   H117      1.0  0.6041647233926083  0.292737669300927  0.3226153931212526  1.0000
  H   H118      1.0  0.5464342601821591  0.31354639811741997  0.3531162271695587  1.0000
  H   H119      1.0  0.558546028765486  0.36650787348187885  0.3492452465566985  1.0000
  H   H120      1.0  0.5386515086742701  0.346410392619099  0.43189708302332175  1.0000
  N   N3        1.0  0.2441420896289963  0.3501431456871212  0.7007932316843496  1.0000
  C   C153      1.0  0.2269480444815677  0.36810060513006115  0.7662012745998201  1.0000
  C   C154      1.0  0.26634738396316515  0.3810872961526665  0.665801440632106  1.0000
  C   C155      1.0  0.21934393391504026  0.3365331606740339  0.6452902397072677  1.0000
  C   C156      1.0  0.263928070070532  0.31488902974459704  0.725891264002004  1.0000
  H   H121      1.0  0.2119674172206154  0.3949499825264795  0.7492279602716136  1.0000
  H   H122      1.0  0.24477578576943837  0.3786950433834475  0.8094930033535422  1.0000
  H   H123      1.0  0.2096998321477368  0.34577092284144273  0.7937669176628585  1.0000
  H   H124      1.0  0.27989824626241355  0.36861935404125806  0.6163504698855331  1.0000
  H   H125      1.0  0.25211810422415604  0.40804284573707955  0.6459015442185843  1.0000
  H   H126      1.0  0.2851818060173408  0.39233494964317467  0.706390301256625  1.0000
  H   H127      1.0  0.23134402573381085  0.3221083468434528  0.5956664374297551  1.0000
  H   H128      1.0  0.20412838467975725  0.36241991707631344  0.6244805375353404  1.0000
  H   H129      1.0  0.20184473648853074  0.31362007140203224  0.6701596494037302  1.0000
  H   H130      1.0  0.2478140565572302  0.29051556483774993  0.7510934813784483  1.0000
  H   H131      1.0  0.282484006937771  0.3237456955456579  0.7688919922159395  1.0000
  H   H132      1.0  0.27757746611371736  0.3009669486902898  0.6779640228803436  1.0000
  N   N4        1.0  0.78115597933065  0.4811127371643731  0.14884209837708062  1.0000
  C   C157      1.0  0.769977960121266  0.4797330538659025  0.2282150007609041  1.0000
  C   C158      1.0  0.777097815100686  0.4402684493662435  0.11559354314192727  1.0000
  C   C159      1.0  0.816516635518807  0.49361836860224834  0.14523145320035716  1.0000
  C   C160      1.0  0.7609465463673282  0.5107996890150358  0.10645389419944107  1.0000
  H   H133      1.0  0.7724461880374308  0.5099697390204087  0.25515560272142257  1.0000
  H   H134      1.0  0.7846801926977798  0.45772021271350866  0.262028597023835  1.0000
  H   H135      1.0  0.7434175396260192  0.47063869200695224  0.23309345062431697  1.0000
  H   H136      1.0  0.7851422157931318  0.4400921579748235  0.05556399034593462  1.0000
  H   H137      1.0  0.7918431350407027  0.4170433472622449  0.14639469475384614  1.0000
  H   H138      1.0  0.7506230964767349  0.43012422962395597  0.11775419175039237  1.0000
  H   H139      1.0  0.8201377012294907  0.5247037651588118  0.1683795778220567  1.0000
  H   H140      1.0  0.8260755659585127  0.49432615588462997  0.08634118074199759  1.0000
  H   H141      1.0  0.832504377691134  0.4727466998389187  0.17855281087905928  1.0000
  H   H142      1.0  0.7689087910078306  0.5129949051720568  0.0464919704353155  1.0000
  H   H143      1.0  0.7631259620050916  0.5419523445954721  0.1304390910006883  1.0000
  H   H144      1.0  0.7341109573305034  0.5021622393000226  0.10736307546755253  1.0000
  N   N5        1.0  0.04878363605170133  0.45347936522737786  0.4445399068231499  1.0000
  C   C161      1.0  0.07040489556903395  0.42207103501158666  0.4781407927617994  1.0000
  C   C162      1.0  0.06493318723985952  0.47036696300558994  0.3760050425985073  1.0000
  C   C163      1.0  0.04347626183511699  0.4865149724669992  0.4993330370022861  1.0000
  C   C164      1.0  0.016426846801560924  0.43503937221504363  0.4245993495289564  1.0000
  H   H145      1.0  0.058992473284126934  0.4084856378448869  0.5298756950792153  1.0000
  H   H146      1.0  0.0949766125191922  0.43519566390425296  0.4942010607415935  1.0000
  H   H147      1.0  0.0752077415834842  0.3968597301595987  0.43804917787488074  1.0000
  H   H148      1.0  0.0672065319938604  0.4470505821638686  0.3311688171262344  1.0000
  H   H149      1.0  0.050467657456340076  0.49612146619534836  0.3519269813855226  1.0000
  H   H150      1.0  0.09035095480260358  0.48201181656825787  0.3879315596372892  1.0000
  H   H151      1.0  0.028264621439032966  0.5115759637755066  0.47508658474618193  1.0000
  H   H152      1.0  0.06748955435300075  0.500252797947141  0.5171501710844336  1.0000
  H   H153      1.0  0.030496172875713157  0.47521863486063615  0.5509536600358269  1.0000
  H   H154      1.0  0.01948405318083002  0.40981862915449213  0.38365662337892426  1.0000
  H   H155      1.0  0.9997858305143711  0.45784099973234804  0.39802232799444665  1.0000
  H   H156      1.0  0.0032354379513677145  0.4223721588118364  0.4748895687197606  1.0000
  N   N6        1.0  0.03742582864046695  0.7560441981901802  0.9383392575702203  1.0000
  C   C165      1.0  0.07116932393277553  0.7697450436999931  0.9590998414826277  1.0000
  C   C166      1.0  0.025551736481975063  0.7249934330176432  0.9931288828766208  1.0000
  C   C167      1.0  0.03832112218484185  0.7382052372120814  0.8622561536795473  1.0000
  C   C168      1.0  0.014699037690140582  0.7912502258560119  0.9390026977984522  1.0000
  H   H157      1.0  0.08152864268649829  0.7917687361923049  0.9169536655885853  1.0000
  H   H158      1.0  0.08863654161166856  0.7437393909953731  0.9629611061940944  1.0000
  H   H159      1.0  0.07110129731885428  0.7854997720846829  0.014378808333413984  1.0000
  H   H160      1.0  0.024820733814816753  0.7372247953838583  0.05135239161202643  1.0000
  H   H161      1.0  0.9999868621794984  0.7141705375488959  0.9798178431615994  1.0000
  H   H162      1.0  0.04185463503097986  0.6977220091790234  0.9939092163623605  1.0000
  H   H163      1.0  0.055149854774628526  0.7114229755352152  0.8599446216387889  1.0000
  H   H164      1.0  0.04739850887208852  0.7607514305758362  0.8194445562127967  1.0000
  H   H165      1.0  0.013225980439880658  0.7276355496798627  0.8447486273013977  1.0000
  H   H166      1.0  0.989032341515981  0.7822735691100888  0.9228164727563415  1.0000
  H   H167      1.0  0.02333635359155317  0.8156691149315379  0.8993714276928413  1.0000
  H   H168      1.0  0.013124243755138432  0.8050526114521306  0.9959405486721642  1.0000
  N   N7        1.0  0.5347816487708877  0.9131779914916499  0.4709263035539506  1.0000
  C   C169      1.0  0.5469912384195904  0.9447439250827459  0.5229415868871389  1.0000
  C   C170      1.0  0.5607357746834714  0.9048088517581013  0.414044285982351  1.0000
  C   C171      1.0  0.5045295136769532  0.9278302982955449  0.4329259664206177  1.0000
  C   C172      1.0  0.5269056688543604  0.8753287789283257  0.513309932342501  1.0000
  H   H169      1.0  0.5283185539852809  0.9513948905316403  0.5673867646346101  1.0000
  H   H170      1.0  0.552475931417257  0.9739664575282672  0.4926994926475097  1.0000
  H   H171      1.0  0.5701646666153236  0.9350892397170363  0.5515082832096437  1.0000
  H   H172      1.0  0.5519678701603253  0.8821326128515959  0.37233984649341556  1.0000
  H   H173      1.0  0.5679818911815481  0.9329930080775765  0.38261940733020916  1.0000
  H   H174      1.0  0.5836595844400483  0.892369408252808  0.4399302242523406  1.0000
  H   H175      1.0  0.49467964735301684  0.9047687391979994  0.39316616233765656  1.0000
  H   H176      1.0  0.5095718072007849  0.9563361000850801  0.40037547320288547  1.0000
  H   H177      1.0  0.48438121307561327  0.9344723468045653  0.4741247409612934  1.0000
  H   H178      1.0  0.5067722187993502  0.8802643846724542  0.5554179836173377  1.0000
  H   H179      1.0  0.5489704775606198  0.8638303517040561  0.5439874378523608  1.0000
  H   H180      1.0  0.5182265953702958  0.8507411106748042  0.4752280484870511  1.0000
  N   N8        1.0  0.06407882085298344  0.4040821460245815  0.9656446666429638  1.0000
  C   C173      1.0  0.0920604187343903  0.38547839327647904  0.00656261323505003  1.0000
  C   C174      1.0  0.07153434616237231  0.4476328872823184  0.9508779010396232  1.0000
  C   C175      1.0  0.033397668889387555  0.4004269808870655  0.011605905064510535  1.0000
  C   C176      1.0  0.05939051808159679  0.3827545401913413  0.8935748382374479  1.0000
  H   H181      1.0  0.08741289629102877  0.35245512519039246  0.01789049336980364  1.0000
  H   H182      1.0  0.09610905642047252  0.40053615023358696  0.06161160332829141  1.0000
  H   H183      1.0  0.11564749540549824  0.3879860826968637  0.9734806091293998  1.0000
  H   H184      1.0  0.05098705986476326  0.46267751984210037  0.9200067176258443  1.0000
  H   H185      1.0  0.07524598605566735  0.46460614313180215  0.004234566080157931  1.0000
  H   H186      1.0  0.0946258459039373  0.451521395875876  0.9164400829573928  1.0000
  H   H187      1.0  0.02794648407907263  0.3680551815275248  0.027192316612170808  1.0000
  H   H188      1.0  0.01145075662515005  0.41235475091410506  0.9810892931373552  1.0000
  H   H189      1.0  0.035470784558800705  0.41808685616656766  0.06449571921155384  1.0000
  H   H190      1.0  0.08198570672777716  0.3852984050988994  0.8573900251625529  1.0000
  H   H191      1.0  0.03828307550424759  0.39560045647202835  0.8613864843255454  1.0000
  H   H192      1.0  0.05420038093548141  0.34968179448931663  0.902816125638455  1.0000
  N   N9        1.0  0.48914361992497796  0.07103545664363087  0.17620094859689872  1.0000
  C   C177      1.0  0.4622738318102679  0.10143891791956583  0.1802784501878698  1.0000
  C   C178      1.0  0.483323647756038  0.03891641185285155  0.23363796716025576  1.0000
  C   C179      1.0  0.5213733935498418  0.0913860852986148  0.19016855437686475  1.0000
  C   C180      1.0  0.4896568709468733  0.05245240418826613  0.10073649245495764  1.0000
  H   H193      1.0  0.4611331200574307  0.11586151865027516  0.23669035999634347  1.0000
  H   H194      1.0  0.4375827900783768  0.08742202291484213  0.16895810058301186  1.0000
  H   H195      1.0  0.46620869911038504  0.12636686186023027  0.13815902772228528  1.0000
  H   H196      1.0  0.4586626971572915  0.023955566471133283  0.2266961596730559  1.0000
  H   H197      1.0  0.502486452216574  0.014694199020311993  0.22983094419470085  1.0000
  H   H198      1.0  0.48453569454303336  0.051485266787792305  0.29159925023973665  1.0000
  H   H199      1.0  0.542120155941716  0.06927671937633106  0.19057476877214863  1.0000
  H   H200      1.0  0.5215523487402214  0.10699458577079834  0.24555107323840186  1.0000
  H   H201      1.0  0.5271232439536248  0.11473469916279577  0.14627150302698277  1.0000
  H   H202      1.0  0.4657086581725176  0.036938597202238466  0.08797671229718462  1.0000
  H   H203      1.0  0.5095005444960042  0.029157737432692343  0.09586098424196643  1.0000
  H   H204      1.0  0.494218627833252  0.07579004842230574  0.056047451313193  1.0000
  N   N10       1.0  0.8287821202624281  0.2817212120620527  0.25871148494870866  1.0000
  C   C181      1.0  0.8353335816346541  0.24157621019543854  0.2936258621892691  1.0000
  C   C182      1.0  0.8584968202059493  0.30811382738082743  0.2660302208777128  1.0000
  C   C183      1.0  0.8000633606551945  0.3006936558040995  0.2967800354503489  1.0000
  C   C184      1.0  0.8212560956464616  0.2763212391499153  0.1781910973422698  1.0000
  H   H205      1.0  0.8409576975783895  0.2444305632608113  0.35452585775487  1.0000
  H   H206      1.0  0.856984871051315  0.22652663852234142  0.26646935878738476  1.0000
  H   H207      1.0  0.8135115057335991  0.22067256641527602  0.28843150070018275  1.0000
  H   H208      1.0  0.8545290201218625  0.3388554130200226  0.24104770794907493  1.0000
  H   H209      1.0  0.8655322660051658  0.31233737903679126  0.32592106837390933  1.0000
  H   H210      1.0  0.8804494684447917  0.2947793776338668  0.23687384444145665  1.0000
  H   H211      1.0  0.7941085133401325  0.33091841991302484  0.27162968584632075  1.0000
  H   H212      1.0  0.8047894525221228  0.3053456387306714  0.3576853250494614  1.0000
  H   H213      1.0  0.7772453602336938  0.281421632476443  0.2921486903674406  1.0000
  H   H214      1.0  0.8154203471307083  0.30582454804340364  0.150265207758687  1.0000
  H   H215      1.0  0.7994823059895595  0.25571129841985857  0.17052751779675202  1.0000
  H   H216      1.0  0.8426715010966067  0.2628328545474171  0.14737803662470483  1.0000
  N   N11       1.0  0.3846532209422891  0.6069426929704899  0.6240487369465471  1.0000
  C   C185      1.0  0.35801035765357175  0.6232067094136244  0.6728384025137949  1.0000
  C   C186      1.0  0.41131583187568954  0.5898066002261011  0.6712258276081825  1.0000
  C   C187      1.0  0.39846576481148255  0.6401954655478732  0.5764426807190054  1.0000
  C   C188      1.0  0.3709000072169661  0.5746652808939992  0.5755422018110901  1.0000
  H   H217      1.0  0.33751428464940847  0.6364982155008158  0.6390763341227054  1.0000
  H   H218      1.0  0.36760188740842686  0.6476417458685841  0.7101686431106277  1.0000
  H   H219      1.0  0.346866127932007  0.5988948634931329  0.7093705540931704  1.0000
  H   H220      1.0  0.40181090981007456  0.5651145356256807  0.7089633176314868  1.0000
  H   H221      1.0  0.431520315632442  0.5765431389751358  0.636271867445937  1.0000
  H   H222      1.0  0.42283682477412804  0.6135125396415443  0.7073293460501033  1.0000
  H   H223      1.0  0.4187087165748184  0.6291537226966345  0.5388951028946638  1.0000
  H   H224      1.0  0.40926559098463533  0.6649565667121389  0.6111384632495686  1.0000
  H   H225      1.0  0.3791074703547655  0.6541997505656175  0.5403459009100634  1.0000
  H   H226      1.0  0.39047119733469016  0.5613548349243226  0.5387325842542703  1.0000
  H   H227      1.0  0.3508735868446948  0.5865876811341051  0.5387786592204068  1.0000
  H   H228      1.0  0.35995988578782845  0.5492380802404476  0.6094708060989958  1.0000
  N   N12       1.0  0.848424373734883  0.7467234518967124  0.20498069572411826  1.0000
  C   C189      1.0  0.8725055481170867  0.7247569243434563  0.1572162117510525  1.0000
  C   C190      1.0  0.8663204532184992  0.7769326424282639  0.2510592142157011  1.0000
  C   C191      1.0  0.8306962289897072  0.7173594945757661  0.25473264631949477  1.0000
  C   C192      1.0  0.8241122460606024  0.7678858169353162  0.1568018638870008  1.0000
  H   H229      1.0  0.8914530137037351  0.7086635911807408  0.1916522254627102  1.0000
  H   H230      1.0  0.8861324681957512  0.7460376175780886  0.11865474762503392  1.0000
  H   H231      1.0  0.8598923206804742  0.7015359245479426  0.12199388742853401  1.0000
  H   H232      1.0  0.8849859980570306  0.7621559934045357  0.2880751079892898  1.0000
  H   H233      1.0  0.8799758264096126  0.7994709399524933  0.21516358648008982  1.0000
  H   H234      1.0  0.8489851982947102  0.7944486932020248  0.287390591154411  1.0000
  H   H235      1.0  0.8155127105166955  0.6955258019238569  0.22163597566915816  1.0000
  H   H236      1.0  0.8133335515668535  0.7330809620330309  0.29373849793189377  1.0000
  H   H237      1.0  0.8482992982142946  0.699195593409131  0.2892499055410158  1.0000
  H   H238      1.0  0.8364304678020381  0.7906667403349962  0.11884951669039467  1.0000
  H   H239      1.0  0.805459724393343  0.7846970323969122  0.1909991797658097  1.0000
  H   H240      1.0  0.8101494383799162  0.7460922370132408  0.12096032472736451  1.0000
  N   N13       1.0  0.40143866978945636  0.2960673556661837  0.7056802931484346  1.0000
  C   C193      1.0  0.39738004032812546  0.3265997520315075  0.7656886863261192  1.0000
  C   C194      1.0  0.4093580455616267  0.256070693789264  0.7396616834360137  1.0000
  C   C195      1.0  0.4288374919090075  0.3090105626617679  0.6548878768392833  1.0000
  C   C196      1.0  0.37035479999067183  0.29273580538711164  0.6623466180843968  1.0000
  H   H241      1.0  0.3768845495981646  0.3179903021190263  0.8051789393306489  1.0000
  H   H242      1.0  0.39175666659004343  0.35726414401618545  0.7417753449815445  1.0000
  H   H243      1.0  0.42053668587595855  0.3298370882506921  0.7992001582673447  1.0000
  H   H244      1.0  0.41278570958711847  0.23232389244915555  0.695887614454348  1.0000
  H   H245      1.0  0.43287918556751276  0.2575194436465667  0.7720997502028822  1.0000
  H   H246      1.0  0.3893155933051387  0.2451977776246739  0.7785693287930917  1.0000
  H   H247      1.0  0.43440507243522614  0.285418069189457  0.6119553798864391  1.0000
  H   H248      1.0  0.4520948998425572  0.31450072586077826  0.6867509969948159  1.0000
  H   H249      1.0  0.4228195013853628  0.33786788384691296  0.6246967112077133  1.0000
  H   H250      1.0  0.3729778250988305  0.2704973433859121  0.6157056175706835  1.0000
  H   H251      1.0  0.3635554062068888  0.322650851105876  0.6367974504621771  1.0000
  H   H252      1.0  0.34921912678534855  0.28218641823525165  0.6985338026445697  1.0000
  N   N14       1.0  0.90726402726126  0.06964558543652519  0.032054582288189915  1.0000
  C   C197      1.0  0.8963956571876507  0.04623259736553997  0.9658541087647353  1.0000
  C   C198      1.0  0.9200858013094332  0.10991347486828153  0.007325076593991842  1.0000
  C   C199      1.0  0.9337829551154987  0.04723289372224593  0.07136919723080193  1.0000
  C   C200      1.0  0.8787981520132075  0.07534657437312654  0.08387729572879832  1.0000
  H   H253      1.0  0.8869139548214451  0.015484294812330601  0.9823940232458076  1.0000
  H   H254      1.0  0.9173143811142862  0.04125823786729765  0.9256670138603821  1.0000
  H   H255      1.0  0.876205784261485  0.06211167239038057  0.9351400276636217  1.0000
  H   H256      1.0  0.942380188915394  0.1070811765121346  0.9704444254648102  1.0000
  H   H257      1.0  0.9010231296860256  0.12715632230776514  0.9753117789457192  1.0000
  H   H258      1.0  0.9271431823621735  0.1290435092804482  0.05621395280541264  1.0000
  H   H259      1.0  0.9436158797462769  0.06494416067968244  0.11957400089989845  1.0000
  H   H260      1.0  0.9549733464741333  0.04036032278065948  0.03305539866078444  1.0000
  H   H261      1.0  0.9244077965657638  0.017608209287481188  0.09397913800930269  1.0000
  H   H262      1.0  0.8587846760808209  0.0935997547695109  0.05726445817214865  1.0000
  H   H263      1.0  0.8865715024025793  0.09122680926927533  0.13593942909283263  1.0000
  H   H264      1.0  0.8677696695313084  0.045781720393861525  0.1022781675675768  1.0000
  N   N15       1.0  0.06968157198467259  0.16730787316801687  0.4366937351056712  1.0000
  C   C201      1.0  0.06525918655359701  0.14485954603082996  0.50853455419493  1.0000
  C   C202      1.0  0.07712839537473655  0.13812773274903734  0.37601409880212566  1.0000
  C   C203      1.0  0.09751755766331434  0.19672136921570482  0.4433990312811038  1.0000
  C   C204      1.0  0.03879249734147683  0.18938549283078365  0.41884129867109476  1.0000
  H   H265      1.0  0.05931814484026809  0.16584793061096348  0.5555360256918034  1.0000
  H   H266      1.0  0.0882264065765041  0.12819199964672845  0.5239391802018663  1.0000
  H   H267      1.0  0.044829216512806136  0.1218877956322515  0.5050134903173658  1.0000
  H   H268      1.0  0.07977844313170683  0.15382698213948287  0.3205090444114562  1.0000
  H   H269      1.0  0.10063390826886347  0.12145738006011841  0.3869970803286178  1.0000
  H   H270      1.0  0.05683924977508424  0.1150851315727004  0.37019336969954386  1.0000
  H   H271      1.0  0.10140425370258364  0.2143676962500003  0.39029818195998467  1.0000
  H   H272      1.0  0.12126852565579431  0.1809446948935256  0.4561943915652593  1.0000
  H   H273      1.0  0.09302396521176867  0.2189724458131328  0.48935328814867174  1.0000
  H   H274      1.0  0.04074849023514271  0.20537920170675217  0.36344795228321525  1.0000
  H   H275      1.0  0.032858228017643265  0.21251189027788597  0.46224290408814817  1.0000
  H   H276      1.0  0.017170556427180014  0.1680927975409443  0.4152876295345227  1.0000
  N   N16       1.0  0.7651448851880721  0.026474851143582834  0.2768785992858811  1.0000
  C   C205      1.0  0.7822697173152892  0.04023816649914535  0.20717609155173466  1.0000
  C   C206      1.0  0.7392433461502548  0.9961106730552372  0.25830930545051944  1.0000
  C   C207      1.0  0.7495180919741029  0.06176200946254281  0.3138380624578738  1.0000
  C   C208      1.0  0.7895641518186575  0.0078405485013322  0.328168312689318  1.0000
  H   H277      1.0  0.7646699699297969  0.05508645861380008  0.16758896797880563  1.0000
  H   H278      1.0  0.7940572489091658  0.014282413307897812  0.17741356457621205  1.0000
  H   H279      1.0  0.8022067851314916  0.06292765541045352  0.2195075521685934  1.0000
  H   H280      1.0  0.7209088908257755  0.008857948875507393  0.2179320466746828  1.0000
  H   H281      1.0  0.7502469623222474  0.968520881191929  0.2323155413235476  1.0000
  H   H282      1.0  0.7251641844213295  0.9858289161222282  0.3091778686553046  1.0000
  H   H283      1.0  0.7361584643579143  0.052611743396050674  0.3663721804096509  1.0000
  H   H284      1.0  0.7312493708207204  0.0768378596427317  0.27609892040536144  1.0000
  H   H285      1.0  0.7683903334953196  0.08528783994944153  0.32870068551101084  1.0000
  H   H286      1.0  0.7774919262972999  0.996063854801213  0.3805385890412589  1.0000
  H   H287      1.0  0.8090147784655285  0.030298136972213282  0.3447259964051317  1.0000
  H   H288      1.0  0.8026846366227771  0.981970826718011  0.3009438043851198  1.0000
  N   N17       1.0  0.5650879010366715  0.6700211631394779  0.3609732345202512  1.0000
  C   C209      1.0  0.5450431377961118  0.6929418537582246  0.4161779552350333  1.0000
  C   C210      1.0  0.6007441266879006  0.6792177952415461  0.3718072625462503  1.0000
  C   C211      1.0  0.5555258794638036  0.6820518542913915  0.2839114179718168  1.0000
  C   C212      1.0  0.5591536415255057  0.6258577809984015  0.37184599261444823  1.0000
  H   H289      1.0  0.5179529303450042  0.6868606402695867  0.4094868060727235  1.0000
  H   H290      1.0  0.5490198352102629  0.7264079203111359  0.40980103077456653  1.0000
  H   H291      1.0  0.5514600604868157  0.6843689119751089  0.47500727700330003  1.0000
  H   H292      1.0  0.6062676836169321  0.7122960970561191  0.3639207201672061  1.0000
  H   H293      1.0  0.6091365919470098  0.6698897637573381  0.428914152488856  1.0000
  H   H294      1.0  0.616449759547916  0.6624135230398617  0.33082435634229684  1.0000
  H   H295      1.0  0.5703954507068314  0.6654707117197092  0.24088320123951013  1.0000
  H   H296      1.0  0.5597575638495014  0.7152378944541177  0.2740004902454245  1.0000
  H   H297      1.0  0.5288300267603956  0.6754833208379624  0.2732494144023996  1.0000
  H   H298      1.0  0.5743374969133938  0.6075712611001072  0.331918741928831  1.0000
  H   H299      1.0  0.5325984116195206  0.6175676572052003  0.3634805303420865  1.0000
  H   H300      1.0  0.5660399121298647  0.6159091515727396  0.4295982042478485  1.0000
  N   N18       1.0  0.237818976278423  0.017070989007816447  0.6351579085349625  1.0000
  C   C213      1.0  0.25190744143490024  0.9769832176006609  0.6157318997743454  1.0000
  C   C214      1.0  0.2647696542655751  0.044739418243678664  0.6596092269613457  1.0000
  C   C215      1.0  0.21321389786409722  0.011856634166812485  0.6967953285415094  1.0000
  C   C216      1.0  0.2213318554494783  0.0346240450845936  0.568466244280434  1.0000
  H   H301      1.0  0.2698673434079622  0.9793808899142225  0.5679875880957511  1.0000
  H   H302      1.0  0.23205944188309738  0.9548899032338706  0.5996767820923787  1.0000
  H   H303      1.0  0.2651569024444023  0.9632044207778228  0.6643181013292048  1.0000
  H   H304      1.0  0.28381552651479436  0.04932830063716231  0.6145228772391175  1.0000
  H   H305      1.0  0.2550684588495119  0.07535993161179368  0.6744220673311612  1.0000
  H   H306      1.0  0.277575219765469  0.03257538850869013  0.7102341626340802  1.0000
  H   H307      1.0  0.20191671387601853  0.04140180112329283  0.7128288279011736  1.0000
  H   H308      1.0  0.22479131351483114  0.9985347268692311  0.748015298878949  1.0000
  H   H309      1.0  0.19267210211682084  0.9908206069865119  0.6804414366754516  1.0000
  H   H310      1.0  0.23888059859463245  0.03835513867700957  0.5201896009908776  1.0000
  H   H311      1.0  0.2110148808378551  0.06525605146879114  0.580549672086457  1.0000
  H   H312      1.0  0.2003031139637992  0.01504691897928434  0.549525653171319  1.0000
  N   N19       1.0  0.0726444737388267  0.035774674291132236  0.8679894115369204  1.0000
  C   C217      1.0  0.10833436308413778  0.04417540570197587  0.8544072450763106  1.0000
  C   C218      1.0  0.06877646119450964  0.008179715340748572  0.933733333825437  1.0000
  C   C219      1.0  0.05809160964500532  0.016332401190301216  0.8009754245508871  1.0000
  C   C220      1.0  0.05545816283581861  0.07458439468919376  0.8829211210821772  1.0000
  H   H313      1.0  0.11986697475430476  0.05973117441210496  0.9032906717287302  1.0000
  H   H314      1.0  0.11220764295354897  0.06450501849412027  0.8045665676510406  1.0000
  H   H315      1.0  0.12240995732482962  0.0157464733883792  0.844465044015267  1.0000
  H   H316      1.0  0.08149670087544351  0.978552907441614  0.924314516853326  1.0000
  H   H317      1.0  0.07955893426062834  0.02179154659659943  0.9853099805075062  1.0000
  H   H318      1.0  0.04213026517280439  0.001155973419367795  0.945813117044237  1.0000
  H   H319      1.0  0.031192666876248554  0.009372566486272271  0.8093288358427047  1.0000
  H   H320      1.0  0.07048926948463499  0.9870260078243042  0.7877744925810943  1.0000
  H   H321      1.0  0.06060555231449445  0.03613425316807284  0.7500421611730826  1.0000
  H   H322      1.0  0.02833391033152988  0.06974281140425753  0.8921193748710744  1.0000
  H   H323      1.0  0.05880948191479824  0.09655444894327436  0.8352574735334157  1.0000
  H   H324      1.0  0.0655554703594752  0.08975332622982224  0.9337307117403688  1.0000
  N   N20       1.0  0.04335753872062287  0.7472721476227965  0.46216739188822853  1.0000
  C   C221      1.0  0.01739601588092832  0.7788592825635416  0.46638495366794963  1.0000
  C   C222      1.0  0.07637284328523103  0.7670312934566141  0.45489527941649843  1.0000
  C   C223      1.0  0.0373696914285504  0.7212255231523835  0.3961165167900069  1.0000
  C   C224      1.0  0.04230722322165725  0.7219599448558373  0.5313673301046675  1.0000
  H   H325      1.0  0.9921817799927906  0.7649606974898499  0.472548001667662  1.0000
  H   H326      1.0  0.01726722553961535  0.7983401773022839  0.4147397260001282  1.0000
  H   H327      1.0  0.021324075252033836  0.7992783295868393  0.5153075202318396  1.0000
  H   H328      1.0  0.09663959463021332  0.744084124726473  0.454546015979006  1.0000
  H   H329      1.0  0.07847133143691172  0.7855032330887997  0.40230649340406877  1.0000
  H   H330      1.0  0.08126542056483131  0.787781111740575  0.5028924566031678  1.0000
  H   H331      1.0  0.012571437811966572  0.7059888403972447  0.3998285715389487  1.0000
  H   H332      1.0  0.056193637900875046  0.6965822090156831  0.39196914991164  1.0000
  H   H333      1.0  0.03815539156741666  0.7391413489001433  0.34271399010750425  1.0000
  H   H334      1.0  0.06168331691174962  0.6978647498341141  0.530190193378733  1.0000
  H   H335      1.0  0.01789256666011663  0.7061321546286855  0.5383498447173953  1.0000
  H   H336      1.0  0.04670641945339171  0.7405824497211058  0.5823979876237593  1.0000
  N   N21       1.0  0.2391305863254091  0.6848243031031265  0.8234004089262813  1.0000
  C   C225      1.0  0.24468471759979812  0.6405530350420905  0.8320292180758907  1.0000
  C   C226      1.0  0.27150918526053663  0.7062957644045991  0.8191756286071362  1.0000
  C   C227      1.0  0.2199538633503983  0.6998018629853943  0.8886907987751037  1.0000
  C   C228      1.0  0.22034550196631983  0.6926141278464347  0.753674718753879  1.0000
  H   H337      1.0  0.22072880802995284  0.6235425745968557  0.8376677882725646  1.0000
  H   H338      1.0  0.25952889463951384  0.6334059485158926  0.8829012471002269  1.0000
  H   H339      1.0  0.25819337098372147  0.6279839320789745  0.7825935251969489  1.0000
  H   H340      1.0  0.2866159388954263  0.7006923599936365  0.8702805344473175  1.0000
  H   H341      1.0  0.2864253791200875  0.6962688894286625  0.7697298725387215  1.0000
  H   H342      1.0  0.26829017363164037  0.7398363029642685  0.8135667307835118  1.0000
  H   H343      1.0  0.23335816100266002  0.6943735115842021  0.9422794457547672  1.0000
  H   H344      1.0  0.19543078167994513  0.6840660469035597  0.8936033250672016  1.0000
  H   H345      1.0  0.21506641410563337  0.7330704099972516  0.8836851950806379  1.0000
  H   H346      1.0  0.19677051402336443  0.674806106137385  0.7530659437158712  1.0000
  H   H347      1.0  0.23483341834408183  0.6838464902273225  0.7027891984591746  1.0000
  H   H348      1.0  0.21367488034559692  0.7253353496628282  0.7476993072540112  1.0000
  N   N22       1.0  0.5609502292586722  0.7158373310498101  0.8856294252213662  1.0000
  C   C229      1.0  0.5793886773672848  0.678305401671639  0.8675418301409346  1.0000
  C   C230      1.0  0.5341088128490319  0.7058688395671529  0.9401379372429025  1.0000
  C   C231      1.0  0.5464179375862888  0.733022138612376  0.8162880791279324  1.0000
  C   C232      1.0  0.583839032982705  0.7461411280888145  0.9186633903351322  1.0000
  H   H349      1.0  0.5905284105490907  0.6645702395465969  0.9190460140359862  1.0000
  H   H350      1.0  0.6000586148303932  0.6845523927935869  0.8270399655522479  1.0000
  H   H351      1.0  0.5627954570215947  0.6548528942890441  0.8422906709466984  1.0000
  H   H352      1.0  0.5157746694516768  0.684098462972383  0.9161373022344051  1.0000
  H   H353      1.0  0.5441986153865573  0.6917173292536458  0.9922433261838546  1.0000
  H   H354      1.0  0.5201482390092373  0.7335782620910524  0.9567221001108674  1.0000
  H   H355      1.0  0.5335362079132723  0.7622696189218113  0.8276953399963659  1.0000
  H   H356      1.0  0.5277414348605977  0.711920761036708  0.7918115581520441  1.0000
  H   H357      1.0  0.5657777628957923  0.7392465650579502  0.7726232983792783  1.0000
  H   H358      1.0  0.5704346064575826  0.7742384466176304  0.9357750791255645  1.0000
  H   H359      1.0  0.6038505187808694  0.7552888320735267  0.8783001338210573  1.0000
  H   H360      1.0  0.5961949170769758  0.7337787390040139  0.9695959219120466  1.0000
  N   N23       1.0  0.5948603169065669  0.06816309401775186  0.9274058992388775  1.0000
  C   C233      1.0  0.6166580782839846  0.08751489980627206  0.9836519361672604  1.0000
  C   C234      1.0  0.6050293236827695  0.025413127878925797  0.9160620741315106  1.0000
  C   C235      1.0  0.5975468456226135  0.09079563698917278  0.8553593259665229  1.0000
  C   C236      1.0  0.5600365145838531  0.06896450564158317  0.954318095182969  1.0000
  H   H361      1.0  0.6155769948841492  0.07101442989908745  0.03858700088825251  1.0000
  H   H362      1.0  0.6094953238389678  0.1197706005147952  0.9938847318373359  1.0000
  H   H363      1.0  0.6431253430881664  0.08767324643857992  0.964855966524512  1.0000
  H   H364      1.0  0.5887888613966309  0.009900684171219698  0.8743653793889588  1.0000
  H   H365      1.0  0.6311775012988318  0.023519634225970473  0.8955622375983521  1.0000
  H   H366      1.0  0.6034263567794047  0.0074306557716739005  0.9693569702129888  1.0000
  H   H367      1.0  0.5811827332871344  0.07712953198381496  0.8118102143073158  1.0000
  H   H368      1.0  0.6234512932905523  0.09071963219703301  0.8329952798091655  1.0000
  H   H369      1.0  0.5901148772780758  0.12322886909382368  0.8620589919674426  1.0000
  H   H370      1.0  0.5430197025296156  0.054131338563085406  0.9135517892608123  1.0000
  H   H371      1.0  0.5513752709797436  0.10073057651723849  0.962431829369393  1.0000
  H   H372      1.0  0.5570683011555502  0.05240128078521944  0.008599347092567378  1.0000
  N   N24       1.0  0.593178800902229  0.4230984339147552  0.9344219495613496  1.0000
  C   C237      1.0  0.589884646699714  0.42589681137861884  0.017084796647513834  1.0000
  C   C238      1.0  0.5637663784965822  0.44149536137486545  0.898609210458042  1.0000
  C   C239      1.0  0.5956603088859962  0.37978630931028196  0.9127892173062424  1.0000
  C   C240      1.0  0.6234183880458743  0.445281846583859  0.9091729722813292  1.0000
  H   H373      1.0  0.6115154512616813  0.4119193263193585  0.0458801078528106  1.0000
  H   H374      1.0  0.56705283414811  0.40998427643014546  0.03791260070980185  1.0000
  H   H375      1.0  0.5887496943113  0.45820971094884333  0.03564468521867581  1.0000
  H   H376      1.0  0.5609633055220276  0.4740963083608372  0.9140827612871678  1.0000
  H   H377      1.0  0.5655131520408498  0.44004161812623205  0.8361262650399487  1.0000
  H   H378      1.0  0.5404731476483084  0.4251334429500042  0.9153361772424342  1.0000
  H   H379      1.0  0.6174281884199934  0.3647634894478894  0.9392310018242384  1.0000
  H   H380      1.0  0.5981922201966088  0.37647353243224013  0.8507142328319854  1.0000
  H   H381      1.0  0.5730159327292992  0.36220095164443866  0.9300124933468079  1.0000
  H   H382      1.0  0.6265156386309864  0.44408254423150156  0.846973274346738  1.0000
  H   H383      1.0  0.6461266972152128  0.43222729303062607  0.9349163241649945  1.0000
  H   H384      1.0  0.6225814371450331  0.47795537304953073  0.9256148799311005  1.0000
