data_image0
_chemical_formula_structural       FeS2FeS2FeSFeS3FeS2FeS2FeSFeS3FeS2FeS2FeSFeS3FeS2FeS2FeSFeS3FeS2FeS2FeSFeS3FeS2FeS2FeSFeS3FeS2FeS2FeSFeS3FeS2FeS2FeSFeS3FeS2FeS2FeSFeS3FeS2FeS2FeSFeS3FeS2FeS2FeSFeS3FeS2FeS2FeSFeS3FeS2FeS2FeSFeS3FeS2FeS2FeSFeS3FeS2FeS2FeSFeS3FeS2FeS2FeSFeS3FeS2FeS2FeSFeS3FeS2FeS2FeSFeS3FeS2FeS2FeSFeS3FeS2FeS2FeSFeS3FeS2FeS2FeSFeS3FeS2FeS2FeSFeS3FeS2FeS2FeSFeS3FeS2FeS2FeSFeS3C6H4C6H4C6H4C6H4C6H4C6H4C6H4C6H4C6H4C6H4C6H4C6H4C6H4C6H4C6H4C6H4C6H4C6H4C6H4C6H4C6H4C6H4C6H4C6H4C6H4C6H4C6H4C6H4C6H4C6H4C6H4C6H4C6H4C6H4C6H4C6H4C6H4C6H4C6H4C6H4C6H4C6H4C6H4C6H4C6H4C6H4C6H4C6H4NC4H12NC4H12NC4H12NC4H12NC4H12NC4H12NC4H12NC4H12NC4H12NC4H12NC4H12NC4H12NC4H12NC4H12NC4H12NC4H12NC4H12NC4H12NC4H12NC4H12NC4H12NC4H12NC4H12NC4H12NC4H12NC4H12NC4H12NC4H12NC4H12NC4H12NC4H12NC4H12NC4H12NC4H12NC4H12NC4H12NC4H12NC4H12NC4H12NC4H12NC4H12NC4H12NC4H12NC4H12NC4H12NC4H12NC4H12NC4H12
_chemical_formula_sum              "Fe96 S192 C480 H768 N48"
_cell_length_a       57.12958470900483
_cell_length_b       28.961121106888932
_cell_length_c       30.74217258427391
_cell_angle_alpha    89.81818288280466
_cell_angle_beta     88.33373445755856
_cell_angle_gamma    91.05093038596891

_space_group_name_H-M_alt    "P 1"
_space_group_IT_number       1

loop_
  _space_group_symop_operation_xyz
  'x, y, z'

loop_
  _atom_site_type_symbol
  _atom_site_label
  _atom_site_symmetry_multiplicity
  _atom_site_fract_x
  _atom_site_fract_y
  _atom_site_fract_z
  _atom_site_occupancy
  Fe  Fe1       1.0  0.7139960569576733  0.07677318238731545  0.7197699149638982  1.0000
  S   S1        1.0  0.7343647690555543  0.01884916351635102  0.6897001598361703  1.0000
  S   S2        1.0  0.6756035855553958  0.08865913109505175  0.7126174491183334  1.0000
  Fe  Fe2       1.0  0.7559857588425456  0.1179851062495445  0.7642142855031674  1.0000
  S   S3        1.0  0.7801559249152857  0.06332482596075129  0.739882794221684  1.0000
  S   S4        1.0  0.7690179505340045  0.17659266159036702  0.8043635767388931  1.0000
  Fe  Fe3       1.0  0.7621868366868024  0.07352750649403972  0.6767228551376198  1.0000
  S   S5        1.0  0.785274112051474  0.08350061810153675  0.6171441098624644  1.0000
  Fe  Fe4       1.0  0.7503374052555064  0.014073956440933566  0.755383916006208  1.0000
  S   S6        1.0  0.7528317240180264  0.9482221365596684  0.7934153111244117  1.0000
  S   S7        1.0  0.7402317475211582  0.13210122306073369  0.7001463010151162  1.0000
  S   S8        1.0  0.7280273361217241  0.06802854790415225  0.7864092389856955  1.0000
  Fe  Fe5       1.0  0.8187762204420296  0.6360088636667852  0.7540248582340641  1.0000
  S   S9        1.0  0.8194037179748923  0.6295491847931094  0.8265521590529447  1.0000
  S   S10       1.0  0.8222042060061182  0.5771049984249658  0.7076242024607743  1.0000
  Fe  Fe6       1.0  0.8209533541684076  0.740660778214154  0.7552615008138667  1.0000
  S   S11       1.0  0.8218883079504276  0.7439047832279041  0.8278932710475319  1.0000
  S   S12       1.0  0.8228590474059774  0.8040222843470621  0.713355402153752  1.0000
  Fe  Fe7       1.0  0.8470199584028585  0.6857735597164915  0.8215610219074984  1.0000
  S   S13       1.0  0.8825901797700363  0.6894771607952931  0.8502964653263747  1.0000
  Fe  Fe8       1.0  0.7940342950462947  0.6881227958766225  0.8258677559934269  1.0000
  S   S14       1.0  0.7609268406758188  0.6928609010730726  0.8670884860134007  1.0000
  S   S15       1.0  0.8483450173471868  0.6870519152278203  0.7489081454191994  1.0000
  S   S16       1.0  0.7911014033791613  0.6900251339419713  0.7532396543473759  1.0000
  Fe  Fe9       1.0  0.7563901527788323  0.17463288893298048  0.40078665243242445  1.0000
  S   S17       1.0  0.7764076731848071  0.11462429605021773  0.3746417423798168  1.0000
  S   S18       1.0  0.7318725067606696  0.1655871077936824  0.4585950631808433  1.0000
  Fe  Fe10      1.0  0.7738346802974045  0.23884581590488116  0.328722714065636  1.0000
  S   S19       1.0  0.7953870639398157  0.18458416783724846  0.29584396644107597  1.0000
  S   S20       1.0  0.7729524555398274  0.31097289573465  0.30275984289147856  1.0000
  Fe  Fe11      1.0  0.764338814863197  0.13827735074950406  0.30981852879883176  1.0000
  S   S21       1.0  0.7513081207627993  0.08562312286434869  0.2626410646841477  1.0000
  Fe  Fe12      1.0  0.8056170729803303  0.16634995672802053  0.3635545525633012  1.0000
  S   S22       1.0  0.8428069409802655  0.14728098374110815  0.37469443130674057  1.0000
  S   S23       1.0  0.7416347379818389  0.19420732240945524  0.3368425593335306  1.0000
  S   S24       1.0  0.7866995982666785  0.22490362340413272  0.39559515510389925  1.0000
  Fe  Fe13      1.0  0.7364034753172396  0.5465139176106206  0.5396874693056056  1.0000
  S   S25       1.0  0.7624668962815763  0.593245188757149  0.5051183321085786  1.0000
  S   S26       1.0  0.7272516171032348  0.5613835880276721  0.6093608947884533  1.0000
  Fe  Fe14      1.0  0.7297441032831562  0.48581333027447676  0.4610184717269109  1.0000
  S   S27       1.0  0.755540767639848  0.5270642905902492  0.41981780243878153  1.0000
  S   S28       1.0  0.7103933933609958  0.4243895862641569  0.4346684348458666  1.0000
  Fe  Fe15      1.0  0.777245717386635  0.5272926398283665  0.47927088580629335  1.0000
  S   S29       1.0  0.8153264735370437  0.5106810961690669  0.4806750980688058  1.0000
  Fe  Fe16      1.0  0.7379468797430749  0.5883616641874403  0.4494718098824653  1.0000
  S   S30       1.0  0.730650950231976  0.6488142901781586  0.40605396190625215  1.0000
  S   S31       1.0  0.752864298887208  0.4805915036811335  0.5180819592455406  1.0000
  S   S32       1.0  0.7103945051432177  0.5470966924446206  0.4866860733107874  1.0000
  Fe  Fe17      1.0  0.6166848177579854  0.18960441831730307  0.9036225733982295  1.0000
  S   S33       1.0  0.5787568876367942  0.1826969779831134  0.8882418904358322  1.0000
  S   S34       1.0  0.6400844575536508  0.12843328037047308  0.9031550691071347  1.0000
  Fe  Fe18      1.0  0.6143271105972589  0.292435674189725  0.9202410954993189  1.0000
  S   S35       1.0  0.5760139401266234  0.2949229101288194  0.9069151729916796  1.0000
  S   S36       1.0  0.636797174906437  0.35542459393057196  0.9305497409430294  1.0000
  Fe  Fe19      1.0  0.5733969623626206  0.22918089513326248  0.9456267239651952  1.0000
  S   S37       1.0  0.5450635932274464  0.21625716207306567  0.9963282671024355  1.0000
  Fe  Fe20      1.0  0.5850178311124901  0.2486353961623981  0.8509776791980108  1.0000
  S   S38       1.0  0.572324273240783  0.2588588037715029  0.7835666909169752  1.0000
  S   S39       1.0  0.6110208203665566  0.23086097638179823  0.9643990697757584  1.0000
  S   S40       1.0  0.6235967218112519  0.25134881721192665  0.8610034704953979  1.0000
  Fe  Fe21      1.0  0.6369116914344723  0.12957576639870316  0.18544143983048458  1.0000
  S   S41       1.0  0.6310644022560375  0.1242157850931167  0.25755083456321587  1.0000
  S   S42       1.0  0.6686870054573015  0.1654387874233314  0.15638131469958783  1.0000
  Fe  Fe22      1.0  0.5930792482146809  0.0752239584082599  0.16570579060857887  1.0000
  S   S43       1.0  0.5831141139315272  0.06375660976969444  0.23605896588565364  1.0000
  S   S44       1.0  0.5751174496640508  0.04536170896673841  0.10788053308048995  1.0000
  Fe  Fe23      1.0  0.5936437405484053  0.13833120236659435  0.24340407699664807  1.0000
  S   S45       1.0  0.5738280937175765  0.1867878094688693  0.2866838382368137  1.0000
  Fe  Fe24      1.0  0.6212742592316466  0.05057416196336817  0.24463561398082012  1.0000
  S   S46       1.0  0.6328287363493573  0.9947241598146215  0.2897938680364557  1.0000
  S   S47       1.0  0.6004317645497456  0.15122615890894392  0.17226855553654372  1.0000
  S   S48       1.0  0.6302589797977435  0.05453022866717139  0.17337595323443927  1.0000
  Fe  Fe25      1.0  0.5995016513964743  0.5801176646446361  0.8479734525953007  1.0000
  S   S49       1.0  0.5885307043269278  0.653599603850106  0.8409103055483016  1.0000
  S   S50       1.0  0.5765019564555417  0.5271564891964277  0.8816655502774773  1.0000
  Fe  Fe26      1.0  0.6470255783321331  0.5976822444451081  0.8046504132830062  1.0000
  S   S51       1.0  0.6405262312065314  0.6726360587859673  0.793903160740916  1.0000
  S   S52       1.0  0.6817414676196986  0.5688781119405075  0.7855999162772123  1.0000
  Fe  Fe27      1.0  0.6249599639004617  0.6709178158650206  0.8615744748946145  1.0000
  S   S53       1.0  0.6343828995812992  0.7238001795112115  0.9116098506771714  1.0000
  Fe  Fe28      1.0  0.6050663065110308  0.6475608725652819  0.7740868316287391  1.0000
  S   S54       1.0  0.5900825420486728  0.6760764192188353  0.7136005842536804  1.0000
  S   S55       1.0  0.634653159352063  0.597743998453961  0.8738530481621894  1.0000
  S   S56       1.0  0.6127719539322447  0.572214765370398  0.7792970317820034  1.0000
  Fe  Fe29      1.0  0.6331183217313314  0.6788416381031842  0.24945996033284873  1.0000
  S   S57       1.0  0.6056239848026082  0.6543621618604012  0.2044068426473742  1.0000
  S   S58       1.0  0.6344546435326338  0.6362527150232629  0.310357581003333  1.0000
  Fe  Fe30      1.0  0.6457574477198817  0.7618199724211969  0.19348794277359496  1.0000
  S   S59       1.0  0.6188559063719546  0.744817797035073  0.14393620306795823  1.0000
  S   S60       1.0  0.6677434872317821  0.8254934365103412  0.17966821836787364  1.0000
  Fe  Fe31      1.0  0.5953400115136434  0.7282981793445701  0.20145460013729102  1.0000
  S   S61       1.0  0.5583325308644945  0.7530208280413023  0.2073154105267039  1.0000
  Fe  Fe32      1.0  0.6315844968714763  0.6725652657687217  0.15100398910722945  1.0000
  S   S62       1.0  0.6338101698555454  0.6239897340248772  0.09428698526482826  1.0000
  S   S63       1.0  0.6208758627603144  0.7518910196146649  0.25072884537713536  1.0000
  S   S64       1.0  0.6604641429161071  0.6902831421291497  0.1962314325912889  1.0000
  Fe  Fe33      1.0  0.4539511890836959  0.17225098766638225  0.7510888737195508  1.0000
  S   S65       1.0  0.4815764008203429  0.11911081403470969  0.7416580917874143  1.0000
  S   S66       1.0  0.4624698908190329  0.2395628156345584  0.7829910879732476  1.0000
  Fe  Fe34      1.0  0.4158127801796115  0.11017783139098825  0.7164703175901506  1.0000
  S   S67       1.0  0.4398853023208094  0.05076271465484394  0.7054580604054129  1.0000
  S   S68       1.0  0.37865148094913526  0.10424309504029261  0.6951175672920249  1.0000
  Fe  Fe35      1.0  0.45447056030969535  0.07016614881533734  0.7699350273814434  1.0000
  S   S69       1.0  0.4681888836763456  0.026176084044665426  0.8232048669196108  1.0000
  Fe  Fe36      1.0  0.46472264819515424  0.10482924187094067  0.6783992952118135  1.0000
  S   S70       1.0  0.4840506096791812  0.08717548842786703  0.6164393024844118  1.0000
  S   S71       1.0  0.42782036722187644  0.1243663108442612  0.7840819844618625  1.0000
  S   S72       1.0  0.4396052116240744  0.1632022276461542  0.6846976518786472  1.0000
  Fe  Fe37      1.0  0.46081568255943783  0.7806000090757713  0.6450098620777204  1.0000
  S   S73       1.0  0.4441190067494448  0.7108476272564328  0.6353540262565528  1.0000
  S   S74       1.0  0.4747394511003254  0.8203037657578273  0.5868510842689949  1.0000
  Fe  Fe38      1.0  0.4516150010087528  0.7790419634011124  0.7424159203651767  1.0000
  S   S75       1.0  0.4335391819935718  0.7097327854751139  0.7410909911003571  1.0000
  S   S76       1.0  0.4604802916888961  0.8093566674795957  0.8069783238646998  1.0000
  Fe  Fe39      1.0  0.4630704723342883  0.6907271447029709  0.6952065441529227  1.0000
  S   S77       1.0  0.48247000534041473  0.6250387700483429  0.7066947847026486  1.0000
  Fe  Fe40      1.0  0.41624940440413194  0.7366097293081517  0.6817582013681275  1.0000
  S   S78       1.0  0.3778910427497984  0.7333018549973225  0.666303106189756  1.0000
  S   S79       1.0  0.48231100409338656  0.7584201782144581  0.7006051492875228  1.0000
  S   S80       1.0  0.43178427820880494  0.8081956553783316  0.6871874166925507  1.0000
  Fe  Fe41      1.0  0.4488873738829532  0.17720283389810784  0.35164873041694306  1.0000
  S   S81       1.0  0.4609657725631327  0.24938373804709732  0.3665859877413534  1.0000
  S   S82       1.0  0.46674835724916053  0.1322077167803958  0.3023519623473188  1.0000
  Fe  Fe42      1.0  0.4067257060958183  0.18169151864377697  0.41236593705138797  1.0000
  S   S83       1.0  0.41457515370330844  0.2545940089250475  0.4323312087251417  1.0000
  S   S84       1.0  0.3781313017113787  0.13790227086397447  0.4438634322210355  1.0000
  Fe  Fe43      1.0  0.4231946320880095  0.26686678978389067  0.36145075460457543  1.0000
  S   S85       1.0  0.4176547131069048  0.33128936630381167  0.3223990309913222  1.0000
  Fe  Fe44      1.0  0.45156556913698903  0.23112468054613505  0.43563584156391666  1.0000
  S   S86       1.0  0.4719876480333622  0.2569965255303659  0.492024591634298  1.0000
  S   S87       1.0  0.4116516140240708  0.19592714312094853  0.3408635937582374  1.0000
  S   S88       1.0  0.4431120798760906  0.15695851797107757  0.42136735123198044  1.0000
  Fe  Fe45      1.0  0.4867726407995692  0.6358692151234864  0.431643284400021  1.0000
  S   S89       1.0  0.477815803708543  0.676705080636397  0.3728664303491138  1.0000
  S   S90       1.0  0.5159717845014217  0.6581446394489742  0.47403250901575245  1.0000
  Fe  Fe46      1.0  0.44852557703326323  0.5638845884388927  0.41797259676020615  1.0000
  S   S91       1.0  0.43643808042771115  0.5978311029209676  0.3572778688574875  1.0000
  S   S92       1.0  0.43008599178654505  0.5015329240916612  0.44726090275035796  1.0000
  Fe  Fe47      1.0  0.4747317514203197  0.6075412916197491  0.34093347220985165  1.0000
  S   S93       1.0  0.4916707846584599  0.5909974564510696  0.276281982158899  1.0000
  Fe  Fe48      1.0  0.4405754335971274  0.6633543188542081  0.39511334163527273  1.0000
  S   S94       1.0  0.41327459520186355  0.7178545482505181  0.39372663278406705  1.0000
  S   S95       1.0  0.4865885408980739  0.5671867350040006  0.39843755963691924  1.0000
  S   S96       1.0  0.4498552137238604  0.6288677554248254  0.45731618730619766  1.0000
  Fe  Fe49      1.0  0.2781038807023437  0.2244792771144718  0.7941526371914468  1.0000
  S   S97       1.0  0.2571098381122688  0.22058025769850767  0.7340593296710269  1.0000
  S   S98       1.0  0.31484621903037985  0.2525690147865506  0.7875805511391464  1.0000
  Fe  Fe50      1.0  0.2375769444241402  0.1915804756656665  0.8525161945177352  1.0000
  S   S99       1.0  0.21318352266996674  0.1839867756415931  0.7970803857449498  1.0000
  S   S100      1.0  0.22317447864330556  0.18246417972705536  0.9206681968438754  1.0000
  Fe  Fe51      1.0  0.24388780136221333  0.1531456384865181  0.7618988657670115  1.0000
  S   S101      1.0  0.2406974827289987  0.09199200456473731  0.7178303486362306  1.0000
  Fe  Fe52      1.0  0.22856545009936022  0.25179579322550855  0.7749605859579735  1.0000
  S   S102      1.0  0.20638732798828285  0.3079765153812365  0.7490724285734706  1.0000
  S   S103      1.0  0.26719808969740944  0.15426204164299356  0.819491512571721  1.0000
  S   S104      1.0  0.2507835749289062  0.2620767318547249  0.8328375825674602  1.0000
  Fe  Fe53      1.0  0.27639132483198076  0.5923255641183053  0.7682125049679944  1.0000
  S   S105      1.0  0.2529100903240603  0.53411942885809  0.7477020569493465  1.0000
  S   S106      1.0  0.31490321986568864  0.5784370265627978  0.7592594634165515  1.0000
  Fe  Fe54      1.0  0.23517007998685852  0.6492316147428543  0.8005868769318486  1.0000
  S   S107      1.0  0.20839639702044366  0.5956260016936955  0.7823561015956112  1.0000
  S   S108      1.0  0.22554785628804458  0.7130773928736482  0.8379913662841123  1.0000
  Fe  Fe55      1.0  0.23326632939548875  0.5457871886330633  0.8105664427907611  1.0000
  S   S109      1.0  0.22181296754831017  0.4895957614514394  0.8572201192094256  1.0000
  Fe  Fe56      1.0  0.23048493458971508  0.5895709464208504  0.7213476958157106  1.0000
  S   S110      1.0  0.21557266812518386  0.5787183972564853  0.6554352893061643  1.0000
  S   S111      1.0  0.25852896316810914  0.5994371582593478  0.8336545694271265  1.0000
  S   S112      1.0  0.2555122114888583  0.6475327117528514  0.7368396913138497  1.0000
  Fe  Fe57      1.0  0.21814228725988463  0.0980098229431201  0.40680558753105617  1.0000
  S   S113      1.0  0.21327660129322415  0.06042171477863678  0.47045937227532336  1.0000
  S   S114      1.0  0.19688617534649358  0.0734336652759473  0.351143124978121  1.0000
  Fe  Fe58      1.0  0.2525971041262968  0.16755377421936268  0.44221587234450915  1.0000
  S   S115      1.0  0.2500332908045993  0.13737295261367666  0.5091837601123661  1.0000
  S   S116      1.0  0.2785529531774804  0.2244875489158802  0.4268011415671992  1.0000
  Fe  Fe59      1.0  0.2521602569499712  0.06959925982185333  0.475002752938999  1.0000
  S   S117      1.0  0.2767280341627877  0.017609189526333724  0.5013435263349663  1.0000
  Fe  Fe60      1.0  0.21167838282461726  0.13157160960439107  0.49819591101891686  1.0000
  S   S118      1.0  0.18643530708482597  0.14985734836360165  0.5517372068490366  1.0000
  S   S119      1.0  0.25730511344588486  0.09990434119584224  0.40829445946776  1.0000
  S   S120      1.0  0.21372864359281069  0.169026754638994  0.43448538585727353  1.0000
  Fe  Fe61      1.0  0.27308646514914653  0.7803449013453474  0.4105671992319595  1.0000
  S   S121      1.0  0.28231090892927957  0.7102188015175052  0.38507283471928266  1.0000
  S   S122      1.0  0.2844130022690186  0.8460614549785527  0.3766498660927242  1.0000
  Fe  Fe62      1.0  0.2440847422782837  0.7418965379410138  0.4863507821515298  1.0000
  S   S123      1.0  0.2509012298857014  0.6685288698790083  0.4678727604112839  1.0000
  S   S124      1.0  0.22309803394775338  0.7614992567581768  0.5460979356371767  1.0000
  Fe  Fe63      1.0  0.28777222564976374  0.6930507216518219  0.4551396405530875  1.0000
  S   S125      1.0  0.3170228249122561  0.6498097062552124  0.47908023335405725  1.0000
  Fe  Fe64      1.0  0.24453937640545545  0.6921974418846644  0.39994723379640756  1.0000
  S   S126      1.0  0.22467169915771407  0.6436169424050353  0.35677324597433224  1.0000
  S   S127      1.0  0.2817130529096908  0.7647595527162864  0.47967391171188867  1.0000
  S   S128      1.0  0.23472002898142455  0.7641245120404595  0.41944768996376147  1.0000
  Fe  Fe65      1.0  0.10635615952618356  0.07902611468055953  0.9519984739322548  1.0000
  S   S129      1.0  0.07024466607235791  0.051821968845529476  0.939888924023704  1.0000
  S   S130      1.0  0.13576706970402924  0.04781518267161888  0.9135708497169052  1.0000
  Fe  Fe66      1.0  0.09008471968351839  0.1457053673225206  0.02083419545022136  1.0000
  S   S131      1.0  0.052593498186299215  0.12457753703813945  0.014636292588225519  1.0000
  S   S132      1.0  0.09686247922008695  0.19932698900541546  0.07136735373944769  1.0000
  Fe  Fe67      1.0  0.06602115687920596  0.05261354744458613  0.012462447727812354  1.0000
  S   S133      1.0  0.04699265486996285  0.9940545695172183  0.046791031116278026  1.0000
  Fe  Fe68      1.0  0.06031824095444849  0.12611652427764808  0.9430623915516235  1.0000
  S   S134      1.0  0.03319875112420978  0.15796064111740837  0.9019056169054465  1.0000
  S   S135      1.0  0.10320802873835892  0.0734472956227239  0.024596563432975227  1.0000
  S   S136      1.0  0.09694539629418863  0.15401665264724956  0.9489308568987596  1.0000
  Fe  Fe69      1.0  0.09171774912491791  0.21646250784897272  0.327068707149062  1.0000
  S   S137      1.0  0.07749882083485504  0.2300716367918102  0.39428985431961533  1.0000
  S   S138      1.0  0.12893794933763  0.23491176790197793  0.3079965381190785  1.0000
  Fe  Fe70      1.0  0.045293889682579414  0.1828843095096167  0.2941483023918592  1.0000
  S   S139      1.0  0.026334548214815845  0.1932350060151609  0.35834648959975696  1.0000
  S   S140      1.0  0.030342984845186383  0.15195696214075935  0.23379950397106802  1.0000
  Fe  Fe71      1.0  0.04693399610654003  0.25983052706661186  0.36080643328362916  1.0000
  S   S141      1.0  0.0296341881933202  0.32539275628158887  0.38171810305772597  1.0000
  Fe  Fe72      1.0  0.058258720393950636  0.1628206915326019  0.3870773806228841  1.0000
  S   S142      1.0  0.0566361970508269  0.11675440047128481  0.4457008321921962  1.0000
  S   S143      1.0  0.06290871759057581  0.2525787807004553  0.2938921170827345  1.0000
  S   S144      1.0  0.07531922135330937  0.1458648184514656  0.32280653947738563  1.0000
  Fe  Fe73      1.0  0.12706508326677074  0.6725605018931868  0.03190261935618843  1.0000
  S   S145      1.0  0.13922763254340484  0.7387094526816783  0.0008599027157485395  1.0000
  S   S146      1.0  0.15282875485648614  0.6265580106079927  0.06257714030378247  1.0000
  Fe  Fe74      1.0  0.07593459734058672  0.6919750015901134  0.019788085446865278  1.0000
  S   S147      1.0  0.08346973167962335  0.7605607221755463  0.9876075832630293  1.0000
  S   S148      1.0  0.03874271048599587  0.6677353228956111  0.03092543291854377  1.0000
  Fe  Fe75      1.0  0.1119610562101975  0.7230315937363976  0.9518686605160032  1.0000
  S   S149      1.0  0.1172539632351528  0.7291404424580239  0.8796582547669733  1.0000
  Fe  Fe76      1.0  0.10982143289585519  0.7698278607706909  0.03971201520693457  1.0000
  S   S150      1.0  0.11870173360719603  0.8344385878420317  0.07602384483783009  1.0000
  S   S151      1.0  0.10235906373812807  0.6533318192321051  0.9794776163659068  1.0000
  S   S152      1.0  0.09971872147262273  0.7046049223261412  0.07514761475086162  1.0000
  Fe  Fe77      1.0  0.10020070683099869  0.6306480608031118  0.30897988577212404  1.0000
  S   S153      1.0  0.0719551569338157  0.6213956217486255  0.2605246467688288  1.0000
  S   S154      1.0  0.12170159046450728  0.6959797465408948  0.31180343723765175  1.0000
  Fe  Fe78      1.0  0.09095780819794874  0.53814390758561  0.3512692700809277  1.0000
  S   S155      1.0  0.06191195225717472  0.5200233308218402  0.30678122159423027  1.0000
  S   S156      1.0  0.10324217007026706  0.48792968429993094  0.4006082494337757  1.0000
  Fe  Fe79      1.0  0.08542100340387003  0.5495475151803698  0.2543914440931589  1.0000
  S   S157      1.0  0.08598989259495558  0.5127837529392196  0.19061401048342724  1.0000
  Fe  Fe80      1.0  0.05076164032676833  0.5928550511812755  0.3171725013476282  1.0000
  S   S158      1.0  0.012114553136878925  0.603555945057913  0.3240098086341925  1.0000
  S   S159      1.0  0.11579641745865644  0.5610585273491728  0.29762659675254477  1.0000
  S   S160      1.0  0.07781241313515341  0.6085186386508984  0.36685289751146705  1.0000
  Fe  Fe81      1.0  0.8908170054736626  0.03464969006649965  0.8705595957173528  1.0000
  S   S161      1.0  0.884148659248861  0.03307148957785277  0.9425783694717155  1.0000
  S   S162      1.0  0.8978888948434096  0.9723351939959615  0.8296183166446127  1.0000
  Fe  Fe82      1.0  0.8883269066830503  0.13896943302352244  0.8645924305253622  1.0000
  S   S163      1.0  0.8815077665332269  0.14775331868599015  0.9364630890524719  1.0000
  S   S164      1.0  0.8896308583504731  0.19461038459200455  0.813461063042047  1.0000
  Fe  Fe83      1.0  0.9089787735487743  0.09386910439690133  0.94336667181336  1.0000
  S   S165      1.0  0.9375232325778584  0.09392354093724364  0.9917627873389275  1.0000
  Fe  Fe84      1.0  0.8573381029306744  0.08643115726377835  0.929623823241243  1.0000
  S   S166      1.0  0.820607106052522  0.08031744518003303  0.9565901258947048  1.0000
  S   S167      1.0  0.9181218661564966  0.09076603613154853  0.8721474828277829  1.0000
  S   S168      1.0  0.8616727269460206  0.08240551474313773  0.857014402485435  1.0000
  Fe  Fe85      1.0  0.9483804267134386  0.4699022862385187  0.8887983598711358  1.0000
  S   S169      1.0  0.9575218433683741  0.44707975071190176  0.8208494675747791  1.0000
  S   S170      1.0  0.911304836420153  0.4886998054352822  0.9057115153672676  1.0000
  Fe  Fe86      1.0  0.9976746056988415  0.4574483734551658  0.920849845982933  1.0000
  S   S171      1.0  0.011146456130401328  0.4342218431629625  0.8556385119864606  1.0000
  S   S172      1.0  0.023911296830482875  0.46072848494216345  0.9739215979381115  1.0000
  Fe  Fe87      1.0  0.989762737492588  0.49121006116452015  0.8291189760861907  1.0000
  S   S173      1.0  0.003917695677956079  0.5450417768986728  0.7824726936487681  1.0000
  Fe  Fe88      1.0  0.9778446892860443  0.3920850844111198  0.8539469755958107  1.0000
  S   S174      1.0  0.9804907298360371  0.3170328222090423  0.8361821208649779  1.0000
  S   S175      1.0  0.9791038587089071  0.518374032118173  0.8946161797879639  1.0000
  S   S176      1.0  0.9659375769439563  0.4108825032810667  0.921574722604033  1.0000
  Fe  Fe89      1.0  0.9008358519024988  0.10390331183542467  0.5709200158302007  1.0000
  S   S177      1.0  0.8996508550123692  0.05810103702007052  0.6295298365643225  1.0000
  S   S178      1.0  0.8758492833600988  0.162243557130185  0.5675763354142008  1.0000
  Fe  Fe90      1.0  0.936569439179457  0.04602104998993628  0.5224823160166878  1.0000
  S   S179      1.0  0.9387039456760219  0.9948438239380251  0.5766247685048055  1.0000
  S   S180      1.0  0.9538310977230671  0.03524259887321812  0.45717412275200564  1.0000
  Fe  Fe91      1.0  0.8997119111215698  0.00036342638673581007  0.5818477817424625  1.0000
  S   S181      1.0  0.8751354761238715  0.9399635082014883  0.5881974393011766  1.0000
  Fe  Fe92      1.0  0.9386088622796825  0.057397336641497265  0.6193056718762379  1.0000
  S   S182      1.0  0.9610937404204717  0.05829334891411997  0.6773517402516185  1.0000
  S   S183      1.0  0.8975275666225758  0.04570180468879004  0.5236507764139325  1.0000
  S   S184      1.0  0.9400211052422534  0.10897126470141094  0.5645143192869366  1.0000
  Fe  Fe93      1.0  0.9579296370108852  0.7042098363105096  0.5263948307608346  1.0000
  S   S185      1.0  0.9655805336311887  0.686644996078325  0.5952517831939504  1.0000
  S   S186      1.0  0.9881120254610881  0.7309619867016733  0.4846785007084427  1.0000
  Fe  Fe94      1.0  0.9058030612496514  0.6873619153791432  0.5399016727947513  1.0000
  S   S187      1.0  0.908360132872393  0.6683624342200223  0.6104031427033532  1.0000
  S   S188      1.0  0.8721588835353964  0.6964188490978496  0.5057819866215488  1.0000
  Fe  Fe95      1.0  0.9340040217028815  0.7276991093181765  0.6126381832002425  1.0000
  S   S189      1.0  0.9353605738011075  0.7815207986171516  0.6644310340820664  1.0000
  Fe  Fe96      1.0  0.9396782320701765  0.6283569749081566  0.5874532817881125  1.0000
  S   S190      1.0  0.9456343055639057  0.5560064452775999  0.6111901993121266  1.0000
  S   S191      1.0  0.928509867916457  0.7506182366055197  0.5443360186927417  1.0000
  S   S192      1.0  0.9348246495976614  0.6419791654926973  0.5162782984775363  1.0000
  C   C1        1.0  0.8903203602490911  0.896051209956923  0.6134450934760238  1.0000
  C   C2        1.0  0.8840988867965206  0.8499108818018104  0.6061418815803555  1.0000
  C   C3        1.0  0.8977773271689052  0.8146440823052922  0.6225988382577319  1.0000
  C   C4        1.0  0.9174842398184742  0.825579252794438  0.6467451414721093  1.0000
  C   C5        1.0  0.9232458647600456  0.871691853513244  0.6554049492856424  1.0000
  C   C6        1.0  0.9096349305805256  0.9069742939895455  0.6387167594001723  1.0000
  H   H1        1.0  0.8691429952653714  0.8414326414887088  0.5866764753900128  1.0000
  H   H2        1.0  0.8931528498117941  0.7789540667994389  0.6162483733149149  1.0000
  H   H3        1.0  0.9384659962858161  0.8802276795616286  0.6741553130484651  1.0000
  H   H4        1.0  0.9141227007658411  0.9426332379492969  0.6454132967129871  1.0000
  C   C7        1.0  0.9875573588341776  0.5475383004016466  0.7351783268187337  1.0000
  C   C8        1.0  0.9772738071393363  0.5076617227461123  0.7178755203345213  1.0000
  C   C9        1.0  0.9645980934401958  0.5103611044461844  0.6794919331697621  1.0000
  C   C10       1.0  0.9616920092548495  0.553070838623752  0.6590035508409863  1.0000
  C   C11       1.0  0.971513439917272  0.5929368196878156  0.6770359742561636  1.0000
  C   C12       1.0  0.9847470880643577  0.5900982397021486  0.7145787381327278  1.0000
  H   H5        1.0  0.9795978224397303  0.4745866155515955  0.733440598565912  1.0000
  H   H6        1.0  0.9570242837686372  0.47934150511514223  0.6657705489753634  1.0000
  H   H7        1.0  0.9689475277562954  0.626090022272494  0.6623606467726062  1.0000
  H   H8        1.0  0.9924964724964778  0.6210756905909891  0.7280537377497815  1.0000
  C   C13       1.0  0.9150036930182937  0.9947568695160188  0.7859899489944008  1.0000
  C   C14       1.0  0.9093495768928778  0.037346176989938584  0.7678059598768044  1.0000
  C   C15       1.0  0.9234712173414343  0.05668979382698969  0.7342338560715829  1.0000
  C   C16       1.0  0.9436450098357428  0.034132382692278584  0.7196244854799448  1.0000
  C   C17       1.0  0.9495065347168565  0.9918694789593752  0.7381569861277932  1.0000
  C   C18       1.0  0.9350498497422833  0.9719371783393476  0.7710680604072818  1.0000
  H   H9        1.0  0.8940212434042033  0.0553639273422899  0.7795169536072359  1.0000
  H   H10       1.0  0.9188835630036015  0.08934226936955159  0.7199356119183259  1.0000
  H   H11       1.0  0.965080217333464  0.9743400182682158  0.7267912999425287  1.0000
  H   H12       1.0  0.9398772413445222  0.9397424655576443  0.7858359797672275  1.0000
  C   C19       1.0  0.9132701159374477  0.23251274728405563  0.822105875733014  1.0000
  C   C20       1.0  0.9269292312224295  0.22686717327832526  0.8586064603082522  1.0000
  C   C21       1.0  0.9468575064974517  0.25488696392454596  0.864067895497767  1.0000
  C   C22       1.0  0.9532030176334121  0.2886805526755935  0.833090802712727  1.0000
  C   C23       1.0  0.9392519419671292  0.29509098730991895  0.7969830991395697  1.0000
  C   C24       1.0  0.919234650518315  0.26703157248052617  0.7915265797886021  1.0000
  H   H13       1.0  0.922183053733387  0.2006189043241542  0.8824708028313526  1.0000
  H   H14       1.0  0.9574529738811188  0.2500128921452327  0.8920879982175973  1.0000
  H   H15       1.0  0.9442517956250918  0.3208206292803975  0.7726850093653086  1.0000
  H   H16       1.0  0.9086744560743422  0.271473038639311  0.7632269947172025  1.0000
  C   C25       1.0  0.00504213631902517  0.6410896091761105  0.36683724133339546  1.0000
  C   C26       1.0  0.022130991709063297  0.6705987685215802  0.3837066715216264  1.0000
  C   C27       1.0  0.01664257586444906  0.6988505662326007  0.4193653728842598  1.0000
  C   C28       1.0  0.9941204710013662  0.6973546277116338  0.4385007162744194  1.0000
  C   C29       1.0  0.9768989231448486  0.6683712944686437  0.4212563905769049  1.0000
  C   C30       1.0  0.982325706530837  0.6404397647429575  0.3852591261163647  1.0000
  H   H17       1.0  0.039510748426154096  0.6721758417736678  0.36895419424540027  1.0000
  H   H18       1.0  0.029950569613437894  0.7215367256436299  0.4323929757678998  1.0000
  H   H19       1.0  0.9593125102848432  0.6679770953524792  0.4351504265541961  1.0000
  H   H20       1.0  0.9689877537667455  0.618010280765355  0.371954547247373  1.0000
  C   C31       1.0  0.03456356962683915  0.6096489880388096  0.01716246459251014  1.0000
  C   C32       1.0  0.05327487504858053  0.5792210728805531  0.017103090096894036  1.0000
  C   C33       1.0  0.049806500948288424  0.5330134002400628  0.00498956423977015  1.0000
  C   C34       1.0  0.027717579813993698  0.5175146726099811  0.992099278960075  1.0000
  C   C35       1.0  0.00893403682258298  0.5477953323656375  0.9929517977613959  1.0000
  C   C36       1.0  0.012315403468506902  0.5937460150520691  0.005807566307624912  1.0000
  H   H21       1.0  0.07031956495343561  0.5910734527375924  0.02699778773737771  1.0000
  H   H22       1.0  0.06432385286576126  0.5095103870953701  0.00481418199006467  1.0000
  H   H23       1.0  0.9916958904503508  0.5356616781291244  0.9841838322332068  1.0000
  H   H24       1.0  0.9977374870286247  0.6171256936536659  0.006201411671668655  1.0000
  C   C37       1.0  0.13577576422152687  0.5906645565177807  0.09713430002582624  1.0000
  C   C38       1.0  0.11487654076431479  0.5713681242896218  0.08231423090929102  1.0000
  C   C39       1.0  0.10007138868556241  0.5457152476361952  0.11073591267876304  1.0000
  C   C40       1.0  0.10572240551260557  0.54097311995766  0.1544595774062348  1.0000
  C   C41       1.0  0.12659419926236007  0.5604378864247352  0.1694011723071267  1.0000
  C   C42       1.0  0.1418785870131303  0.5845078235232679  0.14047033302468792  1.0000
  H   H25       1.0  0.11020642634257438  0.5760019275628152  0.048781695432004835  1.0000
  H   H26       1.0  0.0839550540627727  0.5307060404946524  0.09904646236368575  1.0000
  H   H27       1.0  0.13107971097842902  0.5566000234479248  0.20310978585153228  1.0000
  H   H28       1.0  0.15804746753021545  0.5994487283473343  0.15194470068127353  1.0000
  C   C43       1.0  0.982958361481299  0.05469348311610456  0.4546583362489905  1.0000
  C   C44       1.0  0.9950538738897777  0.06370860572822235  0.492706478763454  1.0000
  C   C45       1.0  0.0181026549770682  0.08131284692360063  0.4899531680117765  1.0000
  C   C46       1.0  0.028763160544957644  0.09080131732213469  0.44922725597613167  1.0000
  C   C47       1.0  0.0166694667002234  0.08146633763170308  0.4112701659812063  1.0000
  C   C48       1.0  0.9938760603324986  0.06288352691100974  0.4139929499010448  1.0000
  H   H29       1.0  0.9866574818198699  0.057308153889009006  0.5242105423985026  1.0000
  H   H30       1.0  0.027438620066226216  0.08868954499136783  0.5193361604644509  1.0000
  H   H31       1.0  0.024939199099419218  0.08836369451153757  0.37974467443303195  1.0000
  H   H32       1.0  0.9845539613543349  0.05570727730536662  0.384544735801043  1.0000
  C   C49       1.0  0.04978145292296032  0.3700527826953055  0.3927720495150465  1.0000
  C   C50       1.0  0.04236576351945542  0.4158461187502831  0.39299548827127057  1.0000
  C   C51       1.0  0.05867693919949901  0.45216889995024256  0.39755220605759745  1.0000
  C   C52       1.0  0.0823858335507892  0.44277095944466466  0.4025390834310306  1.0000
  C   C53       1.0  0.08964914574487581  0.39701087734484397  0.4045012583883227  1.0000
  C   C54       1.0  0.0733983198516861  0.360715022692139  0.39911728757720194  1.0000
  H   H33       1.0  0.02412934601233352  0.42328140727427255  0.38812388572627793  1.0000
  H   H34       1.0  0.05292575176833636  0.4875159234854359  0.39660747367692445  1.0000
  H   H35       1.0  0.10796394800141229  0.3896004553699029  0.4084609264119836  1.0000
  H   H36       1.0  0.07926711368116113  0.3256325871645151  0.39937706689379854  1.0000
  C   C55       1.0  0.006189289979037227  0.13853343266848786  0.9241258368857913  1.0000
  C   C56       1.0  0.9858461174054699  0.16322450128159985  0.9169876666827707  1.0000
  C   C57       1.0  0.9645543195525311  0.14921957288392065  0.9372634347602503  1.0000
  C   C58       1.0  0.9636955444524633  0.11065328720300326  0.9648060524107182  1.0000
  C   C59       1.0  0.9838933786793599  0.08531264503718394  0.9709450496355343  1.0000
  C   C60       1.0  0.0051023453309038125  0.09918105466887428  0.9506047797659338  1.0000
  H   H37       1.0  0.9865787344051216  0.1933265060826519  0.896226893522015  1.0000
  H   H38       1.0  0.9488802579524663  0.16870764526333643  0.9324589442541344  1.0000
  H   H39       1.0  0.9830321711059506  0.054285965472744335  0.9905461513259602  1.0000
  H   H40       1.0  0.020526344458231538  0.07891319159022991  0.9550798130853119  1.0000
  C   C61       1.0  0.06649800575143305  0.9493759503640526  0.05660310251991296  1.0000
  C   C62       1.0  0.08909680715662982  0.9595673710920876  0.07048589639925873  1.0000
  C   C63       1.0  0.1048935183017703  0.923973974180811  0.07716180717980747  1.0000
  C   C64       1.0  0.09821861434201427  0.8780822536594132  0.06954338256781623  1.0000
  C   C65       1.0  0.0755680143494217  0.8677189077689891  0.05594931878036502  1.0000
  C   C66       1.0  0.05963524410626952  0.9033552706898995  0.049869266241146626  1.0000
  H   H41       1.0  0.09424898008758298  0.9947886618309832  0.07712784284723395  1.0000
  H   H42       1.0  0.12234450860463353  0.9320645869454847  0.0879902962413266  1.0000
  H   H43       1.0  0.07016032298721164  0.8322669775358316  0.050785960453399115  1.0000
  H   H44       1.0  0.04210979880140231  0.8953044715830414  0.039387087219095784  1.0000
  C   C67       1.0  0.07825713332563344  0.1864696427000272  0.11633956700262704  1.0000
  C   C68       1.0  0.06898495374053093  0.14171399674811713  0.12220673625020062  1.0000
  C   C69       1.0  0.054156747724910526  0.13135034649632615  0.1581785124319578  1.0000
  C   C70       1.0  0.04861540674834863  0.16562128005691623  0.18853749873847578  1.0000
  C   C71       1.0  0.05798195937282124  0.21030744049311373  0.1827912700040113  1.0000
  C   C72       1.0  0.07284530637415942  0.22070861631189556  0.14679861332075528  1.0000
  H   H45       1.0  0.0735542010837611  0.11472077961163363  0.09950260477196804  1.0000
  H   H46       1.0  0.04741350447708692  0.09650226238318547  0.1629764213159995  1.0000
  H   H47       1.0  0.05325679335288779  0.23720632580573467  0.205413586824057  1.0000
  H   H48       1.0  0.07986996505726539  0.25539100933129555  0.14225528594782744  1.0000
  C   C73       1.0  0.19702220731389392  0.6616051899368125  0.34112772696152094  1.0000
  C   C74       1.0  0.1845706586644577  0.6346866456838325  0.3116160531297362  1.0000
  C   C75       1.0  0.16161633451014065  0.645944969109677  0.30153164933636883  1.0000
  C   C76       1.0  0.1510790317216996  0.6842347932379107  0.3208592953428534  1.0000
  C   C77       1.0  0.16381222159627942  0.7122815991295756  0.3489635305898947  1.0000
  C   C78       1.0  0.18669749275172454  0.7006886728986792  0.35943872948483313  1.0000
  H   H49       1.0  0.19260389334889003  0.6046829809416174  0.2970308545410223  1.0000
  H   H50       1.0  0.15220119868082996  0.6251697670121649  0.27855457871407235  1.0000
  H   H51       1.0  0.15571380270706728  0.7420531230070411  0.36386008306228795  1.0000
  H   H52       1.0  0.1960609447257794  0.721422702224638  0.3824276868599318  1.0000
  C   C79       1.0  0.2790191392887007  0.9701958803888847  0.46647757174308163  1.0000
  C   C80       1.0  0.26619149868174335  0.9684490116019481  0.4284665105700684  1.0000
  C   C81       1.0  0.2679863729885569  0.9302481253531666  0.4008025116176445  1.0000
  C   C82       1.0  0.28210664857131945  0.89322657328141  0.4117025073618132  1.0000
  C   C83       1.0  0.29480665603353096  0.8947736496852533  0.44992220031141705  1.0000
  C   C84       1.0  0.293460819369361  0.9335202448132977  0.47708634336172245  1.0000
  H   H53       1.0  0.2548325230996622  0.9964390717081576  0.4202642355338389  1.0000
  H   H54       1.0  0.25817259317758623  0.9290500022352787  0.37119852206465886  1.0000
  H   H55       1.0  0.30588667074927395  0.8663035487689236  0.45814749626689966  1.0000
  H   H56       1.0  0.30341094869272134  0.9348091971510222  0.5064927100586124  1.0000
  C   C85       1.0  0.17884945195892812  0.11801436412155675  0.3349649845958367  1.0000
  C   C86       1.0  0.1869768509485839  0.16385923491429966  0.3347112516193705  1.0000
  C   C87       1.0  0.17166194844904115  0.1997320665472026  0.32574811547772686  1.0000
  C   C88       1.0  0.14810863620579176  0.1898070695633663  0.3179953965289413  1.0000
  C   C89       1.0  0.14017669852921832  0.1438482166941819  0.3173726889185086  1.0000
  C   C90       1.0  0.15561039460982465  0.10795599631199182  0.3251062931554072  1.0000
  H   H57       1.0  0.20511616055419823  0.17168760475382747  0.34130478559373434  1.0000
  H   H58       1.0  0.1779980357849479  0.23518638806090417  0.32577912491522587  1.0000
  H   H59       1.0  0.1222711072880762  0.13567116481787544  0.31036567692155925  1.0000
  H   H60       1.0  0.1493666588951119  0.07244176633296484  0.3249714529237654  1.0000
  C   C91       1.0  0.21341945189977377  0.6304508592429919  0.6264795012335642  1.0000
  C   C92       1.0  0.21619078765835545  0.6729953485536002  0.6472905896012507  1.0000
  C   C93       1.0  0.21784317141024626  0.7138451286998037  0.6226706588559119  1.0000
  C   C94       1.0  0.21678282481943187  0.7119589389699236  0.5773123582789779  1.0000
  C   C95       1.0  0.21233860948529307  0.6697835521141351  0.5568807186085711  1.0000
  C   C96       1.0  0.21061064629335768  0.6289984707939716  0.5814544036957129  1.0000
  H   H61       1.0  0.217515515789744  0.6743929238444871  0.6822518511573602  1.0000
  H   H62       1.0  0.2208709027644666  0.7465427404867732  0.6386749167939778  1.0000
  H   H63       1.0  0.2104696631937106  0.6685908304909394  0.5220843167820899  1.0000
  H   H64       1.0  0.20807663117549016  0.5961472252499128  0.5654447515937912  1.0000
  C   C97       1.0  0.19537000337097138  0.7212345790742034  0.8461917395318879  1.0000
  C   C98       1.0  0.1875383905084598  0.747425858099539  0.8817376826642205  1.0000
  C   C99       1.0  0.16351673152788432  0.75056447174553  0.891606853216278  1.0000
  C   C100      1.0  0.147218691180144  0.7281741601960102  0.8655300218691787  1.0000
  C   C101      1.0  0.15496718889452551  0.7038320015557512  0.8287475724246044  1.0000
  C   C102      1.0  0.17904448320804317  0.700149951427629  0.8192151572031549  1.0000
  H   H65       1.0  0.2001218047985486  0.7644359599840368  0.9022271448920882  1.0000
  H   H66       1.0  0.15764768093869477  0.770749201973955  0.9191014538638418  1.0000
  H   H67       1.0  0.14240688781917513  0.6870720683983635  0.8080562527407377  1.0000
  H   H68       1.0  0.18493395447428818  0.6813099550091501  0.7908227824079385  1.0000
  C   C103      1.0  0.22340033489387395  0.10561385118735787  0.6736951845102495  1.0000
  C   C104      1.0  0.21064397000425833  0.14639893263965592  0.6736542971682598  1.0000
  C   C105      1.0  0.19827598870041796  0.15890905225340396  0.6368292026558069  1.0000
  C   C106      1.0  0.19921432372762057  0.13129771711999205  0.5996282515473417  1.0000
  C   C107      1.0  0.21186732445905732  0.09034237210231953  0.5997196026082572  1.0000
  C   C108      1.0  0.22363609627212294  0.07710648897171078  0.6370157253901173  1.0000
  H   H69       1.0  0.21049594247946  0.1686842994024948  0.7017575225755119  1.0000
  H   H70       1.0  0.1887379882448779  0.19085720199733847  0.6366315079506086  1.0000
  H   H71       1.0  0.21271800761388926  0.06905724076839448  0.5709295827089541  1.0000
  H   H72       1.0  0.23356950438193994  0.04566872844402625  0.6369571212536186  1.0000
  C   C109      1.0  0.2084341858024122  0.3583492553484816  0.7801679049322945  1.0000
  C   C110      1.0  0.20729518074912937  0.40143780839259585  0.7597608208865818  1.0000
  C   C111      1.0  0.21085906768913576  0.4419718663246345  0.7836486216695209  1.0000
  C   C112      1.0  0.21517379440456094  0.43943568529542903  0.8281251839032284  1.0000
  C   C113      1.0  0.21544881013934555  0.3964060781955861  0.8489072605593533  1.0000
  C   C114      1.0  0.21219852544716897  0.35585477605754284  0.8248681543912385  1.0000
  H   H73       1.0  0.20425752415666076  0.4034906184627253  0.7252138524077261  1.0000
  H   H74       1.0  0.2102787256931973  0.47516988624217504  0.7675394414534696  1.0000
  H   H75       1.0  0.21874291291619058  0.3944073330020141  0.8833437580657335  1.0000
  H   H76       1.0  0.21259612883169499  0.3227360110252009  0.8409403685604181  1.0000
  C   C115      1.0  0.2001751106288958  0.14172039663289934  0.9212275169437133  1.0000
  C   C116      1.0  0.18261984904322143  0.1433474080807695  0.9538934224210411  1.0000
  C   C117      1.0  0.16291737821544958  0.11389355893854414  0.9520528915253518  1.0000
  C   C118      1.0  0.1610499540478174  0.08220027620647108  0.9180037742684299  1.0000
  C   C119      1.0  0.1789766170441635  0.0794908395670999  0.8862164449678551  1.0000
  C   C120      1.0  0.1984556210313442  0.10950643237497992  0.8876381674821685  1.0000
  H   H77       1.0  0.1839944031815223  0.1681741920808399  0.9799622223632181  1.0000
  H   H78       1.0  0.14912902760405475  0.115935453990323  0.9767782322752291  1.0000
  H   H79       1.0  0.17758540290479122  0.0549553093837396  0.8598936933890691  1.0000
  H   H80       1.0  0.21218273409335406  0.10761108096210159  0.8627459511234139  1.0000
  C   C121      1.0  0.38650175481810245  0.6984330738733233  0.41694903743122774  1.0000
  C   C122      1.0  0.38537111404198576  0.6588704846532886  0.4432048218488776  1.0000
  C   C123      1.0  0.36406189023394814  0.644758429441991  0.46317226011248713  1.0000
  C   C124      1.0  0.34370989612979663  0.6693356228193773  0.45583917031319054  1.0000
  C   C125      1.0  0.3448109948475999  0.7090296351293631  0.42979905776120153  1.0000
  C   C126      1.0  0.3662509998068661  0.7237780110252885  0.41066052908561734  1.0000
  H   H81       1.0  0.4009374893492372  0.6393895757554988  0.4485997106127579  1.0000
  H   H82       1.0  0.36334564457979307  0.6149059992714465  0.4843717661630095  1.0000
  H   H83       1.0  0.329189709091018  0.7285148185410092  0.4243949705116408  1.0000
  H   H84       1.0  0.36707489653179787  0.7545423086597014  0.390533283125811  1.0000
  C   C127      1.0  0.3510328444572316  0.16461994383485384  0.44162132115216207  1.0000
  C   C128      1.0  0.3486068802622561  0.20609182341906343  0.41886992553492597  1.0000
  C   C129      1.0  0.32636778889903173  0.2254086999920347  0.41530343475575476  1.0000
  C   C130      1.0  0.3066129405092011  0.2026932651176601  0.433711698560495  1.0000
  C   C131      1.0  0.30925716692932453  0.16154134112944135  0.456826043555128  1.0000
  C   C132      1.0  0.33145273681157666  0.14304769859873356  0.46157548971085227  1.0000
  H   H85       1.0  0.36373235442423474  0.2229207961532897  0.4033850877597039  1.0000
  H   H86       1.0  0.3243749287420483  0.25717980067237667  0.3972674766543476  1.0000
  H   H87       1.0  0.294187770099025  0.1435142804768587  0.47067096989780416  1.0000
  H   H88       1.0  0.33325548697097007  0.11135879415332738  0.47974812449638987  1.0000
  C   C133      1.0  0.4196124886661402  0.38001777291291583  0.3558100245722786  1.0000
  C   C134      1.0  0.4116008503718564  0.3775157525585015  0.39912391649055745  1.0000
  C   C135      1.0  0.4143366663887841  0.4155147695248799  0.42660380040658924  1.0000
  C   C136      1.0  0.42537401268224573  0.4560089354844483  0.41103372870574223  1.0000
  C   C137      1.0  0.4329333705671756  0.4591244832238271  0.3674056332273599  1.0000
  C   C138      1.0  0.4298604539091472  0.4211773938226674  0.3396734263514163  1.0000
  H   H89       1.0  0.40300995562716185  0.3464216507207468  0.4113610426588514  1.0000
  H   H90       1.0  0.40821500477935835  0.41318679297214456  0.46021182180647535  1.0000
  H   H91       1.0  0.4414771927905733  0.49040256761234724  0.3551711365843525  1.0000
  H   H92       1.0  0.43598599951981737  0.4233079708265152  0.30606734440533157  1.0000
  C   C139      1.0  0.3612008558972395  0.691794427800111  0.6959992390516674  1.0000
  C   C140      1.0  0.3375793411122963  0.7001534504490888  0.7060956510723062  1.0000
  C   C141      1.0  0.3234889987771096  0.6661672868867081  0.7271563452104745  1.0000
  C   C142      1.0  0.33279508922955997  0.623227244893294  0.7370671668218404  1.0000
  C   C143      1.0  0.356519571876705  0.6151371570977746  0.7275644201762984  1.0000
  C   C144      1.0  0.37077363923351603  0.6495109757435419  0.70740505470321  1.0000
  H   H93       1.0  0.330231316849158  0.733123232965679  0.6979138856014097  1.0000
  H   H94       1.0  0.30543400735403664  0.673146404813747  0.7356360567010964  1.0000
  H   H95       1.0  0.36385102616931675  0.5820598838172725  0.7354303271523078  1.0000
  H   H96       1.0  0.38899527475096346  0.6428187737616267  0.6996711733352116  1.0000
  C   C145      1.0  0.48854942642879434  0.7790590501891619  0.5539133529802064  1.0000
  C   C146      1.0  0.4833296658076195  0.7755400671714027  0.5098574803467002  1.0000
  C   C147      1.0  0.49185745661998703  0.7384500259606466  0.48516447251977857  1.0000
  C   C148      1.0  0.5063815203236557  0.7059836542232962  0.504066838943038  1.0000
  C   C149      1.0  0.5124459892959925  0.7108165663071939  0.5475961174872638  1.0000
  C   C150      1.0  0.5031864998392803  0.7468810135311013  0.5726714911250226  1.0000
  H   H97       1.0  0.47194735789910963  0.8002821965247299  0.49527444249201286  1.0000
  H   H98       1.0  0.4871502863241023  0.7349543091524009  0.45153148494923623  1.0000
  H   H99       1.0  0.5235373610708128  0.6856635953642283  0.5624330462468027  1.0000
  H   H100      1.0  0.5072848420262805  0.7497185800084094  0.6066481261767108  1.0000
  C   C151      1.0  0.33279404280409125  0.21116634505214962  0.7626663616074012  1.0000
  C   C152      1.0  0.3230034044214496  0.1696510146837249  0.7479495382467438  1.0000
  C   C153      1.0  0.3372515013002237  0.1367459540971967  0.7276406482966066  1.0000
  C   C154      1.0  0.36131602868702045  0.14518415831167708  0.7219827248230898  1.0000
  C   C155      1.0  0.37121274243480223  0.186534980043334  0.7369098145363274  1.0000
  C   C156      1.0  0.35691217659381075  0.21964632262296963  0.7570516630590239  1.0000
  H   H101      1.0  0.3044655301882543  0.16268028231308929  0.752476987113845  1.0000
  H   H102      1.0  0.32975042020233847  0.10417826193234259  0.7174078043659613  1.0000
  H   H103      1.0  0.38985452492519945  0.19311989901204765  0.7328932094022903  1.0000
  H   H104      1.0  0.3645832966442883  0.25158609347774236  0.7686371035417844  1.0000
  C   C157      1.0  0.48454608589212184  0.13537777534596668  0.5818129241168948  1.0000
  C   C158      1.0  0.4819035517491548  0.17971906116533357  0.5989883926322943  1.0000
  C   C159      1.0  0.4792419165364683  0.21755683454769265  0.5711263484700582  1.0000
  C   C160      1.0  0.47907215788493057  0.21100025575206624  0.5260759929428709  1.0000
  C   C161      1.0  0.48272060347928436  0.16698124701263184  0.5088480212692039  1.0000
  C   C162      1.0  0.48549019170387836  0.12916776523745097  0.5367068699997748  1.0000
  H   H105      1.0  0.48182629156098256  0.18487801178932428  0.6337986238376853  1.0000
  H   H106      1.0  0.47660962791072137  0.2516019582471142  0.5845985183587619  1.0000
  H   H107      1.0  0.4834034140182324  0.16200400213734012  0.47403325530040785  1.0000
  H   H108      1.0  0.4877290062455251  0.09498667255038494  0.5232818593495713  1.0000
  C   C163      1.0  0.46534675593971614  0.9661575242489594  0.8174575786810732  1.0000
  C   C164      1.0  0.4537126247766093  0.9462316836692888  0.7824992713997798  1.0000
  C   C165      1.0  0.45205627980535673  0.8978761714906955  0.7788145191492336  1.0000
  C   C166      1.0  0.4619554357318427  0.8697227695991674  0.8102168886682328  1.0000
  C   C167      1.0  0.473340498321323  0.8897934275302448  0.8452754762378214  1.0000
  C   C168      1.0  0.4751117179257732  0.9378591087653185  0.8487889703816376  1.0000
  H   H109      1.0  0.4456439405827547  0.9679887129311084  0.7588787694631762  1.0000
  H   H110      1.0  0.442722068275367  0.8824258016118535  0.7523220303376635  1.0000
  H   H111      1.0  0.4808351025552613  0.8681572404059382  0.8697910914687266  1.0000
  H   H112      1.0  0.4839783242021656  0.9531436708718274  0.8759883021810659  1.0000
  C   C169      1.0  0.5388075544264463  0.7084409308846605  0.22403395035605644  1.0000
  C   C170      1.0  0.5184735412992618  0.7186036836067924  0.24833492072650362  1.0000
  C   C171      1.0  0.5035568849082168  0.6827176884290771  0.2637752144022363  1.0000
  C   C172      1.0  0.5089100127286326  0.6367074136031643  0.25469582213092873  1.0000
  C   C173      1.0  0.5287324626505445  0.6267824783946214  0.22894197267766947  1.0000
  C   C174      1.0  0.5436576676802111  0.6625606317695651  0.21380693170573958  1.0000
  H   H113      1.0  0.5143908182607979  0.7540964350757461  0.2558186533684401  1.0000
  H   H114      1.0  0.48779621263740613  0.6907084462374599  0.28227272270478876  1.0000
  H   H115      1.0  0.5327645124068727  0.5912691908046575  0.22139591061360886  1.0000
  H   H116      1.0  0.5587151930983648  0.6545079499437862  0.19374108060679754  1.0000
  C   C175      1.0  0.5606310844331647  0.6589233008419134  0.7090419841421596  1.0000
  C   C176      1.0  0.5511311417118486  0.6226548775625783  0.7345474521025451  1.0000
  C   C177      1.0  0.5273138386359115  0.610407430155037  0.7317746795153385  1.0000
  C   C178      1.0  0.512836339525413  0.6354104481384704  0.7046623414263111  1.0000
  C   C179      1.0  0.5224761076365717  0.6708536875146954  0.6785194391599036  1.0000
  C   C180      1.0  0.5463687282896889  0.6824148927197057  0.6804434305285744  1.0000
  H   H117      1.0  0.5620980638404067  0.6041247592207966  0.7564449606534446  1.0000
  H   H118      1.0  0.5199136268986992  0.5826485805967618  0.751723824535654  1.0000
  H   H119      1.0  0.5114680475309515  0.6892002710351057  0.6566476676643347  1.0000
  H   H120      1.0  0.5536733263230272  0.710124890362208  0.6602940739476909  1.0000
  C   C181      1.0  0.6330238818000384  0.6978866083495212  0.9633405047149851  1.0000
  C   C182      1.0  0.6222649396586589  0.6544515818520374  0.9690441205953707  1.0000
  C   C183      1.0  0.6230381736379289  0.6315902393522238  0.009120926585167277  1.0000
  C   C184      1.0  0.633509490810473  0.6531193921086689  0.044408868851507625  1.0000
  C   C185      1.0  0.6433050440763812  0.6975359177691741  0.03952634161929258  1.0000
  C   C186      1.0  0.6432774529122007  0.7197383021750032  0.9988134017109231  1.0000
  H   H121      1.0  0.6129128828785642  0.638700073838136  0.9428409502198263  1.0000
  H   H122      1.0  0.6149908781900989  0.5976391654979678  0.013028222440626847  1.0000
  H   H123      1.0  0.6514955002985467  0.7142699153987332  0.06676743413034014  1.0000
  H   H124      1.0  0.6514747985188963  0.7535217244385386  0.9947250616251344  1.0000
  C   C187      1.0  0.5443991929530845  0.16944507745452814  0.2919447221899577  1.0000
  C   C188      1.0  0.5309025966353109  0.18412058289462707  0.327810612460953  1.0000
  C   C189      1.0  0.5072192530515194  0.17100028715643267  0.3320390447851816  1.0000
  C   C190      1.0  0.49688876694301404  0.14407716564933226  0.2998958700135045  1.0000
  C   C191      1.0  0.5104167264251909  0.12901549177072025  0.2641943605497499  1.0000
  C   C192      1.0  0.5341954033781916  0.14168348477641024  0.26021850947573666  1.0000
  H   H125      1.0  0.538865620355236  0.20512605113682802  0.3526093679793084  1.0000
  H   H126      1.0  0.49703577437273905  0.1815448270107194  0.360304903769225  1.0000
  H   H127      1.0  0.5024394555874656  0.108206639589689  0.23927543260784537  1.0000
  H   H128      1.0  0.5444844454046328  0.13083297792501186  0.23214061385347326  1.0000
  C   C193      1.0  0.6455773375059285  0.948415324024904  0.26192584618363507  1.0000
  C   C194      1.0  0.6428740204914635  0.903703613196641  0.27889849383303406  1.0000
  C   C195      1.0  0.6504567384433253  0.8657394359376119  0.2544364271417459  1.0000
  C   C196      1.0  0.660912703124248  0.8724963306138704  0.21316008552158244  1.0000
  C   C197      1.0  0.6648364029962909  0.9174265629285172  0.19733338682048496  1.0000
  C   C198      1.0  0.6570903218602177  0.9553545976183911  0.2216379438741805  1.0000
  H   H129      1.0  0.6343426064152164  0.8982733260162996  0.3104403063059395  1.0000
  H   H130      1.0  0.6483054027540883  0.8313193389248851  0.26761352185628695  1.0000
  H   H131      1.0  0.6733325014559537  0.9227943541330528  0.1657544203427079  1.0000
  H   H132      1.0  0.6601609863334037  0.9898710892196521  0.20924473319944306  1.0000
  C   C199      1.0  0.5417791277024399  0.25460904289017827  0.7830891757179299  1.0000
  C   C200      1.0  0.5308316026131513  0.23659746332305504  0.7465930213659554  1.0000
  C   C201      1.0  0.5063666950074652  0.23240056837375558  0.7462541523488352  1.0000
  C   C202      1.0  0.49284784999618103  0.2477377374264792  0.7817973122959755  1.0000
  C   C203      1.0  0.5037619304509391  0.26737409517640276  0.8176322743775399  1.0000
  C   C204      1.0  0.5282616090767893  0.26990648581491766  0.8186984689737788  1.0000
  H   H133      1.0  0.5412702577739488  0.22491750943152986  0.7189475093998954  1.0000
  H   H134      1.0  0.4979533308926953  0.21762039987790585  0.7183084612601032  1.0000
  H   H135      1.0  0.4932598427479811  0.2793417826015707  0.845066559744276  1.0000
  H   H136      1.0  0.5366254899742343  0.28421711117269877  0.8468148872737388  1.0000
  C   C205      1.0  0.6204307672873359  0.40431113389608814  0.9193251417872165  1.0000
  C   C206      1.0  0.630365110620198  0.4398047585654077  0.8935111719999009  1.0000
  C   C207      1.0  0.6168292646203228  0.4774555585467919  0.8817272292983438  1.0000
  C   C208      1.0  0.5935541251099011  0.48040510162637384  0.8968306877753819  1.0000
  C   C209      1.0  0.5837331977217699  0.4452800829125715  0.9232304311486701  1.0000
  C   C210      1.0  0.5971262613931538  0.407082745938104  0.9342391453602625  1.0000
  H   H137      1.0  0.6482719746167213  0.4373586971537021  0.8813801248254681  1.0000
  H   H138      1.0  0.6243119370310788  0.5035057981086566  0.8600969640999664  1.0000
  H   H139      1.0  0.5657483822024206  0.44741548348769367  0.9349929981750273  1.0000
  H   H140      1.0  0.5895065412942586  0.3799935142306833  0.9547324632074456  1.0000
  C   C211      1.0  0.5516043604608726  0.1672957952339752  0.02704121936084669  1.0000
  C   C212      1.0  0.549414687559711  0.16862785000110986  0.07246136925872859  1.0000
  C   C213      1.0  0.5559865303294985  0.13061070109267647  0.09739073051236002  1.0000
  C   C214      1.0  0.5640494589598971  0.09064752848949942  0.07690512054933518  1.0000
  C   C215      1.0  0.565070205687366  0.08842811509707003  0.031385105509999844  1.0000
  C   C216      1.0  0.5594141406761558  0.12713702824895143  0.00645621073039826  1.0000
  H   H141      1.0  0.5433405788248684  0.19960335089189615  0.0884362362025719  1.0000
  H   H142      1.0  0.5547602562549926  0.13224415153090097  0.13252548661144423  1.0000
  H   H143      1.0  0.570931137748773  0.05732461932744614  0.015403187709034814  1.0000
  H   H144      1.0  0.5609568574102203  0.12582701695813125  0.9713462260978409  1.0000
  C   C217      1.0  0.8321923174415661  0.561538891676603  0.4841745507822225  1.0000
  C   C218      1.0  0.8235936833798189  0.6031640632043213  0.4686670509233659  1.0000
  C   C219      1.0  0.8365808366395239  0.6442187738108143  0.47343955960352824  1.0000
  C   C220      1.0  0.8579809901827142  0.6438726195488127  0.4944252443088835  1.0000
  C   C221      1.0  0.8668404205065978  0.6021361304071902  0.5092583366936285  1.0000
  C   C222      1.0  0.8539983156310406  0.560885755281265  0.5038253348422207  1.0000
  H   H145      1.0  0.807011363614988  0.6036460870871395  0.4526030351171725  1.0000
  H   H146      1.0  0.829823284135125  0.6763717308568667  0.4614763155273534  1.0000
  H   H147      1.0  0.8833042043397185  0.6017147681620129  0.5257123299006627  1.0000
  H   H148      1.0  0.8606450381189104  0.5286558328837929  0.51583384960716  1.0000
  C   C223      1.0  0.7033208995085464  0.6475136827552074  0.38127321545481785  1.0000
  C   C224      1.0  0.69953612967044  0.6762576876497923  0.3454725227636894  1.0000
  C   C225      1.0  0.678317639927292  0.6733707603067944  0.32354716799932604  1.0000
  C   C226      1.0  0.6607677165099984  0.6421172324848646  0.3378343937547661  1.0000
  C   C227      1.0  0.6643267538148435  0.6142304993272149  0.3741671228218537  1.0000
  C   C228      1.0  0.6856026932216633  0.6167219966005902  0.3956388913076554  1.0000
  H   H149      1.0  0.7131797962482296  0.7002320474581415  0.3342426956529676  1.0000
  H   H150      1.0  0.6756010134609537  0.6952657557804002  0.29563478344975114  1.0000
  H   H151      1.0  0.6507089938935667  0.5902684318187336  0.3854791214310782  1.0000
  H   H152      1.0  0.6881849232695906  0.5948920142792198  0.42334530521640445  1.0000
  C   C229      1.0  0.8522044409552388  0.15628409785725075  0.4277409556943203  1.0000
  C   C230      1.0  0.8748471856109963  0.1434205586263636  0.4380356153169014  1.0000
  C   C231      1.0  0.8823886922734131  0.14749883189853072  0.48074423477743583  1.0000
  C   C232      1.0  0.8672755953064292  0.16406837746713676  0.5134192566873989  1.0000
  C   C233      1.0  0.844877567873251  0.17849555486072455  0.5029978018317331  1.0000
  C   C234      1.0  0.8373018794190654  0.1744234257305286  0.4600936337563682  1.0000
  H   H153      1.0  0.8863380421353717  0.129248879739849  0.41308482536100527  1.0000
  H   H154      1.0  0.899811349249893  0.13708813612629847  0.4885615018884534  1.0000
  H   H155      1.0  0.833161479231972  0.19138197654366462  0.5282468935111605  1.0000
  H   H156      1.0  0.8198448138608323  0.18444610288593388  0.4522873660279999  1.0000
  C   C235      1.0  0.755281380457062  0.34399795867993427  0.33749168165115134  1.0000
  C   C236      1.0  0.7314790729145317  0.33283273550140025  0.3435763558435424  1.0000
  C   C237      1.0  0.7175794735180803  0.3584287424212163  0.3727248833480484  1.0000
  C   C238      1.0  0.7276420446644917  0.3942423369291182  0.39674621322501774  1.0000
  C   C239      1.0  0.7515027791984099  0.40493747225265986  0.3910290449647207  1.0000
  C   C240      1.0  0.7652226116469893  0.38038781299611246  0.36085249500263417  1.0000
  H   H157      1.0  0.7238024601389639  0.30450377064591144  0.32568605721460386  1.0000
  H   H158      1.0  0.6991540074387335  0.34981697715515164  0.3773080261087815  1.0000
  H   H159      1.0  0.7596070753039696  0.43140000803417755  0.41043060010324006  1.0000
  H   H160      1.0  0.7837254286582515  0.3885770748308593  0.35665901513788817  1.0000
  C   C241      1.0  0.7294322161267721  0.10814946530493173  0.23062269623810658  1.0000
  C   C242      1.0  0.727349599375209  0.1559141326625719  0.22554752800626707  1.0000
  C   C243      1.0  0.7091664603246909  0.17356108024268277  0.20114983744933956  1.0000
  C   C244      1.0  0.6926907597386464  0.14349083635818127  0.18307596702121323  1.0000
  C   C245      1.0  0.6948451182538696  0.09575592027939939  0.1880895787708746  1.0000
  C   C246      1.0  0.7134774865682199  0.07807099476413004  0.21114658376745846  1.0000
  H   H161      1.0  0.739674888661546  0.17935540010178372  0.24045332007401002  1.0000
  H   H162      1.0  0.7073655164827932  0.21052698849938578  0.1976244614243287  1.0000
  H   H163      1.0  0.6821760372413593  0.07239991021535652  0.17411019549711185  1.0000
  H   H164      1.0  0.7150711110806596  0.0410960415501489  0.21500990219855237  1.0000
  C   C247      1.0  0.8908069863516189  0.6350585617739762  0.8691480721948988  1.0000
  C   C248      1.0  0.8738215748399333  0.6028588457963897  0.8838381525219993  1.0000
  C   C249      1.0  0.8803572143714804  0.5583171512546588  0.8959889566473828  1.0000
  C   C250      1.0  0.9038634450135792  0.5456098514002848  0.8929616334948349  1.0000
  C   C251      1.0  0.9208971292292102  0.5780561337908527  0.8788113326556246  1.0000
  C   C252      1.0  0.9144085596197107  0.6229063043853452  0.8674050407915542  1.0000
  H   H165      1.0  0.8556617363685496  0.6123683975884497  0.8864181611019797  1.0000
  H   H166      1.0  0.8671421164007805  0.5334674033807614  0.9072730134389018  1.0000
  H   H167      1.0  0.9390285759836777  0.568622799452003  0.8763021820442254  1.0000
  H   H168      1.0  0.9276170717236968  0.6477608852756669  0.8561599262437964  1.0000
  C   C253      1.0  0.7955250934841732  0.568036757671575  0.6822204159615526  1.0000
  C   C254      1.0  0.7747197087339578  0.5827273594515101  0.7022993768824023  1.0000
  C   C255      1.0  0.7536314559458307  0.5797013398773364  0.6802740137093812  1.0000
  C   C256      1.0  0.7533643385170341  0.5622816747955803  0.6379259936478422  1.0000
  C   C257      1.0  0.7741884505665322  0.5471411033003389  0.6180049885005201  1.0000
  C   C258      1.0  0.7952180801718318  0.5495573431908203  0.6403087637915447  1.0000
  H   H169      1.0  0.7748853204712731  0.5962762154215618  0.734906124027339  1.0000
  H   H170      1.0  0.7376703279860407  0.5914133182179352  0.695928160470742  1.0000
  H   H171      1.0  0.7742500386037281  0.533833717875997  0.5852776337822394  1.0000
  H   H172      1.0  0.8113050055751994  0.5382813051994865  0.6245449479757577  1.0000
  C   C259      1.0  0.7393935066769568  0.6547728881188798  0.8478756404495162  1.0000
  C   C260      1.0  0.7160710067314756  0.659225022504341  0.8622154277457353  1.0000
  C   C261      1.0  0.6983298994258103  0.6329801018440752  0.8429957283794368  1.0000
  C   C262      1.0  0.7039684188363504  0.6007043452925103  0.8107266833807378  1.0000
  C   C263      1.0  0.727416393857576  0.5943898640328524  0.7981866464434351  1.0000
  C   C264      1.0  0.745095474268914  0.6217664409288027  0.8164408627460897  1.0000
  H   H173      1.0  0.7116383739736442  0.6837891397632375  0.8873715696870912  1.0000
  H   H174      1.0  0.6803182295923103  0.6379618089438293  0.8530880166342838  1.0000
  H   H175      1.0  0.7319116935055954  0.5688520556195874  0.7738631613191497  1.0000
  H   H176      1.0  0.7631664717610077  0.6173138255661206  0.8062511092363414  1.0000
  C   C265      1.0  0.7818375626668487  0.15284903614819934  0.8500459147379642  1.0000
  C   C266      1.0  0.8029447497529538  0.17141718604632183  0.8645289396408735  1.0000
  C   C267      1.0  0.8144770667555292  0.14980324609383322  0.8983714473350275  1.0000
  C   C268      1.0  0.804521866377149  0.11056245780155603  0.9187159727101808  1.0000
  C   C269      1.0  0.7829302991155149  0.09302095864516045  0.9054187666406062  1.0000
  C   C270      1.0  0.7717733007451092  0.11373822854881421  0.870538479594091  1.0000
  H   H177      1.0  0.8108329343031032  0.20150730101064518  0.8486162512272769  1.0000
  H   H178      1.0  0.831221443576156  0.16337563992051263  0.9084545720494354  1.0000
  H   H179      1.0  0.7753240125923078  0.062406136476583114  0.9208087357683435  1.0000
  H   H180      1.0  0.7554242143350988  0.09936475013446855  0.8595168023465632  1.0000
  C   C271      1.0  0.7702798487179665  0.10954323704780422  0.574834669055921  1.0000
  C   C272      1.0  0.7458238031171617  0.11140061366120269  0.5762016946362694  1.0000
  C   C273      1.0  0.734034492666442  0.12945359791330358  0.5406886553492883  1.0000
  C   C274      1.0  0.7466803405979581  0.14491178331536114  0.503592417940145  1.0000
  C   C275      1.0  0.7711344235087255  0.14378330591207011  0.5025623123440951  1.0000
  C   C276      1.0  0.7829165324965264  0.12684983185081444  0.5384510226438493  1.0000
  H   H181      1.0  0.7359314879025336  0.09804892815292508  0.6041889456416427  1.0000
  H   H182      1.0  0.7150947602882911  0.1303955069861495  0.5416248995215569  1.0000
  H   H183      1.0  0.7809621335403125  0.15585290978001876  0.47407449515769956  1.0000
  H   H184      1.0  0.801815842849129  0.1266574952753634  0.5378203484484712  1.0000
  C   C277      1.0  0.7714740350470308  0.9082393058947044  0.7688257666613345  1.0000
  C   C278      1.0  0.773168106344983  0.864611532638781  0.7878483028976765  1.0000
  C   C279      1.0  0.7884147080821097  0.8321905180008273  0.7698546474395667  1.0000
  C   C280      1.0  0.8026042401170839  0.8437699426473717  0.7335235523171674  1.0000
  C   C281      1.0  0.8010533364556093  0.8875684660771636  0.7144610560795617  1.0000
  C   C282      1.0  0.7853173123818346  0.919803423561396  0.7319611468818011  1.0000
  H   H185      1.0  0.7628581770686326  0.8560064473969521  0.816802290118555  1.0000
  H   H186      1.0  0.7892047867973957  0.7982767862923392  0.7842814346331095  1.0000
  H   H187      1.0  0.8120239443882904  0.8965768625165794  0.6862741924058418  1.0000
  H   H188      1.0  0.7840851686083841  0.9536118207970632  0.7172020439572226  1.0000
  C   C283      1.0  0.6618666937816275  0.09264242774587661  0.7641652768947925  1.0000
  C   C284      1.0  0.6693720709982885  0.06568485056798122  0.7987500287971477  1.0000
  C   C285      1.0  0.6617636679207044  0.07527509686635536  0.8414889798039445  1.0000
  C   C286      1.0  0.6462285148190576  0.11122230384426457  0.8495002797329473  1.0000
  C   C287      1.0  0.6371046431785837  0.13544469570147455  0.8145697610878296  1.0000
  C   C288      1.0  0.6449826940534599  0.12624523471659366  0.7718832033800738  1.0000
  H   H189      1.0  0.6813822783972894  0.03793794613872813  0.7925895392820597  1.0000
  H   H190      1.0  0.6684815725201969  0.05576718933160984  0.8683149348678926  1.0000
  H   H191      1.0  0.6244403394623802  0.1621025575738022  0.820336922783464  1.0000
  H   H192      1.0  0.6387372617775654  0.14648596328833086  0.7450738877328004  1.0000
  N   N1        1.0  0.5001268602655756  0.13917139322682082  0.8851082440938575  1.0000
  C   C289      1.0  0.500731446422691  0.09651194560622423  0.9115608902455515  1.0000
  C   C290      1.0  0.5101101049696627  0.17802254444680288  0.9099799633301452  1.0000
  C   C291      1.0  0.4756426008400867  0.14916269575959484  0.8745838541898703  1.0000
  C   C292      1.0  0.5140530891489792  0.1329378259799041  0.8443243826813313  1.0000
  H   H193      1.0  0.4932817509619262  0.06642524403350336  0.8938074635247968  1.0000
  H   H194      1.0  0.49037061390274533  0.10001024186602048  0.9425540881211152  1.0000
  H   H195      1.0  0.5189739972316774  0.08799237437376983  0.9200085069645918  1.0000
  H   H196      1.0  0.5100427532857217  0.21080797281882302  0.8911359944029714  1.0000
  H   H197      1.0  0.5001483906755868  0.1837403928600132  0.9411016260248765  1.0000
  H   H198      1.0  0.5285440727685943  0.17154604337242962  0.9184756860016038  1.0000
  H   H199      1.0  0.4745484732599232  0.18124003212547013  0.8547689332801658  1.0000
  H   H200      1.0  0.4645186938218342  0.15380020327603638  0.904477127024345  1.0000
  H   H201      1.0  0.4676385858985335  0.12065976952269053  0.8554936009410498  1.0000
  H   H202      1.0  0.513460497353963  0.16404137536079366  0.8230053578998663  1.0000
  H   H203      1.0  0.5072887860475964  0.10304843004578501  0.8253899724457602  1.0000
  H   H204      1.0  0.5327783263175505  0.12657278451981102  0.8508494202457912  1.0000
  N   N2        1.0  0.19438169450683798  0.6062503032602543  0.9384581251767348  1.0000
  C   C293      1.0  0.18860831945206952  0.6056328998774411  0.8919449631808306  1.0000
  C   C294      1.0  0.21869308183776284  0.5907554707362506  0.9432225829377519  1.0000
  C   C295      1.0  0.17809536482966773  0.5749172695753386  0.9630500438607845  1.0000
  C   C296      1.0  0.19219988811345123  0.6537372633463832  0.9554023020173431  1.0000
  H   H205      1.0  0.1706132014743519  0.6182301072828594  0.8866690088684684  1.0000
  H   H206      1.0  0.18982736964544664  0.5702096064288162  0.8781016863003487  1.0000
  H   H207      1.0  0.20094158828545247  0.6282508259944033  0.8725704963456522  1.0000
  H   H208      1.0  0.23139215020559997  0.6136542885292513  0.9247983117072939  1.0000
  H   H209      1.0  0.2237412259021971  0.5907706946849387  0.977898076772897  1.0000
  H   H210      1.0  0.2209819064489996  0.5551040499953199  0.9304328189824568  1.0000
  H   H211      1.0  0.18215220487809464  0.5741235542851596  0.9982679489599035  1.0000
  H   H212      1.0  0.17909111591221763  0.5389048352576797  0.950603942232369  1.0000
  H   H213      1.0  0.15963947750507804  0.5862039669199177  0.9607749495990195  1.0000
  H   H214      1.0  0.20478407655209027  0.6779400542452019  0.9382720541206859  1.0000
  H   H215      1.0  0.19564009372288904  0.6552414739925732  0.9908436119515712  1.0000
  H   H216      1.0  0.17428310791517396  0.6671170729772034  0.9508459006904633  1.0000
  N   N3        1.0  0.12518221336142635  0.9029252059107397  0.9337613058512887  1.0000
  C   C297      1.0  0.1458244320570115  0.9280825418862475  0.9148232301051306  1.0000
  C   C298      1.0  0.11447183569450249  0.8737983273490593  0.8999817602046035  1.0000
  C   C299      1.0  0.10791271552501994  0.9364799490288138  0.9504482248402673  1.0000
  C   C300      1.0  0.13253151823004303  0.8732293826440183  0.969857807041604  1.0000
  H   H217      1.0  0.14090610411700485  0.9506687388967203  0.8872648392504948  1.0000
  H   H218      1.0  0.15937797809910187  0.9039926522576295  0.9022923489980205  1.0000
  H   H219      1.0  0.1541056762006558  0.9510300716616625  0.9392622756980574  1.0000
  H   H220      1.0  0.12696665606328622  0.8476902430542583  0.8870617166123809  1.0000
  H   H221      1.0  0.09876804677125083  0.8544748786147596  0.9131483824903659  1.0000
  H   H222      1.0  0.1088559794919803  0.894992384628593  0.8720068088337842  1.0000
  H   H223      1.0  0.09215542304148781  0.9188513114770623  0.9654423902176222  1.0000
  H   H224      1.0  0.1020004553513594  0.9595787741100674  0.9240530969475337  1.0000
  H   H225      1.0  0.11552012176779046  0.9592173108285751  0.9757886268548448  1.0000
  H   H226      1.0  0.14607303802400826  0.8483598357754107  0.958873402454258  1.0000
  H   H227      1.0  0.11745384242674012  0.8527173839192719  0.9838235533437243  1.0000
  H   H228      1.0  0.1399087019970531  0.8940014213875959  0.9968283361214989  1.0000
  N   N4        1.0  0.1003838348603146  0.39013865474184334  0.2669088353438008  1.0000
  C   C301      1.0  0.10981152709662917  0.35007038372188337  0.2901135029902753  1.0000
  C   C302      1.0  0.0749025410150499  0.39299320453903513  0.27612570603720316  1.0000
  C   C303      1.0  0.1047001222456443  0.3847343640599685  0.21956355234541955  1.0000
  C   C304      1.0  0.11211383128827866  0.43289849322106544  0.2817889143977829  1.0000
  H   H229      1.0  0.12910402103705856  0.34744283388905467  0.2849166847467626  1.0000
  H   H230      1.0  0.10190141652460705  0.3170561603619895  0.27881962915553726  1.0000
  H   H231      1.0  0.10625504772103908  0.35218941169854945  0.32580684721226305  1.0000
  H   H232      1.0  0.06715916714475334  0.42219125222169374  0.2581386389720539  1.0000
  H   H233      1.0  0.06548380095708084  0.3606821697775265  0.26682142963173444  1.0000
  H   H234      1.0  0.07103076677318575  0.3986734658404278  0.31134513227104466  1.0000
  H   H235      1.0  0.12374797778398249  0.38236643693712913  0.2114191576848941  1.0000
  H   H236      1.0  0.09795043164117345  0.41464353674993276  0.2010992613653952  1.0000
  H   H237      1.0  0.09590284811791404  0.3529592415967056  0.20721445870196936  1.0000
  H   H238      1.0  0.109088433086138  0.4381551513977617  0.31736104859446984  1.0000
  H   H239      1.0  0.1054343090675267  0.4637175861222158  0.2647844904945081  1.0000
  H   H240      1.0  0.131371159349508  0.4320933024816933  0.27546342830611015  1.0000
  N   N5        1.0  0.4778318659803441  0.26726071469181095  0.2295415181475212  1.0000
  C   C305      1.0  0.46742673351424036  0.3102037132462512  0.24657163798472395  1.0000
  C   C306      1.0  0.48316036852388405  0.2723175034413661  0.1824080841449079  1.0000
  C   C307      1.0  0.4610509228317651  0.2283638946745856  0.23681715037228562  1.0000
  C   C308      1.0  0.4996820693175798  0.25799563073765125  0.252401733375452  1.0000
  H   H241      1.0  0.4636284328926904  0.30769779147867454  0.28224855421079537  1.0000
  H   H242      1.0  0.45048380828989226  0.31754498751599586  0.23112745496497772  1.0000
  H   H243      1.0  0.4793365645285974  0.34058071257751843  0.24091847601134034  1.0000
  H   H244      1.0  0.4909107202494464  0.24025096190408982  0.16868248300428462  1.0000
  H   H245      1.0  0.46708234731663334  0.2795078558982956  0.1641178231638595  1.0000
  H   H246      1.0  0.49595059445859707  0.30111006354672026  0.17569110433999313  1.0000
  H   H247      1.0  0.4685147046349409  0.19502516324728164  0.22555356060261883  1.0000
  H   H248      1.0  0.44446613480104635  0.23365857359146375  0.21953718195868382  1.0000
  H   H249      1.0  0.4563038626281874  0.22406548538279394  0.27195552274382806  1.0000
  H   H250      1.0  0.508062898359049  0.22591291779736197  0.24024904940569303  1.0000
  H   H251      1.0  0.4962984000744095  0.2532844725195909  0.28797495396241163  1.0000
  H   H252      1.0  0.5127729295605843  0.28665758929289026  0.24796766031548337  1.0000
  N   N6        1.0  0.8164316073154695  0.6870133169310386  0.6019518770189777  1.0000
  C   C309      1.0  0.8313039863776165  0.6458447229614238  0.5988125054850593  1.0000
  C   C310      1.0  0.8294704722762665  0.7248154639476336  0.6232895171986144  1.0000
  C   C311      1.0  0.7949116744994302  0.6754485983208278  0.6277929509393478  1.0000
  C   C312      1.0  0.810035548199992  0.7019124711342124  0.5579156526893084  1.0000
  H   H253      1.0  0.8483455894120115  0.6540803586462721  0.5820070535781048  1.0000
  H   H254      1.0  0.8226879809063301  0.6174548413827091  0.5804030283437791  1.0000
  H   H255      1.0  0.8352986219380765  0.6320552636619999  0.6315154799833255  1.0000
  H   H256      1.0  0.8188245807587299  0.7565241004325877  0.6263567813474216  1.0000
  H   H257      1.0  0.8345438052118949  0.7148222882861522  0.656627890261935  1.0000
  H   H258      1.0  0.8458438128372312  0.7343277567747708  0.6044760886804461  1.0000
  H   H259      1.0  0.7846012900918866  0.6473108575389961  0.6122172966066175  1.0000
  H   H260      1.0  0.7834211198554314  0.7058348372528448  0.6316187472730481  1.0000
  H   H261      1.0  0.7991565124410064  0.6633253145720247  0.6609274586836137  1.0000
  H   H262      1.0  0.8010891334749463  0.6735122094507511  0.5400729444533436  1.0000
  H   H263      1.0  0.825808279426371  0.7126696999334674  0.5380972539865218  1.0000
  H   H264      1.0  0.7981252202503721  0.7318430917623633  0.5591796909573394  1.0000
  N   N7        1.0  0.4043756325460167  0.14709029757655095  0.5693080609631548  1.0000
  C   C313      1.0  0.40255837898062635  0.18694041967623096  0.5990583642244882  1.0000
  C   C314      1.0  0.41876671611760025  0.11106764648731793  0.5889170438039615  1.0000
  C   C315      1.0  0.4155252886127573  0.16240701016484452  0.5276670161446216  1.0000
  C   C316      1.0  0.3807199307791247  0.1279544894217208  0.5614716754555749  1.0000
  H   H265      1.0  0.3915236660355859  0.2144101152611571  0.5854406602716916  1.0000
  H   H266      1.0  0.4201144142772026  0.202756598072458  0.6048575979916339  1.0000
  H   H267      1.0  0.39468412061592373  0.17650418741678753  0.6312916533089531  1.0000
  H   H268      1.0  0.4207397873585275  0.08075120331986452  0.5670833098366993  1.0000
  H   H269      1.0  0.4366834299271835  0.1244179650962971  0.5953261650763062  1.0000
  H   H270      1.0  0.41092250630489047  0.09848620665837336  0.6204394681027675  1.0000
  H   H271      1.0  0.43326779989847386  0.17759470515741918  0.5325011219566118  1.0000
  H   H272      1.0  0.4049930610026753  0.18905035096199282  0.5114574041003217  1.0000
  H   H273      1.0  0.4175213742808598  0.13307344177320002  0.504648578577755  1.0000
  H   H274      1.0  0.38153052691451367  0.09799732858670729  0.5388913778382951  1.0000
  H   H275      1.0  0.3694869428376932  0.15410031441654554  0.5461488423105838  1.0000
  H   H276      1.0  0.3719114550363968  0.11605773925348782  0.5924607095083014  1.0000
  N   N8        1.0  0.6660834810020395  0.6161956896953346  0.6568163224158474  1.0000
  C   C317      1.0  0.6489590399379669  0.5907857591761194  0.6851734433250953  1.0000
  C   C318      1.0  0.6689176263036004  0.5917254717119137  0.6149191137660894  1.0000
  C   C319      1.0  0.6888421014916813  0.6188076889408746  0.6784525717392493  1.0000
  C   C320      1.0  0.657584142705053  0.6633291006853157  0.648998766237778  1.0000
  H   H277      1.0  0.6467694384639601  0.6083700435124554  0.7170176796656085  1.0000
  H   H278      1.0  0.6548641048323367  0.5551058826099751  0.692048421198124  1.0000
  H   H279      1.0  0.6314070303383839  0.5884790244675542  0.6704002800515515  1.0000
  H   H280      1.0  0.681991461730428  0.6097069059811304  0.5928801506165416  1.0000
  H   H281      1.0  0.6754202255937302  0.5560782839112439  0.6197973809979962  1.0000
  H   H282      1.0  0.6521146648174986  0.5890215727468596  0.5976355250584406  1.0000
  H   H283      1.0  0.7024862673854052  0.6367098462667196  0.6576555893214063  1.0000
  H   H284      1.0  0.6954339049919536  0.5836362186319  0.6855293104257558  1.0000
  H   H285      1.0  0.6874819581279  0.6372193841725233  0.7101143996784256  1.0000
  H   H286      1.0  0.6551485096142876  0.682586413704199  0.6800610399115147  1.0000
  H   H287      1.0  0.640294704025716  0.6624969165789488  0.6330958360118444  1.0000
  H   H288      1.0  0.6700925769956968  0.6835260651558996  0.6276305079769277  1.0000
  N   N9        1.0  0.566368694336842  0.40519331311002044  0.7854913665986201  1.0000
  C   C321      1.0  0.5835014131417064  0.39049965303053413  0.751566063498911  1.0000
  C   C322      1.0  0.5672073220656394  0.45604727771621706  0.7894680005064576  1.0000
  C   C323      1.0  0.5722287978928912  0.3841249763732011  0.8275160239987492  1.0000
  C   C324      1.0  0.5425798732639376  0.38986444121307806  0.7735456124608286  1.0000
  H   H289      1.0  0.6016571248603723  0.4012866500237499  0.7596981610277577  1.0000
  H   H290      1.0  0.5795962878105064  0.40548261872857516  0.7192701222373643  1.0000
  H   H291      1.0  0.5833221112937542  0.3521547872288006  0.7480515492865679  1.0000
  H   H292      1.0  0.5544843879453817  0.4681559834841314  0.814925227136506  1.0000
  H   H293      1.0  0.5848590593350144  0.4686868097627466  0.7989909795847748  1.0000
  H   H294      1.0  0.5629875012504059  0.47333385471263395  0.7583615856346162  1.0000
  H   H295      1.0  0.5902040400869664  0.39428605097141894  0.837328321547143  1.0000
  H   H296      1.0  0.5715419935215108  0.34583532177882725  0.8256572614729684  1.0000
  H   H297      1.0  0.5598388130425571  0.3946102786661607  0.8541420139590076  1.0000
  H   H298      1.0  0.5373003705987489  0.40593853152198683  0.7424933883131781  1.0000
  H   H299      1.0  0.5292793162137939  0.3988849556709353  0.7991683448305057  1.0000
  H   H300      1.0  0.5415806058047659  0.3517273611327153  0.7691248635370573  1.0000
  N   N10       1.0  0.29132028112980035  0.6423961193118295  0.6098697875866415  1.0000
  C   C325      1.0  0.28345656087647114  0.685331157277643  0.6311277693925618  1.0000
  C   C326      1.0  0.27827040099283856  0.6353929978351536  0.5695770265301244  1.0000
  C   C327      1.0  0.28675637925806025  0.6027487801961433  0.6395367413178734  1.0000
  C   C328      1.0  0.31667414784599957  0.6462450510333028  0.5990571577287729  1.0000
  H   H301      1.0  0.29304544284978995  0.6922011283176829  0.6614008426169354  1.0000
  H   H302      1.0  0.2644966528833513  0.6832285650324774  0.6402073465775183  1.0000
  H   H303      1.0  0.2862249633710152  0.7158134519149293  0.6093250777890045  1.0000
  H   H304      1.0  0.28072984073055557  0.6653956326792309  0.5471172735181371  1.0000
  H   H305      1.0  0.28421568623675963  0.6042116504082364  0.5516401816049343  1.0000
  H   H306      1.0  0.2591690431544124  0.6310874092704681  0.5766816208382445  1.0000
  H   H307      1.0  0.2925619325318401  0.5698238091210851  0.6245709950410216  1.0000
  H   H308      1.0  0.26772781211761654  0.59867277318709  0.6480364790130873  1.0000
  H   H309      1.0  0.2961557417989617  0.6069936399899616  0.6705370191964081  1.0000
  H   H310      1.0  0.3271264058282245  0.6507656174693535  0.6288153096010687  1.0000
  H   H311      1.0  0.32071162511185486  0.6761749923497298  0.5770988201169875  1.0000
  H   H312      1.0  0.32306567039453943  0.6148539472369743  0.5820112045765986  1.0000
  N   N11       1.0  0.13078020181491024  0.1252164241164886  0.45917296445846334  1.0000
  C   C329      1.0  0.11443105882306126  0.15324153363097914  0.4857237757386178  1.0000
  C   C330      1.0  0.15045780240752116  0.1548223723466584  0.44267381957761587  1.0000
  C   C331      1.0  0.11833112041363858  0.10501156765978648  0.42210628167240377  1.0000
  C   C332      1.0  0.13991788951961892  0.08767490213298612  0.48619032939208456  1.0000
  H   H313      1.0  0.09935686371114327  0.13192606711260013  0.4987302887228327  1.0000
  H   H314      1.0  0.10700952416784082  0.1815937469837854  0.46618704691896173  1.0000
  H   H315      1.0  0.12333450895665199  0.16917166535750172  0.5139056692043472  1.0000
  H   H316      1.0  0.1601761149145109  0.17085098413591449  0.46987071494725985  1.0000
  H   H317      1.0  0.1632524281723604  0.13459976914113492  0.42291296988243204  1.0000
  H   H318      1.0  0.1442796571529854  0.18321831182789539  0.42161068597677537  1.0000
  H   H319      1.0  0.11113666969559732  0.132348878758638  0.4010454695341914  1.0000
  H   H320      1.0  0.10331998079487414  0.08255500545278238  0.43339809254849343  1.0000
  H   H321      1.0  0.13015254731893955  0.08347704214474594  0.40158786743421515  1.0000
  H   H322      1.0  0.15291643159167223  0.06678640986867967  0.4675263244420001  1.0000
  H   H323      1.0  0.12557781961204717  0.06402023546849822  0.49826880319101646  1.0000
  H   H324      1.0  0.14883650298547524  0.10163846414979538  0.5151683143232079  1.0000
  N   N12       1.0  0.6393377255051143  0.1131272459566872  0.036565159045202744  1.0000
  C   C333      1.0  0.6251851045345689  0.08739760995263944  0.0049293467768807275  1.0000
  C   C334      1.0  0.6236573007441337  0.14028383357415156  0.0652400089776981  1.0000
  C   C335      1.0  0.6560952820642545  0.14459023344975325  0.013299831208638091  1.0000
  C   C336      1.0  0.6523631511682401  0.08009243576234248  0.06294675119589255  1.0000
  H   H325      1.0  0.6364265697541249  0.06802973384291477  0.9814027157209331  1.0000
  H   H326      1.0  0.6143404616370689  0.11109389213098742  0.9856205544573269  1.0000
  H   H327      1.0  0.6130584161238317  0.06210709826330984  0.02160833516321148  1.0000
  H   H328      1.0  0.6336932702869774  0.1611706917876073  0.08893786493509515  1.0000
  H   H329      1.0  0.6129211659480037  0.16451604007280746  0.0463309224762003  1.0000
  H   H330      1.0  0.6112829953949155  0.11738587861485293  0.08412325276291321  1.0000
  H   H331      1.0  0.667004616938966  0.16442197708162404  0.03648827854975001  1.0000
  H   H332      1.0  0.6468494214443455  0.16990372779531146  0.993071684833999  1.0000
  H   H333      1.0  0.6679943860867038  0.1253245813616377  0.9908457172053611  1.0000
  H   H334      1.0  0.6647685106503951  0.05986199566079086  0.042371993395976526  1.0000
  H   H335      1.0  0.6402313600191736  0.055073273865036576  0.07998008281399893  1.0000
  H   H336      1.0  0.6626568419639098  0.09819369297178548  0.08818610011929096  1.0000
  N   N13       1.0  0.02556944921048654  0.5878846078128538  0.154074171331932  1.0000
  C   C337      1.0  0.04766432685191857  0.6146058592471741  0.14705027672686763  1.0000
  C   C338      1.0  0.02720087232143742  0.5432882821176782  0.130996283307365  1.0000
  C   C339      1.0  0.0059382103374592266  0.6143934427062091  0.13700147560470244  1.0000
  C   C340      1.0  0.021507284447612296  0.5792344872181682  0.20117508490261754  1.0000
  H   H337      1.0  0.04688153725742161  0.6488996503640768  0.16318753461541513  1.0000
  H   H338      1.0  0.05154827935286077  0.6207788621063707  0.11178205919048877  1.0000
  H   H339      1.0  0.0627847025430921  0.5960650896460195  0.16026722332165758  1.0000
  H   H340      1.0  0.010952554152946936  0.5219253027734846  0.1359794537657768  1.0000
  H   H341      1.0  0.029915802678306402  0.54845685351109  0.09532538589386318  1.0000
  H   H342      1.0  0.04213066757366635  0.5227721868912919  0.142512861837306  1.0000
  H   H343      1.0  0.004093099220453089  0.6481059589986502  0.1539452497951169  1.0000
  H   H344      1.0  0.9889963456516848  0.5950674847906694  0.14114928641879773  1.0000
  H   H345      1.0  0.008638397854860314  0.6220247386462611  0.1016403454985184  1.0000
  H   H346      1.0  0.004758104057483781  0.5599221577385671  0.20786855745516594  1.0000
  H   H347      1.0  0.02060340937683347  0.6120520552506605  0.21994464555158785  1.0000
  H   H348      1.0  0.03578897864512287  0.558474519141274  0.21487182549582373  1.0000
  N   N14       1.0  0.8972294980590243  0.5545420390116776  0.7431316938354384  1.0000
  C   C341      1.0  0.9192297869701557  0.5695193646531942  0.7634173158942362  1.0000
  C   C342      1.0  0.8994614992562399  0.5064724617341414  0.7277787362162679  1.0000
  C   C343      1.0  0.8925816116860003  0.5850149688260308  0.7058021630793968  1.0000
  C   C344      1.0  0.8776712045329803  0.5570891030785932  0.7755446835664974  1.0000
  H   H349      1.0  0.9180925008099252  0.6055006850352637  0.7758127380138701  1.0000
  H   H350      1.0  0.9343207060577126  0.5684469012213974  0.7398465318999384  1.0000
  H   H351      1.0  0.9234237590705268  0.5468174485281849  0.7913490100287977  1.0000
  H   H352      1.0  0.8830674810054061  0.49397976414716366  0.7125764816900161  1.0000
  H   H353      1.0  0.9139680017751564  0.5034909028595055  0.7029846632491656  1.0000
  H   H354      1.0  0.9032001395195743  0.48260386973449315  0.7551180519372744  1.0000
  H   H355      1.0  0.8758662813048256  0.5750427985350818  0.6902007214710715  1.0000
  H   H356      1.0  0.9068678205898035  0.5833230280108306  0.6803953641961362  1.0000
  H   H357      1.0  0.8911353836033561  0.6216733119453983  0.7161283442421693  1.0000
  H   H358      1.0  0.8607679383107111  0.545700913810282  0.7615289941688344  1.0000
  H   H359      1.0  0.8753788416754774  0.5929872272494605  0.7875714299806585  1.0000
  H   H360      1.0  0.8807238974526407  0.5347782501339121  0.8043400817584999  1.0000
  N   N15       1.0  0.3600611765419338  0.520189076538964  0.3913781630365708  1.0000
  C   C345      1.0  0.3803417246753792  0.5477888669793524  0.37436561253192907  1.0000
  C   C346      1.0  0.3636158527750658  0.5082255488781897  0.4374725139185128  1.0000
  C   C347      1.0  0.35786801233706056  0.4773016195862202  0.3657104849515934  1.0000
  C   C348      1.0  0.33853069092004556  0.5474280519079328  0.38799544371830325  1.0000
  H   H361      1.0  0.3784076983535057  0.55730252704754  0.3395686918382867  1.0000
  H   H362      1.0  0.3969037621758318  0.5285149455123309  0.3768691881267197  1.0000
  H   H363      1.0  0.382584425946426  0.5804264781678379  0.3928278730625885  1.0000
  H   H364      1.0  0.3483927149747998  0.4883748767304632  0.4517592237294751  1.0000
  H   H365      1.0  0.3794321492106714  0.48690118483468287  0.4411535425215651  1.0000
  H   H366      1.0  0.36621372983565237  0.5396353287327756  0.4575524899367594  1.0000
  H   H367      1.0  0.34285690511943673  0.4553093974959212  0.37781067958123565  1.0000
  H   H368      1.0  0.37397693207910565  0.4562300236309008  0.3674591962335703  1.0000
  H   H369      1.0  0.35513139206541416  0.4849470204419842  0.33073077501011183  1.0000
  H   H370      1.0  0.3227951866914751  0.527710704804127  0.40036667609847354  1.0000
  H   H371      1.0  0.3354196722195835  0.5575720481908317  0.3537136231428865  1.0000
  H   H372      1.0  0.33961570209981295  0.579879582355514  0.4073037289808785  1.0000
  N   N16       1.0  0.8201895749191435  0.9568897748132463  0.8600650562418028  1.0000
  C   C349      1.0  0.8152580786401722  0.9978534012462016  0.8332220917082133  1.0000
  C   C350      1.0  0.8378362064895041  0.9690898078548389  0.8924520125651056  1.0000
  C   C351      1.0  0.8293319449029193  0.9197801547630889  0.8317518839955659  1.0000
  C   C352      1.0  0.7984090263419241  0.9409434183507246  0.8829731061526613  1.0000
  H   H373      1.0  0.8012643265930803  0.9902066200666803  0.8096330464621321  1.0000
  H   H374      1.0  0.8311177904781554  0.009807095414164246  0.81423484556488  1.0000
  H   H375      1.0  0.8092464687313785  0.027251777674520472  0.8537184413526971  1.0000
  H   H376      1.0  0.8316195590274017  0.9970564741154055  0.9143832139086947  1.0000
  H   H377      1.0  0.8420560835959312  0.9390098778084444  0.9132115563600409  1.0000
  H   H378      1.0  0.8544680169702384  0.9813627667026694  0.8763907777865761  1.0000
  H   H379      1.0  0.832365712526968  0.8877127594483599  0.8506108427294866  1.0000
  H   H380      1.0  0.8462465649887299  0.9304582282318957  0.8153687580269471  1.0000
  H   H381      1.0  0.8169075386020717  0.9109586135321843  0.8057878682709714  1.0000
  H   H382      1.0  0.8014940822880515  0.9105458647626372  0.9041201977714172  1.0000
  H   H383      1.0  0.7847859968274745  0.9307196389812405  0.859624399894331  1.0000
  H   H384      1.0  0.7909472796215984  0.9687550591026122  0.9038555498082271  1.0000
  N   N17       1.0  0.2900048184139708  0.3889616065907657  0.793369802048131  1.0000
  C   C353      1.0  0.28599025779202375  0.3688254721567036  0.8372527250223937  1.0000
  C   C354      1.0  0.27662734954137913  0.36183879660346147  0.7615084738874677  1.0000
  C   C355      1.0  0.3152547686434378  0.3877844331803136  0.7815108061657079  1.0000
  C   C356      1.0  0.2821510274323437  0.4373229550776239  0.7932198404172531  1.0000
  H   H385      1.0  0.2956044859757088  0.38865781583741277  0.862245994147588  1.0000
  H   H386      1.0  0.29203830386529733  0.3324540689051198  0.8385384824152332  1.0000
  H   H387      1.0  0.2670496425949238  0.3686386002819328  0.8469764018699308  1.0000
  H   H388      1.0  0.2790124595047257  0.3762020917713466  0.7280448628936866  1.0000
  H   H389      1.0  0.2822217633799832  0.3251968197542177  0.7606467092695707  1.0000
  H   H390      1.0  0.2575252510870833  0.36162387571663546  0.7697069448031183  1.0000
  H   H391      1.0  0.3189124139986202  0.40252897435260077  0.7484854748047459  1.0000
  H   H392      1.0  0.32179195004322836  0.3517529108777314  0.7814814175480248  1.0000
  H   H393      1.0  0.3258642456994092  0.40796351883449666  0.8048635285552552  1.0000
  H   H394      1.0  0.29175281270047404  0.4588879123047606  0.8170292074102049  1.0000
  H   H395      1.0  0.2631421595532081  0.43952480558014045  0.8018241105431205  1.0000
  H   H396      1.0  0.2850712686153011  0.4536744497225639  0.7606494265885423  1.0000
  N   N18       1.0  0.1436217373027988  0.7318563647165581  0.1821213279673192  1.0000
  C   C357      1.0  0.12840128709056597  0.6915279640449898  0.19361427696531147  1.0000
  C   C358      1.0  0.15823838209843966  0.7210526624881767  0.14312412006968  1.0000
  C   C359      1.0  0.15890018484428037  0.7429003967282427  0.21882479683613623  1.0000
  C   C360      1.0  0.12892565588426708  0.77204706921743  0.17298504232135553  1.0000
  H   H397      1.0  0.11594731222086319  0.699605530906004  0.22091452426836128  1.0000
  H   H398      1.0  0.13883637957097417  0.6615981790560082  0.20403032512052782  1.0000
  H   H399      1.0  0.1178663701121676  0.6800962303322016  0.1655992477716029  1.0000
  H   H400      1.0  0.17015733900999153  0.7504838243308054  0.1337723810580189  1.0000
  H   H401      1.0  0.16915933333901934  0.6902117534070128  0.14853206265636895  1.0000
  H   H402      1.0  0.1472953853983372  0.7134165379748125  0.11458312059188834  1.0000
  H   H403      1.0  0.1707357447766673  0.7729590735187709  0.21117627863408261  1.0000
  H   H404      1.0  0.17004602608993347  0.7131874892116313  0.2271975568900285  1.0000
  H   H405      1.0  0.1484061075030083  0.7516627757591041  0.24866985168056926  1.0000
  H   H406      1.0  0.11669608863594583  0.7646776529301739  0.1462908060422264  1.0000
  H   H407      1.0  0.1397399983767007  0.80280996308619  0.16277135065542303  1.0000
  H   H408      1.0  0.11812041847350341  0.7819231424680453  0.20210409420079795  1.0000
  N   N19       1.0  0.1553379050827494  0.2421709471108482  0.8593029206453572  1.0000
  C   C361      1.0  0.15855731464131886  0.26233947142609043  0.8152284774477486  1.0000
  C   C362      1.0  0.15156616655478566  0.19166252768956923  0.8559522275674368  1.0000
  C   C363      1.0  0.1347616352780253  0.2627745742553044  0.8814708694905513  1.0000
  C   C364      1.0  0.17643338136831813  0.2519567740749149  0.8846954661418125  1.0000
  H   H409      1.0  0.173499058772359  0.2465311808932602  0.7970917282387932  1.0000
  H   H410      1.0  0.16240015454883502  0.3001694519981095  0.8164172745663685  1.0000
  H   H411      1.0  0.14277901730272496  0.25690272062431585  0.795384263075124  1.0000
  H   H412      1.0  0.14824710085416545  0.17560469493903327  0.8885040342518286  1.0000
  H   H413      1.0  0.1363148812014629  0.18284159378966836  0.8356726350240461  1.0000
  H   H414      1.0  0.16713189078527876  0.17450895935795346  0.8411836911694672  1.0000
  H   H415      1.0  0.13207906036768408  0.24862794362437848  0.9150450951718182  1.0000
  H   H416      1.0  0.1184638642842492  0.2554635343716717  0.8635246508454185  1.0000
  H   H417      1.0  0.13689844348033364  0.3009518834198472  0.8840970641167464  1.0000
  H   H418      1.0  0.19241860339886926  0.23802938689211686  0.8683858377081473  1.0000
  H   H419      1.0  0.17506636573875603  0.23587666345288844  0.9176383122245263  1.0000
  H   H420      1.0  0.17950459599077093  0.28969590304334214  0.8889176534631233  1.0000
  N   N20       1.0  0.6860406286879086  0.07672111922076685  0.34565571550125856  1.0000
  C   C365      1.0  0.6899933432541712  0.03915228667604209  0.31395798977017164  1.0000
  C   C366      1.0  0.7026446263147564  0.07261717540667956  0.38143348791772863  1.0000
  C   C367      1.0  0.6617484616150804  0.07349759623221508  0.3634583068821733  1.0000
  C   C368      1.0  0.6898437652562198  0.12176637086531805  0.32365850034466287  1.0000
  H   H421      1.0  0.6785836999280547  0.04265805305609405  0.28540927640911007  1.0000
  H   H422      1.0  0.6860303555453966  0.004612137657003412  0.3286721344018106  1.0000
  H   H423      1.0  0.7084684289515283  0.03920715686355525  0.30140564419940985  1.0000
  H   H424      1.0  0.7002970374315433  0.10068836731009578  0.40582995649943227  1.0000
  H   H425      1.0  0.7002900831186311  0.03904931813196444  0.39885555118238863  1.0000
  H   H426      1.0  0.7211531366184621  0.0750203528665967  0.36900762720451824  1.0000
  H   H427      1.0  0.6582120789384166  0.10097993297083763  0.38787763719226365  1.0000
  H   H428      1.0  0.6580549884204135  0.039457022691710364  0.3793922110123699  1.0000
  H   H429      1.0  0.6488216030811519  0.07708399074690386  0.3373178483789243  1.0000
  H   H430      1.0  0.6780280413656123  0.1258857318920028  0.2958323984595591  1.0000
  H   H431      1.0  0.7080422900692677  0.12523232304238596  0.31032481990698  1.0000
  H   H432      1.0  0.6868362517328819  0.1510461628550379  0.34639830459223386  1.0000
  N   N21       1.0  0.4865501019197464  0.39519086469704323  0.4621308451890217  1.0000
  C   C369      1.0  0.497438908077277  0.4270332804478475  0.4934867257955973  1.0000
  C   C370      1.0  0.5017176607045722  0.35495096795002956  0.45489898712094573  1.0000
  C   C371      1.0  0.48354889990032573  0.4195894030125688  0.42040871897209164  1.0000
  C   C372      1.0  0.4634400707200932  0.37925247495105047  0.4798045042420879  1.0000
  H   H433      1.0  0.4863113513740998  0.4577209961806744  0.4996861166914073  1.0000
  H   H434      1.0  0.514873122351861  0.4399710601464327  0.48120032682129377  1.0000
  H   H435      1.0  0.4999252073021489  0.4097202408977047  0.5253778898105356  1.0000
  H   H436      1.0  0.5044442122296726  0.33584130929491385  0.4858155266388817  1.0000
  H   H437      1.0  0.49373115756156133  0.32982218551859  0.4320164427240936  1.0000
  H   H438      1.0  0.5192614454336758  0.3654089419797187  0.44121537582686726  1.0000
  H   H439      1.0  0.5006924310301888  0.43014186435975876  0.4050281385338366  1.0000
  H   H440      1.0  0.4733259056475946  0.4516032872430543  0.4252022947102328  1.0000
  H   H441      1.0  0.4740472454804901  0.39754155180991985  0.39681211413312384  1.0000
  H   H442      1.0  0.465111970630637  0.35981268399401434  0.5108555770144305  1.0000
  H   H443      1.0  0.4545420345003193  0.35551500832464994  0.45680810680068495  1.0000
  H   H444      1.0  0.45167130150009727  0.4088342336414792  0.48631584596974664  1.0000
  N   N22       1.0  0.7865851180060254  0.12516533067935118  0.13915565279985495  1.0000
  C   C373      1.0  0.8058456181600311  0.13187802548906188  0.10640301827503039  1.0000
  C   C374      1.0  0.7915667078762068  0.15282503186233473  0.1782936671588426  1.0000
  C   C375      1.0  0.7845626704038733  0.07576801464703718  0.15128638581928736  1.0000
  C   C376      1.0  0.7643349612464263  0.14014650753514246  0.12068490622575534  1.0000
  H   H445      1.0  0.8078727831346153  0.16880580278740281  0.09653239530413459  1.0000
  H   H446      1.0  0.8026938321843572  0.11154940847413464  0.07630913411517869  1.0000
  H   H447      1.0  0.8229047765312146  0.1208471022953843  0.11922594309924571  1.0000
  H   H448      1.0  0.7774325127810578  0.1483717941615419  0.20369984015179773  1.0000
  H   H449      1.0  0.8081716880697366  0.14236990505785108  0.193319454185472  1.0000
  H   H450      1.0  0.7930804770449715  0.19038230027486006  0.17064365614782787  1.0000
  H   H451      1.0  0.7810964276369678  0.05371638149825241  0.1225120998963738  1.0000
  H   H452      1.0  0.769975182063966  0.06941073592277468  0.17554246057450404  1.0000
  H   H453      1.0  0.8008490967262212  0.06348024313515731  0.1662399575648345  1.0000
  H   H454      1.0  0.7493528125069783  0.13465456654946212  0.14422007682192245  1.0000
  H   H455      1.0  0.7602298988148457  0.12053763296101704  0.09068344745687895  1.0000
  H   H456      1.0  0.7649994145709956  0.17754498917809133  0.11213039857866657  1.0000
  N   N23       1.0  0.8450039851478283  0.15468663887078946  0.7130326270193783  1.0000
  C   C377      1.0  0.849132787494519  0.2051004001338996  0.7093434559808908  1.0000
  C   C378      1.0  0.8298749077213758  0.1389354103615663  0.6775473050175664  1.0000
  C   C379      1.0  0.8334275832545784  0.14389625693410343  0.75561673369945  1.0000
  C   C380      1.0  0.8676789985952693  0.1309877418692429  0.7095536698569544  1.0000
  H   H457      1.0  0.8577507511535486  0.21451876673608364  0.677473230361897  1.0000
  H   H458      1.0  0.8606802216837889  0.21797529275292696  0.735504238413511  1.0000
  H   H459      1.0  0.8324189217245551  0.22416011535023536  0.7122331535902199  1.0000
  H   H460      1.0  0.8264504716142579  0.100991378877477  0.6791233693391185  1.0000
  H   H461      1.0  0.8125267313123326  0.15588100759645196  0.679097546536065  1.0000
  H   H462      1.0  0.8380528853903358  0.14670263726031682  0.6448917763680683  1.0000
  H   H463      1.0  0.8303649559416765  0.10612857060275416  0.7599365046441701  1.0000
  H   H464      1.0  0.8161278517594521  0.16086771409263978  0.7591361486083386  1.0000
  H   H465      1.0  0.8442362661330701  0.15610876072085272  0.7830733774644504  1.0000
  H   H466      1.0  0.8653158449341581  0.09281471810548925  0.7117388751570954  1.0000
  H   H467      1.0  0.8794838913379996  0.14178708693023756  0.7360244007121624  1.0000
  H   H468      1.0  0.8769560569003799  0.13907083902143103  0.6779789495817329  1.0000
  N   N24       1.0  0.13822779770910665  0.14072457065842192  0.18332957073909423  1.0000
  C   C381      1.0  0.11810272013607337  0.16648521399833718  0.2014467741816193  1.0000
  C   C382      1.0  0.13735245540176666  0.09297484691751022  0.2005229222043457  1.0000
  C   C383      1.0  0.1603009343044517  0.16381262500881608  0.1959392776476016  1.0000
  C   C384      1.0  0.1371223465847633  0.13963860669198674  0.13534936416679996  1.0000
  H   H469      1.0  0.1011785398360665  0.1490266397431053  0.19412752261107158  1.0000
  H   H470      1.0  0.11766243388175335  0.20213558871283155  0.1878983348308465  1.0000
  H   H471      1.0  0.11877353056404583  0.16963023526938148  0.2373837825986728  1.0000
  H   H472      1.0  0.1523826541389932  0.07260439711405264  0.1877630473455095  1.0000
  H   H473      1.0  0.13801624889138453  0.09252594086020792  0.23666128352406623  1.0000
  H   H474      1.0  0.12093077850552825  0.07454703515477278  0.19141305539622627  1.0000
  H   H475      1.0  0.17588153266820417  0.1457283458006798  0.1822964041993528  1.0000
  H   H476      1.0  0.16191805248036095  0.16456095142531366  0.2319272962723587  1.0000
  H   H477      1.0  0.16127866100817023  0.2002432635393163  0.18425984285278538  1.0000
  H   H478      1.0  0.15191674728925553  0.1202176199014535  0.12040048187188801  1.0000
  H   H479      1.0  0.13780870638837794  0.17512830865235324  0.1212195505528284  1.0000
  H   H480      1.0  0.12054208603204741  0.1229884783568571  0.12463190488931852  1.0000
  N   N25       1.0  0.9656700975130543  0.8756675206414957  0.5089978220992384  1.0000
  C   C385      1.0  0.9661285530817448  0.9240263112435413  0.49338848010751657  1.0000
  C   C386      1.0  0.9522060943080902  0.8724577941736228  0.5507895021570619  1.0000
  C   C387      1.0  0.9898698379571518  0.8603214309635207  0.5154217256127464  1.0000
  C   C388      1.0  0.9545107915500429  0.8458462341811958  0.47628718422806676  1.0000
  H   H481      1.0  0.9758957981780758  0.9279073731526182  0.4616802094878505  1.0000
  H   H482      1.0  0.9746937434817091  0.9476733224857843  0.5168250863213415  1.0000
  H   H483      1.0  0.9481047189404413  0.9368111764425793  0.4886060356555746  1.0000
  H   H484      1.0  0.9521732527092505  0.8368167654837021  0.5644087102979208  1.0000
  H   H485      1.0  0.9597451183707055  0.8955852710264297  0.5758305206018778  1.0000
  H   H486      1.0  0.9335919160171141  0.8822389626341951  0.5470654219490203  1.0000
  H   H487      1.0  0.9900731472505676  0.8239191150160879  0.5273560507542261  1.0000
  H   H488      1.0  0.9989249713659129  0.8822010742043714  0.5396711062518694  1.0000
  H   H489      1.0  0.0004417738913586877  0.8616313614313806  0.48442768243485484  1.0000
  H   H490      1.0  0.9637170211170427  0.848845861043142  0.44396430202878256  1.0000
  H   H491      1.0  0.9358419134355641  0.8548034231017747  0.4720677735204661  1.0000
  H   H492      1.0  0.9550194510628629  0.8088121337388334  0.4857578943415523  1.0000
  N   N26       1.0  0.01838910246586356  0.2941625095158143  0.9525815939970759  1.0000
  C   C389      1.0  0.027360262968110227  0.25912953619355633  0.9826536514127174  1.0000
  C   C390      1.0  0.02735036035447269  0.340465598923695  0.9645190776194095  1.0000
  C   C391      1.0  0.9925072758985434  0.2936204195675993  0.9554470698290201  1.0000
  C   C392      1.0  0.026277356024984933  0.28359835480221424  0.9075306644695297  1.0000
  H   H493      1.0  0.021083631504102973  0.22376689007483913  0.9740009258902014  1.0000
  H   H494      1.0  0.02155049411186849  0.26583029980454886  0.01687906239290804  1.0000
  H   H495      1.0  0.04685036255750541  0.258631915566897  0.9815959860928292  1.0000
  H   H496      1.0  0.021703342978178553  0.3501514293237744  0.998183711024411  1.0000
  H   H497      1.0  0.04680991823712466  0.34251411670146414  0.9625012008835494  1.0000
  H   H498      1.0  0.02073138598908808  0.36750548035360997  0.9423860994716304  1.0000
  H   H499      1.0  0.9851053748090163  0.31725539528993424  0.930984294084787  1.0000
  H   H500      1.0  0.9858762185262347  0.3045903378288466  0.9881250494850552  1.0000
  H   H501      1.0  0.9851486431856447  0.2585323894841283  0.9492847251985157  1.0000
  H   H502      1.0  0.045567188764108035  0.27937045853062353  0.9049155096770133  1.0000
  H   H503      1.0  0.02161616526186183  0.3115155159962473  0.884543686844853  1.0000
  H   H504      1.0  0.017957703908485056  0.25120866486182053  0.895675244830864  1.0000
  N   N27       1.0  0.5047863518156385  0.7034984233685913  0.832331749321461  1.0000
  C   C393      1.0  0.5018805589577837  0.7341244938981625  0.8704060109173987  1.0000
  C   C394      1.0  0.5198842077155934  0.6645998606985295  0.8436018857425088  1.0000
  C   C395      1.0  0.5157437426549196  0.7299380196751162  0.7956466790067342  1.0000
  C   C396      1.0  0.4816262455557237  0.6853466410403249  0.8196353983354754  1.0000
  H   H505      1.0  0.4904985348793597  0.7637746670211274  0.8629391420718706  1.0000
  H   H506      1.0  0.5189977202619563  0.7487637477757447  0.8805823602352181  1.0000
  H   H507      1.0  0.4935120295698033  0.7154345658988439  0.898608286222191  1.0000
  H   H508      1.0  0.5224619393798213  0.6410199834107833  0.8154811506742025  1.0000
  H   H509      1.0  0.5375244293091613  0.6769844258246549  0.8532186429846976  1.0000
  H   H510      1.0  0.5120743278211363  0.6436147041516301  0.8708934914175332  1.0000
  H   H511      1.0  0.5174092881821901  0.7083761130654641  0.7658654325686002  1.0000
  H   H512      1.0  0.5336147635537657  0.7428113237616087  0.8033050597622376  1.0000
  H   H513      1.0  0.5051168684504642  0.7604033959189052  0.7872635213562426  1.0000
  H   H514      1.0  0.48315903751922723  0.6620361860212457  0.7910458221059297  1.0000
  H   H515      1.0  0.46984455129620173  0.7137159380974971  0.8105257079819225  1.0000
  H   H516      1.0  0.4726686781393554  0.6654621854092764  0.8464698351151517  1.0000
  N   N28       1.0  0.7529806572720757  0.30430120726264853  0.4963863281850422  1.0000
  C   C397      1.0  0.776288059093583  0.2833132149617697  0.4991145663798706  1.0000
  C   C398      1.0  0.7368700254446908  0.2832770367343322  0.5296687655361337  1.0000
  C   C399      1.0  0.7436253921390938  0.2959092808142173  0.45280392144557996  1.0000
  C   C400      1.0  0.755055173142267  0.3546477664253287  0.503674719376581  1.0000
  H   H517      1.0  0.7752213026660636  0.24528340870310797  0.49395383379672575  1.0000
  H   H518      1.0  0.7839884714488524  0.2892894624044975  0.5314911201527693  1.0000
  H   H519      1.0  0.7887880113266086  0.29796969067947043  0.47397888669189875  1.0000
  H   H520      1.0  0.7191159980918009  0.29838784685733766  0.5284335636197599  1.0000
  H   H521      1.0  0.7347635820721403  0.24531755418707538  0.5245806224931656  1.0000
  H   H522      1.0  0.7434115327205726  0.2885741646787449  0.5630508067825928  1.0000
  H   H523      1.0  0.7260081527570745  0.3111290987028358  0.44970516397075616  1.0000
  H   H524      1.0  0.7417604212735657  0.2584810562450091  0.4459131256233095  1.0000
  H   H525      1.0  0.7553788360703433  0.3109995524035456  0.4268231630415854  1.0000
  H   H526      1.0  0.7377914256741203  0.37163971584214917  0.5011597931433904  1.0000
  H   H527      1.0  0.7671268092227861  0.37148748477593674  0.479029337617604  1.0000
  H   H528      1.0  0.7619076890986701  0.36264149929655054  0.5363685874450245  1.0000
  N   N29       1.0  0.825963883998616  0.013212526490541608  0.514237208368299  1.0000
  C   C401      1.0  0.8383586040919009  0.9699735049262108  0.5043385770411288  1.0000
  C   C402      1.0  0.8326840657164416  0.030177936317724804  0.5575366961817089  1.0000
  C   C403      1.0  0.800412521076563  0.004132957477483545  0.514429259584603  1.0000
  C   C404      1.0  0.8323483947355834  0.04838042105286511  0.4807342430847793  1.0000
  H   H529      1.0  0.8334357736821895  0.9556396248677451  0.4722829614700726  1.0000
  H   H530      1.0  0.8343766072686783  0.9430682344576753  0.5296153042352253  1.0000
  H   H531      1.0  0.8576973015931841  0.9756020218913449  0.5034618733829869  1.0000
  H   H532      1.0  0.8266617539882648  0.0059896605879230505  0.5839663804729097  1.0000
  H   H533      1.0  0.8519377117209793  0.03410067803916039  0.5599127107306858  1.0000
  H   H534      1.0  0.8251408100262084  0.06448976760884517  0.5647205289564144  1.0000
  H   H535      1.0  0.7905004531894033  0.03575268171973466  0.5226060073651291  1.0000
  H   H536      1.0  0.7950441539408276  0.977550890300112  0.5391866026742836  1.0000
  H   H537      1.0  0.7945952798937936  0.9919304658949584  0.4821439049950243  1.0000
  H   H538      1.0  0.8280663737519374  0.03643449900025119  0.44747538870162445  1.0000
  H   H539      1.0  0.8513897145825812  0.057141220922172886  0.4805579535242104  1.0000
  H   H540      1.0  0.8228605904677521  0.0810634890585844  0.486484636115765  1.0000
  N   N30       1.0  0.7110227036497632  0.5111063289470757  0.3113062043515763  1.0000
  C   C405      1.0  0.697170940855098  0.5031309970087045  0.3520800903353936  1.0000
  C   C406      1.0  0.6959394232683915  0.5028094447281033  0.27375595329806934  1.0000
  C   C407      1.0  0.730919304864363  0.47915776199899196  0.3093622199027587  1.0000
  C   C408      1.0  0.7199564235405964  0.559350116738685  0.31001928589670724  1.0000
  H   H541      1.0  0.6815738687526532  0.525505997316193  0.3539763512961735  1.0000
  H   H542      1.0  0.7077083767518602  0.510658316149314  0.3811851501299327  1.0000
  H   H543      1.0  0.6908777510840386  0.4665971406927359  0.3550362631830307  1.0000
  H   H544      1.0  0.7057960539458243  0.5085964794935885  0.24239250642231636  1.0000
  H   H545      1.0  0.6888489686121942  0.46672643190308327  0.2738418199854046  1.0000
  H   H546      1.0  0.6807380776741754  0.5264472594948066  0.27432297368138114  1.0000
  H   H547      1.0  0.7417619549644593  0.48399240287281126  0.27898823314642174  1.0000
  H   H548      1.0  0.7248371234951584  0.4423943914696447  0.31066468593241364  1.0000
  H   H549      1.0  0.7426596146496861  0.4845980140950528  0.337182747235889  1.0000
  H   H550      1.0  0.7312050333542225  0.5663286414974668  0.2805126894417979  1.0000
  H   H551      1.0  0.7305959757757322  0.5676329165565455  0.3389125497415736  1.0000
  H   H552      1.0  0.7053542460799914  0.5842438911966302  0.30978473433472026  1.0000
  N   N31       1.0  0.9821742085996314  0.1502931367115762  0.7807633883562399  1.0000
  C   C409      1.0  0.9983091268253715  0.11877962900553961  0.7576525253205001  1.0000
  C   C410      1.0  0.969913683856298  0.12499317176794265  0.816740580922748  1.0000
  C   C411      1.0  0.9647446938032876  0.16766153467287487  0.7503967785973786  1.0000
  C   C412      1.0  0.995686723357885  0.18964219274941602  0.7983940080445673  1.0000
  H   H553      1.0  0.006887719409172988  0.13574815349977043  0.7286875727251966  1.0000
  H   H554      1.0  0.9888733175470862  0.08743519526081943  0.7460251644651718  1.0000
  H   H555      1.0  0.01228165227261857  0.10678991325132148  0.7792963645063447  1.0000
  H   H556      1.0  0.9580340015251458  0.14805244280107743  0.8356146148942912  1.0000
  H   H557      1.0  0.9590583710122972  0.09577015206944405  0.8043373996943303  1.0000
  H   H558      1.0  0.9824826318212796  0.11025378368219062  0.8398025063388385  1.0000
  H   H559      1.0  0.9520402801297094  0.19080893133890017  0.7672187194144728  1.0000
  H   H560      1.0  0.9545191455697694  0.13879203132598472  0.7359478212132209  1.0000
  H   H561      1.0  0.9732581032824531  0.18749403692345715  0.7230362680676519  1.0000
  H   H562      1.0  0.008910344606952059  0.17784841640232807  0.8216713138411442  1.0000
  H   H563      1.0  0.9840712594536463  0.21409963592272027  0.8160365049232949  1.0000
  H   H564      1.0  0.005095322263165114  0.20960450064909092  0.7720927761822935  1.0000
  N   N32       1.0  0.7065746728171373  0.797853969899587  0.8304902482409167  1.0000
  C   C413      1.0  0.6835812633050818  0.7743722099184022  0.8380779743981157  1.0000
  C   C414      1.0  0.7201020771349966  0.7730941998840944  0.7963928332576565  1.0000
  C   C415      1.0  0.7196612947382302  0.7980064480172352  0.8712918605483464  1.0000
  C   C416      1.0  0.7029627469220752  0.8459784936011983  0.8162241797624384  1.0000
  H   H565      1.0  0.6729336568269103  0.7917537187419671  0.8639644032235033  1.0000
  H   H566      1.0  0.6855725507934978  0.7379242941390112  0.8486948678832147  1.0000
  H   H567      1.0  0.6731116274837372  0.7737874481798109  0.8081140890597597  1.0000
  H   H568      1.0  0.7232342192691747  0.7367189545647342  0.8060694706331986  1.0000
  H   H569      1.0  0.7108184228477509  0.7723488209065136  0.765091342203974  1.0000
  H   H570      1.0  0.7376151399702446  0.7896268185573507  0.7900517471979228  1.0000
  H   H571      1.0  0.723142639699928  0.7623055856812496  0.882544545023711  1.0000
  H   H572      1.0  0.709835144295366  0.8157446821420221  0.8979809399041492  1.0000
  H   H573      1.0  0.7370078693719186  0.8157096263020229  0.8669412087850182  1.0000
  H   H574      1.0  0.7199189358299887  0.8648346414711433  0.8100225200399431  1.0000
  H   H575      1.0  0.6929118224217776  0.8658184696790999  0.8412181704870493  1.0000
  H   H576      1.0  0.6931360662957448  0.8472743729129422  0.7855129140103718  1.0000
  N   N33       1.0  0.9947501857462056  0.5541664995108628  0.5026144327989892  1.0000
  C   C417      1.0  0.9711178667544186  0.5477594908820654  0.48495923500033516  1.0000
  C   C418      1.0  0.9995739768987669  0.5153847949700906  0.532239296382061  1.0000
  C   C419      1.0  0.9958396854541841  0.5980152159236318  0.5270173114240844  1.0000
  C   C420      1.0  0.012373122309538909  0.5555445299066316  0.4663929794825841  1.0000
  H   H577      1.0  0.9573881150720442  0.5465252326013131  0.5115124714467854  1.0000
  H   H578      1.0  0.9696285585296522  0.5150318778217039  0.4662979131221694  1.0000
  H   H579      1.0  0.9668264952941903  0.5764939253922231  0.4625604850820212  1.0000
  H   H580      1.0  0.01717055112029464  0.5192491583964063  0.546551649600938  1.0000
  H   H581      1.0  0.9864444291591458  0.5134647473425287  0.559830437193012  1.0000
  H   H582      1.0  0.9989372362685993  0.4816798578291099  0.51496893020783  1.0000
  H   H583      1.0  0.9917569092674826  0.6280369786662421  0.5060427915597435  1.0000
  H   H584      1.0  0.013517536267158237  0.6045224264530833  0.5402077725550908  1.0000
  H   H585      1.0  0.9830615642847605  0.5976836282972361  0.555051969255762  1.0000
  H   H586      1.0  0.011811230637011283  0.5233132417898638  0.4467560576048243  1.0000
  H   H587      1.0  0.0304492328987791  0.5599029859369926  0.4784813336075505  1.0000
  H   H588      1.0  0.009345869176218047  0.5848765649444637  0.44385898840632143  1.0000
  N   N34       1.0  0.23005444350477708  0.9031340016802628  0.5510183129025901  1.0000
  C   C421      1.0  0.25021889421165744  0.9200440539908094  0.5759164215069719  1.0000
  C   C422      1.0  0.21376943313636337  0.8767485465642687  0.5804082864049503  1.0000
  C   C423      1.0  0.23840002446427785  0.8728312342933214  0.5153977222608247  1.0000
  C   C424      1.0  0.21786295505599285  0.9428863121464408  0.532404977248246  1.0000
  H   H589      1.0  0.2445703515903337  0.9435303642737635  0.6026831542125908  1.0000
  H   H590      1.0  0.26300730486839735  0.939636555577077  0.5547339214895408  1.0000
  H   H591      1.0  0.25973290840470953  0.8909666956261866  0.590691754523332  1.0000
  H   H592      1.0  0.20677816926908324  0.8986326177553564  0.6073057522282216  1.0000
  H   H593      1.0  0.19863353183961086  0.8622380340773824  0.5625713046323044  1.0000
  H   H594      1.0  0.22260599160994157  0.8468956856993951  0.595410854907526  1.0000
  H   H595      1.0  0.24903711043416948  0.8923184800341075  0.49053405693413116  1.0000
  H   H596      1.0  0.22356975121904285  0.8561369608907429  0.49829571929829963  1.0000
  H   H597      1.0  0.24944288836260226  0.8446769541316169  0.5277638340418866  1.0000
  H   H598      1.0  0.2027114610960722  0.9313269879267424  0.5129729930017984  1.0000
  H   H599      1.0  0.22983305381522248  0.9636875780231007  0.5104195177723161  1.0000
  H   H600      1.0  0.21123763213542573  0.9665011772048123  0.5582982167715247  1.0000
  N   N35       1.0  0.8911110038769784  0.8279689045237638  0.7760242230923986  1.0000
  C   C425      1.0  0.9167844730050934  0.8343751966548609  0.7775357681145236  1.0000
  C   C426      1.0  0.8809454971938304  0.8667699835820555  0.752030682752945  1.0000
  C   C427      1.0  0.8810648807870154  0.8263049299331762  0.8208622621068169  1.0000
  C   C428      1.0  0.8855966637118271  0.7842100591389042  0.7537290802719784  1.0000
  H   H601      1.0  0.9249083838449044  0.8366082180377289  0.7442410796171582  1.0000
  H   H602      1.0  0.9249911425846681  0.8049564943357324  0.794379653878597  1.0000
  H   H603      1.0  0.9215414887767402  0.8665718254781098  0.7950764526679646  1.0000
  H   H604      1.0  0.8615138529084474  0.8635274822846334  0.7512000416531313  1.0000
  H   H605      1.0  0.8855690588493143  0.9006372164180946  0.7667911426528641  1.0000
  H   H606      1.0  0.8874120473181465  0.8677666322743287  0.7175973792600826  1.0000
  H   H607      1.0  0.8617387875588013  0.8209116049839847  0.8208509028369991  1.0000
  H   H608      1.0  0.8849205299749134  0.8589135798432994  0.8386432365223011  1.0000
  H   H609      1.0  0.8883449737072219  0.797173824632331  0.8397408992483626  1.0000
  H   H610      1.0  0.8664001326952873  0.7792071027037583  0.7510614915813358  1.0000
  H   H611      1.0  0.8924783747780665  0.7539287715369472  0.7714293900298954  1.0000
  H   H612      1.0  0.893271804371033  0.7837333130014034  0.7200878341563914  1.0000
  N   N36       1.0  0.2920823019024718  0.1484780043783625  0.6204120568691014  1.0000
  C   C429      1.0  0.26849526356470155  0.16794992797871044  0.6165329482460125  1.0000
  C   C430      1.0  0.2909431735216357  0.1093080940946447  0.6513815498839816  1.0000
  C   C431      1.0  0.30830734167786944  0.18451472390785215  0.6364523952456008  1.0000
  C   C432      1.0  0.3005339184320952  0.1321078154068639  0.5773424910288789  1.0000
  H   H613      1.0  0.2686568708982737  0.19839718322907654  0.5943358228706709  1.0000
  H   H614      1.0  0.261137569097347  0.17886374599510538  0.6486740033365043  1.0000
  H   H615      1.0  0.25595346914566225  0.14208139161743413  0.603553188352569  1.0000
  H   H616      1.0  0.30806846328806475  0.09187206980441419  0.6531841018298454  1.0000
  H   H617      1.0  0.28597785897180666  0.12088863706282414  0.6848677079182071  1.0000
  H   H618      1.0  0.2776267774609964  0.08287571136709859  0.6420230492056775  1.0000
  H   H619      1.0  0.30205126532737947  0.19833261788555845  0.6684480682323509  1.0000
  H   H620      1.0  0.3099853730409002  0.2141850753385694  0.6134168188094339  1.0000
  H   H621      1.0  0.3261180117245128  0.170677787695452  0.641196215865572  1.0000
  H   H622      1.0  0.3185443867406323  0.11836190611956375  0.5787880015349304  1.0000
  H   H623      1.0  0.3008285516949359  0.16046101145773545  0.5527553271741131  1.0000
  H   H624      1.0  0.28904719256262684  0.10377869784889238  0.5650307374262026  1.0000
  N   N37       1.0  0.9896739308620156  0.06408504035382512  0.11057001015362755  1.0000
  C   C433      1.0  0.9993027730737583  0.019798296552498096  0.12520091821441603  1.0000
  C   C434      1.0  0.9866993916975882  0.0953438853274522  0.14819491382362937  1.0000
  C   C435      1.0  0.9667551306134828  0.05559746028233814  0.09061301049900772  1.0000
  C   C436      1.0  0.006043848201100932  0.08563866581952162  0.07811232171503835  1.0000
  H   H625      1.0  0.001579383458798711  0.995320743221079  0.09753464891241048  1.0000
  H   H626      1.0  0.9876601912486156  0.002685829625442837  0.15025364018364162  1.0000
  H   H627      1.0  0.016898903822306632  0.02489544414338485  0.1393450087367898  1.0000
  H   H628      1.0  0.9798178129614078  0.12934747478606412  0.13813765738195039  1.0000
  H   H629      1.0  0.9743384320622909  0.080382251112467  0.17331849849547076  1.0000
  H   H630      1.0  0.00362088952724382  0.10220901350536238  0.16430008115262695  1.0000
  H   H631      1.0  0.9591731276222571  0.08822681565708956  0.07845263868223884  1.0000
  H   H632      1.0  0.9538299306645666  0.039690859034394954  0.11417938392151306  1.0000
  H   H633      1.0  0.9683203185755447  0.03196714416968183  0.06220958193343917  1.0000
  H   H634      1.0  0.9991121243705207  0.11838117582667174  0.06500330322169545  1.0000
  H   H635      1.0  0.00937907577403263  0.06222340080921418  0.050052422004759345  1.0000
  H   H636      1.0  0.02333266226229047  0.09346902139797097  0.09236541526399855  1.0000
  N   N38       1.0  0.40352015465406393  0.7675338160225766  0.5325058605463222  1.0000
  C   C437      1.0  0.40934529180472395  0.7940971524831754  0.5717862698078355  1.0000
  C   C438      1.0  0.4194233183224635  0.7280193999378238  0.5277731012136223  1.0000
  C   C439      1.0  0.4062978620835707  0.7978193126260958  0.4938451444908053  1.0000
  C   C440      1.0  0.3790471931095015  0.7502810443163831  0.5367598782251821  1.0000
  H   H637      1.0  0.3972325105978368  0.8232619567870701  0.5772808453253293  1.0000
  H   H638      1.0  0.42746579476751284  0.8086148686614446  0.5693495746560641  1.0000
  H   H639      1.0  0.4081091755561902  0.7719848096747907  0.6013490402944076  1.0000
  H   H640      1.0  0.4166079281443983  0.7026147276234385  0.5547347930621864  1.0000
  H   H641      1.0  0.4167577671434832  0.7094061490480741  0.4966613843049063  1.0000
  H   H642      1.0  0.4381308236995022  0.739415079997176  0.5279111512184503  1.0000
  H   H643      1.0  0.4014487492740427  0.7793127123306396  0.4636769992485743  1.0000
  H   H644      1.0  0.4248014515783653  0.8100336071467975  0.4890584888029612  1.0000
  H   H645      1.0  0.3950341533899591  0.8286186316228817  0.4967082317244524  1.0000
  H   H646      1.0  0.37410250662874667  0.7297218298120316  0.5079100616005466  1.0000
  H   H647      1.0  0.36653776245252245  0.7791204627755837  0.540028266058879  1.0000
  H   H648      1.0  0.3764061618845036  0.7277535774843412  0.5660496683890122  1.0000
  N   N39       1.0  0.046105572774219894  0.6282749683246797  0.8736106718822602  1.0000
  C   C441      1.0  0.0415182707682098  0.6578795304875387  0.9118726697153947  1.0000
  C   C442      1.0  0.042269296837224246  0.5792687040190645  0.886013097979771  1.0000
  C   C443      1.0  0.07060474833187746  0.6356099823857193  0.8578484614977381  1.0000
  C   C444      1.0  0.0300112391638081  0.6403618767784635  0.8387128258575974  1.0000
  H   H649      1.0  0.05345601588465576  0.6497491421341991  0.9386526331755065  1.0000
  H   H650      1.0  0.023253312961460937  0.6530429176337528  0.9250068065381484  1.0000
  H   H651      1.0  0.044195402144087126  0.6951336574706115  0.9038304335202516  1.0000
  H   H652      1.0  0.0446777457086418  0.5559704723892283  0.85750468577138  1.0000
  H   H653      1.0  0.05446456069405259  0.5684431523771685  0.9115676665240512  1.0000
  H   H654      1.0  0.024154499577151878  0.5729383642618271  0.8992718107100744  1.0000
  H   H655      1.0  0.07474194123668365  0.6136519127256636  0.8290766711696989  1.0000
  H   H656      1.0  0.08324897655234476  0.6272344861972515  0.8834769853637484  1.0000
  H   H657      1.0  0.07410362928872027  0.6722638562855018  0.8481359168247865  1.0000
  H   H658      1.0  0.031688472415248636  0.6775087488736351  0.829624639544233  1.0000
  H   H659      1.0  0.011396308084955509  0.6330403558057908  0.8487027478854233  1.0000
  H   H660      1.0  0.03363488294058792  0.6198755104229549  0.8087368591695877  1.0000
  N   N40       1.0  0.5588986215149945  0.6767881239135621  0.07058717843111229  1.0000
  C   C445      1.0  0.5737369221524994  0.6989661320137945  0.035981933943855626  1.0000
  C   C446      1.0  0.5728389580630898  0.6430759716622972  0.09447574980871676  1.0000
  C   C447      1.0  0.5387905756248028  0.6526550574596343  0.05098183679515578  1.0000
  C   C448      1.0  0.5502639071079928  0.7124543491606822  0.10101170093478329  1.0000
  H   H661      1.0  0.5642759561683268  0.7265351576034875  0.01883517803396173  1.0000
  H   H662      1.0  0.5794283418759559  0.6734728657515453  0.011065351113269672  1.0000
  H   H663      1.0  0.5898857411607421  0.7149621741769466  0.04941559336247825  1.0000
  H   H664      1.0  0.580561834216601  0.6167045071051906  0.07230609657560616  1.0000
  H   H665      1.0  0.5876687913139327  0.6603422717586729  0.11100972036323054  1.0000
  H   H666      1.0  0.5620724438602857  0.6244375773587164  0.11990718005274292  1.0000
  H   H667      1.0  0.5271480046202361  0.6359647053642419  0.07641036233027654  1.0000
  H   H668      1.0  0.544737513039269  0.6250315301479185  0.028282052352283316  1.0000
  H   H669      1.0  0.5279843342202526  0.6769582639708248  0.032354462807287376  1.0000
  H   H670      1.0  0.5390610810701763  0.6970714686432928  0.12772703217636772  1.0000
  H   H671      1.0  0.5396228536360239  0.738555258423555  0.08431702232420091  1.0000
  H   H672      1.0  0.5650348499995272  0.731224235576926  0.11641465058223921  1.0000
  N   N41       1.0  0.16078713115894927  0.5790445346504496  0.44100745750699577  1.0000
  C   C449      1.0  0.1710099265572249  0.5488740074563642  0.4070164295262926  1.0000
  C   C450      1.0  0.17917083961525404  0.6106531886319411  0.45727794906973124  1.0000
  C   C451      1.0  0.15105972023067715  0.5503073287479912  0.47728285223780503  1.0000
  C   C452      1.0  0.1418457797476138  0.6062282189286824  0.4223171625345647  1.0000
  H   H673      1.0  0.1574938532208261  0.5250706379052883  0.3935684125322688  1.0000
  H   H674      1.0  0.18520347503025358  0.5274374935043917  0.4200195104231632  1.0000
  H   H675      1.0  0.17882910193965396  0.5695119465848218  0.379452393865566  1.0000
  H   H676      1.0  0.1720879204392307  0.6341432896035039  0.48285506130132966  1.0000
  H   H677      1.0  0.19378653771724585  0.591302534172762  0.4715149481618494  1.0000
  H   H678      1.0  0.1869599574480898  0.6326846064432156  0.43063906074323466  1.0000
  H   H679      1.0  0.14311522793382192  0.571945576218381  0.5034757361956068  1.0000
  H   H680      1.0  0.1648473975582141  0.5292339325885268  0.4921884393164839  1.0000
  H   H681      1.0  0.13714502527843742  0.5260152655777297  0.4659791324920456  1.0000
  H   H682      1.0  0.1485312842373545  0.6280061867545734  0.3946804412448999  1.0000
  H   H683      1.0  0.1337632611899333  0.6296996879993394  0.4468380769948528  1.0000
  H   H684      1.0  0.127665148034946  0.5833879574422356  0.40981419449334267  1.0000
  N   N42       1.0  0.6994074576607228  0.22284089691017253  0.8234365109916881  1.0000
  C   C453      1.0  0.682830271407475  0.23653092523807312  0.7898828031254472  1.0000
  C   C454      1.0  0.6878487927375204  0.22586333476899947  0.8669630937769336  1.0000
  C   C455      1.0  0.720289840205241  0.25376213486729593  0.8212929252162174  1.0000
  C   C456      1.0  0.7066904156572289  0.17488683908495814  0.8155167754890926  1.0000
  H   H685      1.0  0.6908302110977707  0.2337094533163658  0.7565422997911772  1.0000
  H   H686      1.0  0.6770319210699328  0.272693138533781  0.7945853207446123  1.0000
  H   H687      1.0  0.6668437857329482  0.21393006734920728  0.7909093399997917  1.0000
  H   H688      1.0  0.6998753250044292  0.21577500394256682  0.8930433574893099  1.0000
  H   H689      1.0  0.6818230022362358  0.2615167930890506  0.873963320126993  1.0000
  H   H690      1.0  0.6722006610392686  0.20238838564044484  0.8696367815274549  1.0000
  H   H691      1.0  0.73324809263625  0.24392419206314597  0.8459496488336237  1.0000
  H   H692      1.0  0.7155741259449889  0.29037638247096753  0.8270871622854002  1.0000
  H   H693      1.0  0.729538889205881  0.251753777876709  0.788947903274445  1.0000
  H   H694      1.0  0.7193949720284172  0.1633337837237037  0.839904205580057  1.0000
  H   H695      1.0  0.7152398788292711  0.17121099002795612  0.7827543256121832  1.0000
  H   H696      1.0  0.691473079176349  0.15054029892469906  0.8171134019955428  1.0000
  N   N43       1.0  0.6830754200271414  0.5557791513125635  0.9625484564211336  1.0000
  C   C457      1.0  0.7003943408322376  0.540617302436622  0.9941555215322564  1.0000
  C   C458      1.0  0.6821958414644365  0.6068035784765051  0.9626317908320021  1.0000
  C   C459      1.0  0.6597453565455579  0.5361465442360739  0.9751190263383425  1.0000
  C   C460      1.0  0.690084101146207  0.5394959831527582  0.9185658712482127  1.0000
  H   H697      1.0  0.7014635728782839  0.5022682272720349  0.9952030292371573  1.0000
  H   H698      1.0  0.6956980423967756  0.552534723228346  0.02767753142310636  1.0000
  H   H699      1.0  0.7182394189178861  0.5546414967953234  0.9856243062109984  1.0000
  H   H700      1.0  0.669384199220764  0.619735667373758  0.9391653864281178  1.0000
  H   H701      1.0  0.676868161948154  0.6202268056309013  0.9953156776729583  1.0000
  H   H702      1.0  0.6995449534937239  0.6227177429606398  0.9534780152705272  1.0000
  H   H703      1.0  0.6540724671489097  0.5473656993090348  0.008386642749221185  1.0000
  H   H704      1.0  0.6596814048223596  0.4976613131312268  0.9749009924938371  1.0000
  H   H705      1.0  0.6461064658018898  0.5472041274147044  0.9524130304335314  1.0000
  H   H706      1.0  0.6774002587694772  0.5499277105106085  0.8937616777797881  1.0000
  H   H707      1.0  0.6910668551631438  0.5011565610020641  0.9173885475789114  1.0000
  H   H708      1.0  0.7075330595209872  0.5539705912470659  0.9078553213033116  1.0000
  N   N44       1.0  0.9556564474924764  0.1928577689526636  0.43826829291593156  1.0000
  C   C461      1.0  0.9437985286927998  0.15154182217695422  0.4204858423561769  1.0000
  C   C462      1.0  0.9768035861025153  0.1787793561953679  0.46115500279779226  1.0000
  C   C463      1.0  0.9394858551849345  0.21624514493633096  0.46912232068841064  1.0000
  C   C464      1.0  0.9625285768015607  0.22476507367710719  0.4022751943109156  1.0000
  H   H709      1.0  0.9557092836151578  0.1319062747820754  0.3983144968619113  1.0000
  H   H710      1.0  0.9281243358674861  0.16087865523609635  0.4018995993544701  1.0000
  H   H711      1.0  0.9377867093494604  0.12735680233118996  0.44688147199634337  1.0000
  H   H712      1.0  0.986054271120794  0.2089453876151357  0.4755998261796054  1.0000
  H   H713      1.0  0.9723660959756779  0.1537954649764055  0.4878719386710717  1.0000
  H   H714      1.0  0.98954574129714  0.16171726733688763  0.4386273556146779  1.0000
  H   H715      1.0  0.9230105874366759  0.22613020567122333  0.4532224722139455  1.0000
  H   H716      1.0  0.9476217091715763  0.24821188524127735  0.48246217050264684  1.0000
  H   H717      1.0  0.9343765254941515  0.19343999259748168  0.4972083160422716  1.0000
  H   H718      1.0  0.9722521528831081  0.25570460472782863  0.4142650105162254  1.0000
  H   H719      1.0  0.9469617773658326  0.23711750338928939  0.3849709509432697  1.0000
  H   H720      1.0  0.9741726636622581  0.20765848507803786  0.37778348590552663  1.0000
  N   N45       1.0  0.5808828842759235  0.9057746730853182  0.19606776603665024  1.0000
  C   C465      1.0  0.5751032280613548  0.9337150516577434  0.15763055768138085  1.0000
  C   C466      1.0  0.587338026562105  0.9369091426264561  0.23192408168438305  1.0000
  C   C467      1.0  0.6007868037727992  0.8756632803850445  0.18491286564767265  1.0000
  C   C468      1.0  0.5603528225523905  0.876975113357226  0.2098753167995399  1.0000
  H   H721      1.0  0.569836260713842  0.9116255511182926  0.12992876456749425  1.0000
  H   H722      1.0  0.590344670087696  0.9555313223924011  0.1461698036124848  1.0000
  H   H723      1.0  0.5604848356111123  0.9576744461452096  0.165082703821243  1.0000
  H   H724      1.0  0.5927847555306451  0.9173333731641102  0.26106019837161965  1.0000
  H   H725      1.0  0.6022080887722618  0.9603002802096628  0.22193074411473027  1.0000
  H   H726      1.0  0.5725116680762835  0.9591271166936338  0.24228777884194455  1.0000
  H   H727      1.0  0.6057310872697214  0.8543269983788817  0.21329689317261014  1.0000
  H   H728      1.0  0.6166153094498881  0.89624420093279  0.17437706589096746  1.0000
  H   H729      1.0  0.5965473143668568  0.8514611229895787  0.1581250497464906  1.0000
  H   H730      1.0  0.5642459167131461  0.8551994751107568  0.23863874369461066  1.0000
  H   H731      1.0  0.554954078877949  0.8530522975785679  0.18357164993568983  1.0000
  H   H732      1.0  0.5450260079541694  0.8985266355629049  0.21882450600998207  1.0000
  N   N46       1.0  0.3342864265403907  0.026497738925276515  0.3766866432084247  1.0000
  C   C469      1.0  0.3430062561084351  0.018410080036213916  0.42081760609672897  1.0000
  C   C470      1.0  0.31315641035975844  0.055142476546513164  0.37960432263659016  1.0000
  C   C471      1.0  0.328310168975907  0.9816822523260579  0.35649917822660887  1.0000
  C   C472      1.0  0.35262966597525214  0.05080774445291114  0.3499743018460855  1.0000
  H   H733      1.0  0.358418678969094  0.9954649793989282  0.4199783445380467  1.0000
  H   H734      1.0  0.3292442680005053  0.0020623080981641007  0.4425279897446772  1.0000
  H   H735      1.0  0.3486258354860137  0.051325175690783764  0.4362073310310123  1.0000
  H   H736      1.0  0.30542152379470006  0.06028068018457766  0.34716733819954426  1.0000
  H   H737      1.0  0.2993863139522843  0.03896913911140709  0.40131885006038476  1.0000
  H   H738      1.0  0.31717383675355293  0.08999294181704531  0.3928156812281574  1.0000
  H   H739      1.0  0.3146598232551942  0.9624317714837484  0.3761852285524858  1.0000
  H   H740      1.0  0.343826561092028  0.9591019553731253  0.3534752994013152  1.0000
  H   H741      1.0  0.32135595581657395  0.9863270202126123  0.3233457640541314  1.0000
  H   H742      1.0  0.3575512681874797  0.08473532936332151  0.3645966019080834  1.0000
  H   H743      1.0  0.3466198823652943  0.05777116485222855  0.3165048142666808  1.0000
  H   H744      1.0  0.3688871830006157  0.030287828247235637  0.34710867375774507  1.0000
  N   N47       1.0  0.49377696516940667  0.9463490778841901  0.6507143062748526  1.0000
  C   C473      1.0  0.5012828396196566  0.9861107924348353  0.6773331456015417  1.0000
  C   C474      1.0  0.477118695289303  0.916862827070457  0.6764651981125281  1.0000
  C   C475      1.0  0.5144169391173105  0.91909106490407  0.6375599358638292  1.0000
  C   C476      1.0  0.4822444246819605  0.9632480302427903  0.6114438366514359  1.0000
  H   H745      1.0  0.5136351070513394  0.009520776970906253  0.6587005374619723  1.0000
  H   H746      1.0  0.5100429707875199  0.9747431392296473  0.7073094223540602  1.0000
  H   H747      1.0  0.4861168319645279  0.0073530083866122364  0.6878056875146215  1.0000
  H   H748      1.0  0.47124145691819963  0.8863056244059232  0.6575219975690687  1.0000
  H   H749      1.0  0.4851600356882818  0.903717432590981  0.7065470027078975  1.0000
  H   H750      1.0  0.4612001930141305  0.9361820332144986  0.6864867093643663  1.0000
  H   H751      1.0  0.5093162215468593  0.8888643726075799  0.6173021969312205  1.0000
  H   H752      1.0  0.523446721311988  0.9054712806814051  0.6663820081949184  1.0000
  H   H753      1.0  0.527362151047362  0.940305116500439  0.6180486607378606  1.0000
  H   H754      1.0  0.46665104350902087  0.9841816420489852  0.6201984475159831  1.0000
  H   H755      1.0  0.47638002456184775  0.9340529313035988  0.5906152386653274  1.0000
  H   H756      1.0  0.49428241593913685  0.9859194113335872  0.5913470319831057  1.0000
  N   N48       1.0  0.5647392955501248  0.6654251961875681  0.3601484684221614  1.0000
  C   C477      1.0  0.5804142138306932  0.6295735615353596  0.37635423431915693  1.0000
  C   C478      1.0  0.57430864332324  0.683899746699486  0.318297761532575  1.0000
  C   C479      1.0  0.563074257467329  0.7032225530457972  0.39224690946450375  1.0000
  C   C480      1.0  0.541183497142582  0.6450440785875947  0.3537631284689374  1.0000
  H   H757      1.0  0.573528279811025  0.614367644741514  0.4075972850074025  1.0000
  H   H758      1.0  0.5982785079825884  0.6440156684590842  0.38205897391475935  1.0000
  H   H759      1.0  0.5825410467664438  0.601063956317224  0.352417584525254  1.0000
  H   H760      1.0  0.5631711210956258  0.7116374123884414  0.3053946347811423  1.0000
  H   H761      1.0  0.592297516732539  0.6985969538123372  0.3218417885617379  1.0000
  H   H762      1.0  0.5755000084217026  0.6563740260496  0.29317145598500555  1.0000
  H   H763      1.0  0.5508426640191875  0.7302788741393765  0.38167876091221126  1.0000
  H   H764      1.0  0.5804582486829668  0.7200595840665266  0.3972116201011739  1.0000
  H   H765      1.0  0.556396723016793  0.6902470443217394  0.424518293653759  1.0000
  H   H766      1.0  0.5289614983729191  0.6712320203884493  0.3415465281129869  1.0000
  H   H767      1.0  0.5333861830680786  0.6310318554061655  0.38481396969645154  1.0000
  H   H768      1.0  0.5416498148419056  0.6163901260008647  0.32969226754787917  1.0000
