data_image0
_chemical_formula_structural       FeS2FeS2FeSFeS3FeS2FeS2FeSFeS3FeS2FeS2FeSFeS3FeS2FeS2FeSFeS3FeS2FeS2FeSFeS3FeS2FeS2FeSFeS3FeS2FeS2FeSFeS3FeS2FeS2FeSFeS3FeS2FeS2FeSFeS3FeS2FeS2FeSFeS3FeS2FeS2FeSFeS3FeS2FeS2FeSFeS3FeS2FeS2FeSFeS3FeS2FeS2FeSFeS3FeS2FeS2FeSFeS3FeS2FeS2FeSFeS3FeS2FeS2FeSFeS3FeS2FeS2FeSFeS3FeS2FeS2FeSFeS3FeS2FeS2FeSFeS3FeS2FeS2FeSFeS3FeS2FeS2FeSFeS3FeS2FeS2FeSFeS3FeS2FeS2FeSFeS3C6H4C6H4C6H4C6H4C6H4C6H4C6H4C6H4C6H4C6H4C6H4C6H4C6H4C6H4C6H4C6H4C6H4C6H4C6H4C6H4C6H4C6H4C6H4C6H4C6H4C6H4C6H4C6H4C6H4C6H4C6H4C6H4C6H4C6H4C6H4C6H4C6H4C6H4C6H4C6H4C6H4C6H4C6H4C6H4C6H4C6H4C6H4C6H4NC4H12NC4H12NC4H12NC4H12NC4H12NC4H12NC4H12NC4H12NC4H12NC4H12NC4H12NC4H12NC4H12NC4H12NC4H12NC4H12NC4H12NC4H12NC4H12NC4H12NC4H12NC4H12NC4H12NC4H12NC4H12NC4H12NC4H12NC4H12NC4H12NC4H12NC4H12NC4H12NC4H12NC4H12NC4H12NC4H12NC4H12NC4H12NC4H12NC4H12NC4H12NC4H12NC4H12NC4H12NC4H12NC4H12NC4H12NC4H12
_chemical_formula_sum              "Fe96 S192 C480 H768 N48"
_cell_length_a       44.310100540463566
_cell_length_b       42.02743776156336
_cell_length_c       29.194984190669725
_cell_angle_alpha    90.54726027632707
_cell_angle_beta     90.20027266796761
_cell_angle_gamma    90.01813665056073

_space_group_name_H-M_alt    "P 1"
_space_group_IT_number       1

loop_
  _space_group_symop_operation_xyz
  'x, y, z'

loop_
  _atom_site_type_symbol
  _atom_site_label
  _atom_site_symmetry_multiplicity
  _atom_site_fract_x
  _atom_site_fract_y
  _atom_site_fract_z
  _atom_site_occupancy
  Fe  Fe1       1.0  0.534118576195677  0.021223393283522407  0.9314099511023465  1.0000
  S   S1        1.0  0.496681668969353  0.055988429208603474  0.9203025370304719  1.0000
  S   S2        1.0  0.5286182504131668  0.972334270625364  0.901171122275129  1.0000
  Fe  Fe2       1.0  0.5753416980572934  0.071268509195066  0.972125487810276  1.0000
  S   S3        1.0  0.5418425934744397  0.11064446596176891  0.9631683289299587  1.0000
  S   S4        1.0  0.6203839822762353  0.08040145288553036  0.005167594427977873  1.0000
  Fe  Fe3       1.0  0.5086691197831554  0.07523294603246677  0.9896292987905662  1.0000
  S   S5        1.0  0.47301834862871317  0.09548645296611902  0.03591354099486899  1.0000
  Fe  Fe4       1.0  0.5328591276800088  0.08816169665806828  0.8947307456774619  1.0000
  S   S6        1.0  0.5212638089672358  0.11493978761632229  0.8311835256081768  1.0000
  S   S7        1.0  0.5428691933161152  0.03705244086709647  0.003994772201974639  1.0000
  S   S8        1.0  0.5696938749435241  0.05205514045308468  0.900718348740994  1.0000
  Fe  Fe5       1.0  0.6403162227731976  0.8429014619363885  0.8835085960989734  1.0000
  S   S9        1.0  0.6014196589387824  0.8143872919322752  0.8559580937937001  1.0000
  S   S10       1.0  0.6345017632997861  0.8766750214249774  0.9429247592453336  1.0000
  Fe  Fe6       1.0  0.6850425610108918  0.81401553841631  0.8175629814686002  1.0000
  S   S11       1.0  0.650059314060023  0.7835668504638815  0.7832874886495096  1.0000
  S   S12       1.0  0.7326756200031717  0.8066574796684516  0.7937105757877226  1.0000
  Fe  Fe7       1.0  0.6203270988381976  0.826534062573659  0.7873582065429489  1.0000
  S   S13       1.0  0.5887893126619302  0.8387925429214615  0.7295905328044688  1.0000
  Fe  Fe8       1.0  0.6341693471098903  0.7739337529623544  0.8542557290371384  1.0000
  S   S14       1.0  0.6185210646998857  0.7251694672078721  0.8731585195214435  1.0000
  S   S15       1.0  0.6569655089983567  0.8585489580788825  0.8147302558724893  1.0000
  S   S16       1.0  0.6713673481644532  0.8009845095508948  0.8887559222464754  1.0000
  Fe  Fe9       1.0  0.42306821153113094  0.12319998647212871  0.33465816118173525  1.0000
  S   S17       1.0  0.4059096221831757  0.17297565149594507  0.3311442932628522  1.0000
  S   S18       1.0  0.4001412015847458  0.08859451327356282  0.3799013365475964  1.0000
  Fe  Fe10      1.0  0.4767011822889917  0.13630036154972824  0.2740110371751593  1.0000
  S   S19       1.0  0.4642969630047959  0.18756184593305525  0.26468721974371084  1.0000
  S   S20       1.0  0.5167081006936667  0.11367498381071095  0.24019062884615863  1.0000
  Fe  Fe11      1.0  0.45422924264776277  0.18657755940873555  0.33982996656945624  1.0000
  S   S21       1.0  0.46823785658119427  0.2224143298918224  0.39249476755768753  1.0000
  Fe  Fe12      1.0  0.41718558375558273  0.16848902607227023  0.2564678534022285  1.0000
  S   S22       1.0  0.3868997767850249  0.18350077011471044  0.1989563416903062  1.0000
  S   S23       1.0  0.47069970784194154  0.1369007458816951  0.34999097386139266  1.0000
  S   S24       1.0  0.43037193727453005  0.1171706227121212  0.2595215796390218  1.0000
  Fe  Fe13      1.0  0.2586748490662363  0.2396653494590577  0.3482301968929936  1.0000
  S   S25       1.0  0.2541340193382678  0.18827667686467486  0.3656589277551889  1.0000
  S   S26       1.0  0.27415730728401594  0.2559701307038409  0.27935523413188335  1.0000
  Fe  Fe14      1.0  0.2296580578351574  0.26200421615674374  0.43585049916548846  1.0000
  S   S27       1.0  0.2218329245044397  0.21241745739838258  0.46106066680456403  1.0000
  S   S28       1.0  0.2159412445063269  0.3030514028932802  0.4812260709835365  1.0000
  Fe  Fe15      1.0  0.268864039686732  0.20314048843688837  0.4360937662326285  1.0000
  S   S29       1.0  0.2995565662925309  0.17100613258017727  0.4764200166655035  1.0000
  Fe  Fe16      1.0  0.20781635316936894  0.20152181617130305  0.3890471285596351  1.0000
  S   S30       1.0  0.16945531245493808  0.1689084985459668  0.37176605596985784  1.0000
  S   S31       1.0  0.2780664550889702  0.25380462805803683  0.4166498269067883  1.0000
  S   S32       1.0  0.2108485089856575  0.2517184217387214  0.3657952171497555  1.0000
  Fe  Fe17      1.0  0.6294947281592503  0.6892806319839755  0.11820967540815341  1.0000
  S   S33       1.0  0.5803348721348518  0.6807733217313143  0.10444907398657297  1.0000
  S   S34       1.0  0.6653751006398692  0.6799488340635856  0.06586192434873661  1.0000
  Fe  Fe18      1.0  0.619342017209446  0.7109901186830412  0.21541479903304042  1.0000
  S   S35       1.0  0.5693508737893057  0.7044703054843652  0.2105175033260098  1.0000
  S   S36       1.0  0.6366100305339822  0.727558487240632  0.2835228820939753  1.0000
  Fe  Fe19      1.0  0.5805257849695251  0.6590185137114078  0.17421825777955757  1.0000
  S   S37       1.0  0.5537345659457676  0.6148064188235668  0.18722505331978992  1.0000
  Fe  Fe20      1.0  0.5737119805932679  0.7269598185942047  0.1418934249535627  1.0000
  S   S38       1.0  0.5392931324596093  0.7634760980476575  0.12224874753094564  1.0000
  S   S39       1.0  0.6304683811251647  0.6634061341957858  0.18481578952483518  1.0000
  S   S40       1.0  0.6230065666146166  0.7377624202216185  0.1496713370117254  1.0000
  Fe  Fe21      1.0  0.39555632207345165  0.7561639869297355  0.2602832081857962  1.0000
  S   S41       1.0  0.4049756200485234  0.8081745289268812  0.26998254152791035  1.0000
  S   S42       1.0  0.42480050408692305  0.717892748446287  0.23026326043263273  1.0000
  Fe  Fe22      1.0  0.333861661482672  0.759729509035243  0.3062623620438982  1.0000
  S   S43       1.0  0.3379281110330698  0.8120217261582823  0.3214589266319294  1.0000
  S   S44       1.0  0.2951077383764492  0.7290408911778437  0.32967387968193923  1.0000
  Fe  Fe23      1.0  0.3562798923926045  0.8147296718463654  0.2498497929907634  1.0000
  S   S45       1.0  0.33939310382117904  0.8492053233820832  0.19718942908352718  1.0000
  Fe  Fe24      1.0  0.3860108395900378  0.8009773168886828  0.3402993279158443  1.0000
  S   S46       1.0  0.4119689849788397  0.8162107377537349  0.4029486891457189  1.0000
  S   S47       1.0  0.3490063113354203  0.7631333900269026  0.23341208847695025  1.0000
  S   S48       1.0  0.3801581607722872  0.7483626550629561  0.33206071311574115  1.0000
  Fe  Fe25      1.0  0.26146619697719303  0.06643272301507541  0.10646491281576242  1.0000
  S   S49       1.0  0.21566873191058505  0.07028364595303893  0.07419899037169686  1.0000
  S   S50       1.0  0.3012578878434175  0.07018427955084228  0.059836232903086595  1.0000
  Fe  Fe26      1.0  0.23641329883796866  0.06093207208709628  0.2021674916783709  1.0000
  S   S51       1.0  0.1886606139575287  0.06473047136151933  0.17817841452754601  1.0000
  S   S52       1.0  0.24078982280879208  0.056181244377470074  0.2780274281149606  1.0000
  Fe  Fe27      1.0  0.20330076631867275  0.031503230045693664  0.1222646673745027  1.0000
  S   S53       1.0  0.17410481735323932  0.9910251244313472  0.09969385710424894  1.0000
  Fe  Fe28      1.0  0.20622729904707904  0.10315619493503347  0.13309826011523773  1.0000
  S   S54       1.0  0.18357048333946446  0.15022470744729488  0.12542176458261056  1.0000
  S   S55       1.0  0.2500134466672976  0.02425757942684248  0.14980452920497855  1.0000
  S   S56       1.0  0.2530097574918157  0.102483151737772  0.16189773364886118  1.0000
  Fe  Fe29      1.0  0.21862756802088057  0.7966176394010321  0.03187249059590114  1.0000
  S   S57       1.0  0.19352684781128796  0.8424167500373887  0.03535383806702619  1.0000
  S   S58       1.0  0.23299913337022948  0.7759379541834351  0.09833982883726566  1.0000
  Fe  Fe30      1.0  0.20588595406230487  0.7873334299866677  0.9308681014409635  1.0000
  S   S59       1.0  0.17878956250059846  0.8322765950922236  0.9253008106584861  1.0000
  S   S60       1.0  0.21182044968808753  0.7521729833725971  0.8736305568018066  1.0000
  Fe  Fe31      1.0  0.21606026400636494  0.8530530820245393  0.9685962853218449  1.0000
  S   S61       1.0  0.23767787850129496  0.9007099783887615  0.95707554682621  1.0000
  Fe  Fe32      1.0  0.1590078122990775  0.8172402100616469  0.9923520572132375  1.0000
  S   S62       1.0  0.11093813133387243  0.8197181722210465  0.014842738728102933  1.0000
  S   S63       1.0  0.24485125316094994  0.8090483317532605  0.9690799453537344  1.0000
  S   S64       1.0  0.18253987866865146  0.7704289376255403  0.9937272656411856  1.0000
  Fe  Fe33      1.0  0.4657574910839901  0.7119947343362865  0.5190423984432805  1.0000
  S   S65       1.0  0.4835786531835183  0.7280231757197707  0.4514907550152237  1.0000
  S   S66       1.0  0.4171319950209391  0.7013312777629656  0.5318314420268142  1.0000
  Fe  Fe34      1.0  0.5263129607507556  0.7170940060968545  0.5667404879664392  1.0000
  S   S67       1.0  0.549691885066337  0.7342273884723132  0.5041454155097272  1.0000
  S   S68       1.0  0.5518751837530985  0.7096745127095391  0.6319836894105659  1.0000
  Fe  Fe35      1.0  0.5085998672397255  0.7642003194832986  0.49367120354938665  1.0000
  S   S69       1.0  0.5141612301105256  0.8148606165630113  0.4728728947278371  1.0000
  Fe  Fe36      1.0  0.5229836929059964  0.69647632435065  0.46766203750617547  1.0000
  S   S70       1.0  0.5431481816423618  0.6633010667491948  0.4154699978167796  1.0000
  S   S71       1.0  0.48766882910436776  0.7507352698291357  0.5602479756265314  1.0000
  S   S72       1.0  0.5026233994644828  0.6766340334472796  0.5314547660648686  1.0000
  Fe  Fe37      1.0  0.33113887321687924  0.8863783149004139  0.7174482012691811  1.0000
  S   S73       1.0  0.31661510573915  0.8380176504653346  0.7399214299524607  1.0000
  S   S74       1.0  0.34366955020048495  0.9266609679190465  0.7646445708262855  1.0000
  Fe  Fe38      1.0  0.33039303849729806  0.8688833087766354  0.617092428291026  1.0000
  S   S75       1.0  0.31605546412061236  0.8184465893815728  0.6293454448613264  1.0000
  S   S76       1.0  0.33558120393657986  0.892483288688701  0.5489210837616096  1.0000
  Fe  Fe39      1.0  0.28438847537439516  0.8399869753597848  0.6808226502091054  1.0000
  S   S77       1.0  0.23712849275401363  0.8218591062510355  0.6878936446029192  1.0000
  Fe  Fe40      1.0  0.3493532448217109  0.8204358341390123  0.6873579544673337  1.0000
  S   S78       1.0  0.3792094248022375  0.7800547800044226  0.7069116097327584  1.0000
  S   S79       1.0  0.2955346416362443  0.8903764020226682  0.6634080646002007  1.0000
  S   S80       1.0  0.36708437090944057  0.8685435135384704  0.6700005331279598  1.0000
  Fe  Fe41      1.0  0.2718702570653306  0.13946208841723218  0.8351730657595529  1.0000
  S   S81       1.0  0.23663172899778254  0.12565235069155145  0.7835387776778444  1.0000
  S   S82       1.0  0.25695525422277027  0.1600933161466025  0.9026655805741374  1.0000
  Fe  Fe42      1.0  0.32316003612261407  0.1169617484956107  0.7749334018021851  1.0000
  S   S83       1.0  0.2923758005661241  0.10039836873612584  0.7182428955293226  1.0000
  S   S84       1.0  0.37351848294627665  0.11167953327690383  0.7759067211127161  1.0000
  Fe  Fe43      1.0  0.2682870676027181  0.14658085933332288  0.7318988979530083  1.0000
  S   S85       1.0  0.2519983066661747  0.18210757733246208  0.6799678244387289  1.0000
  Fe  Fe44      1.0  0.26394575886641036  0.08114566771216825  0.7748248528372365  1.0000
  S   S86       1.0  0.2428454372477956  0.0326056930292824  0.7745963566899993  1.0000
  S   S87       1.0  0.3012082024135341  0.16447792699841535  0.7847988959317456  1.0000
  S   S88       1.0  0.2968338056541327  0.09336142989740903  0.830291583754087  1.0000
  Fe  Fe45      1.0  0.5207091440078584  0.01492375081271069  0.6204055730947988  1.0000
  S   S89       1.0  0.526693509019174  0.9716050242024427  0.5762016375858664  1.0000
  S   S90       1.0  0.5602905445631582  0.02871258347279193  0.6637501140127529  1.0000
  Fe  Fe46      1.0  0.4554776789515457  0.023370542800288385  0.5932570622187795  1.0000
  S   S91       1.0  0.4553043642927946  0.978960828917306  0.5503398507873957  1.0000
  S   S92       1.0  0.4141304168020532  0.053839197095074676  0.5869615679385841  1.0000
  Fe  Fe47      1.0  0.48230159662155053  0.9571526875879519  0.6063710821302155  1.0000
  S   S93       1.0  0.47121806489111623  0.9078659812559329  0.6301404709078807  1.0000
  Fe  Fe48      1.0  0.49925281885662104  0.9978849486758721  0.5245459900900761  1.0000
  S   S94       1.0  0.5059087723726913  0.0008332511081674543  0.4485867146147217  1.0000
  S   S95       1.0  0.47750233805407716  0.9992937622822315  0.6532041916568645  1.0000
  S   S96       1.0  0.49838923721128  0.04323235996862351  0.5652770860634397  1.0000
  Fe  Fe49      1.0  0.018728253679182405  0.6405835752208854  0.7990798983063342  1.0000
  S   S97       1.0  0.06568246121725263  0.6291577197307813  0.7762650058946372  1.0000
  S   S98       1.0  0.979933670421905  0.6093948051642503  0.7776338665224656  1.0000
  Fe  Fe50      1.0  0.03830606163361594  0.7018820374648351  0.8472787064050056  1.0000
  S   S99       1.0  0.08679149977293621  0.695654142465202  0.8278895368345724  1.0000
  S   S100      1.0  0.019975058990969075  0.7423497005551395  0.8890853438809565  1.0000
  Fe  Fe51      1.0  0.06815105031708701  0.6809482163634596  0.7594282815287015  1.0000
  S   S101      1.0  0.08384780225040034  0.7008463621339637  0.692845465936663  1.0000
  Fe  Fe52      1.0  0.07892839528833506  0.6449061360005451  0.847135187865781  1.0000
  S   S102      1.0  0.1099391373207248  0.6174357540516521  0.8925357949286188  1.0000
  S   S103      1.0  0.02009357278669932  0.691373078128515  0.7771550910671405  1.0000
  S   S104      1.0  0.03161710782264926  0.6521122121468506  0.8715175915220443  1.0000
  Fe  Fe53      1.0  0.8080719893431354  0.6760787909062181  0.914815832350362  1.0000
  S   S105      1.0  0.7745831614040846  0.6533730260301561  0.8673220790382352  1.0000
  S   S106      1.0  0.8003565871124825  0.7250332746961781  0.9426924808927373  1.0000
  Fe  Fe54      1.0  0.847440731955255  0.6175326913844215  0.9182661307683025  1.0000
  S   S107      1.0  0.8173760871161574  0.589065970386719  0.8715703271451936  1.0000
  S   S108      1.0  0.891472405952485  0.5993978848101764  0.9449256088175362  1.0000
  Fe  Fe55      1.0  0.8153332928586599  0.6339620824972463  0.8310169142859933  1.0000
  S   S109      1.0  0.8216053349807023  0.6325818449760887  0.7548577653013611  1.0000
  Fe  Fe56      1.0  0.7797394563258342  0.6108277204872233  0.9122956837036013  1.0000
  S   S110      1.0  0.739012994033509  0.5835876163348349  0.9352299216609168  1.0000
  S   S111      1.0  0.8484359334148609  0.6609679740021298  0.8744023960172848  1.0000
  S   S112      1.0  0.8101075771063808  0.635205526988602  0.9632347905572058  1.0000
  Fe  Fe57      1.0  0.18696046407806932  0.6360588152421  0.17722308773658693  1.0000
  S   S113      1.0  0.14495430337303805  0.6594206666910069  0.20287520453484598  1.0000
  S   S114      1.0  0.22728404588114687  0.6659473738030719  0.1615604609714289  1.0000
  Fe  Fe58      1.0  0.15624639191000722  0.5718371490294748  0.164901046193271  1.0000
  S   S115      1.0  0.11134123711545274  0.590091782241581  0.18920543596618236  1.0000
  S   S116      1.0  0.1662996692628147  0.5212324002249531  0.14410513758170132  1.0000
  Fe  Fe59      1.0  0.12214438890889645  0.6324670323661853  0.14590594487936243  1.0000
  S   S117      1.0  0.09098588934362062  0.6591519783567753  0.0991141626798116  1.0000
  Fe  Fe60      1.0  0.13863415841073223  0.6149533812196117  0.2436988120945266  1.0000
  S   S118      1.0  0.12860666483931738  0.6172717876709453  0.3193791889457074  1.0000
  S   S119      1.0  0.16482324695606043  0.6122778871583301  0.11725905960939925  1.0000
  S   S120      1.0  0.1830143210271893  0.5936956097301626  0.222613431953408  1.0000
  Fe  Fe61      1.0  0.08259954099642886  0.395927550399368  0.2517359707850935  1.0000
  S   S121      1.0  0.0625217821202888  0.34859618130170783  0.2690464602387555  1.0000
  S   S122      1.0  0.06369273546499699  0.423971730115452  0.1933205925829241  1.0000
  Fe  Fe62      1.0  0.12732236620357984  0.39453069248013317  0.3297299375209426  1.0000
  S   S123      1.0  0.11222457534843033  0.3463946994216699  0.3517671106737933  1.0000
  S   S124      1.0  0.15939691881812879  0.4196636764568801  0.37719748873318953  1.0000
  Fe  Fe63      1.0  0.1107728218119326  0.33394951190815836  0.27781044287583795  1.0000
  S   S125      1.0  0.12401431609582647  0.28480666677479377  0.25588981002041306  1.0000
  Fe  Fe64      1.0  0.0657782993295144  0.3657174921053131  0.34180325933538247  1.0000
  S   S126      1.0  0.0330006696649261  0.35705015474891516  0.39858762717644103  1.0000
  S   S127      1.0  0.13104330121576768  0.38026530217835436  0.2555962712263675  1.0000
  S   S128      1.0  0.08086798707953435  0.41474687850993797  0.32391671573108377  1.0000
  Fe  Fe65      1.0  0.7157834766069022  0.4711267324368925  0.23789779235033653  1.0000
  S   S129      1.0  0.7519160714873497  0.5071802697475943  0.22357928859996115  1.0000
  S   S130      1.0  0.7222771529521989  0.43266418204447665  0.28975044981718284  1.0000
  Fe  Fe66      1.0  0.6738083197994711  0.49647247549561224  0.166025975466132  1.0000
  S   S131      1.0  0.7058485922079715  0.5345075890194723  0.14455843409994268  1.0000
  S   S132      1.0  0.6281496802598787  0.4925929368777221  0.1338037624565241  1.0000
  Fe  Fe67      1.0  0.7410638531571099  0.49674397005496607  0.14991885925715906  1.0000
  S   S133      1.0  0.7779281256462928  0.4951837411833891  0.0978929956361873  1.0000
  Fe  Fe68      1.0  0.7136535712452976  0.541759525790292  0.21936977346152772  1.0000
  S   S134      1.0  0.715548180803046  0.592660278395096  0.2422386307844492  1.0000
  S   S135      1.0  0.7082701639315673  0.4575089952179791  0.16426102804239484  1.0000
  S   S136      1.0  0.6782793197519399  0.5069125703290501  0.2411007249411878  1.0000
  Fe  Fe69      1.0  0.651256522958026  0.22624546891974262  0.2656985450779456  1.0000
  S   S137      1.0  0.6082399475972675  0.24259475044559015  0.29842661236094675  1.0000
  S   S138      1.0  0.6494452511069819  0.19885205305856904  0.19937019020168906  1.0000
  Fe  Fe70      1.0  0.6905610003231142  0.25944678780345576  0.33679121195331235  1.0000
  S   S139      1.0  0.6509201661383572  0.27838833815596026  0.3758074603577709  1.0000
  S   S140      1.0  0.7377046421714948  0.2734691493875272  0.35669094269049706  1.0000
  Fe  Fe71      1.0  0.6316309276854549  0.22968421919468673  0.3639546848255262  1.0000
  S   S141      1.0  0.6078978773120229  0.205447056442758  0.42148789810093784  1.0000
  Fe  Fe72      1.0  0.6319027267194317  0.2894311618085145  0.30684256181612585  1.0000
  S   S142      1.0  0.6122544475524975  0.3372924986452446  0.2913257209345378  1.0000
  S   S143      1.0  0.6730148993480609  0.2094670641847307  0.3306564194995857  1.0000
  S   S144      1.0  0.6729509676867518  0.27437609818306197  0.26828021161578214  1.0000
  Fe  Fe73      1.0  0.032422813482076096  0.1767598653613014  0.04924159066345246  1.0000
  S   S145      1.0  0.06638387685021896  0.19700189791765402  0.0005646438721571556  1.0000
  S   S146      1.0  0.04502536162733506  0.13198126065969995  0.08582525917123007  1.0000
  Fe  Fe74      1.0  0.9868557299887988  0.22838194321810754  0.031069007997900133  1.0000
  S   S147      1.0  0.016736940507883658  0.25326796214960895  0.9813051355080976  1.0000
  S   S148      1.0  0.9416827777343996  0.2505246083323123  0.04368648726235258  1.0000
  Fe  Fe75      1.0  0.02657896962384876  0.20426552974462547  0.9548954847049204  1.0000
  S   S149      1.0  0.027925934034313205  0.19329957780243887  0.8800399525828543  1.0000
  Fe  Fe76      1.0  0.05360768530606075  0.24384757521287578  0.032109581621219574  1.0000
  S   S150      1.0  0.08766405817278322  0.28223625981888606  0.04770719074189156  1.0000
  S   S151      1.0  0.9935451262446009  0.17983064905083124  0.00023774652606056712  1.0000
  S   S152      1.0  0.022627841261980475  0.22326726408685268  0.08483203888401514  1.0000
  Fe  Fe77      1.0  0.7598018665286619  0.23899765973446885  0.015362259407447176  1.0000
  S   S153      1.0  0.7612655148333346  0.1900546808562261  0.9839538678883547  1.0000
  S   S154      1.0  0.762575606992854  0.24752657026498298  0.09123236367105081  1.0000
  Fe  Fe78      1.0  0.7646283665007572  0.27195722219624285  0.9240149038634047  1.0000
  S   S155      1.0  0.7661363295943084  0.22601022918693772  0.8846713114373128  1.0000
  S   S156      1.0  0.7707798157589447  0.3174115135321922  0.8857901813836694  1.0000
  Fe  Fe79      1.0  0.7293757567173057  0.21072600045581508  0.9320490418033127  1.0000
  S   S157      1.0  0.6894753274256794  0.1876902565044567  0.8975654573901342  1.0000
  Fe  Fe80      1.0  0.7977733363304642  0.21014316207369227  0.9396300676518583  1.0000
  S   S158      1.0  0.8409079912019476  0.18384480912572032  0.9248058899053163  1.0000
  S   S159      1.0  0.7249687102717846  0.2583930510043781  0.9670816392551319  1.0000
  S   S160      1.0  0.7989838674702707  0.2573166052506335  0.9756411219147576  1.0000
  Fe  Fe81      1.0  0.7201518751211832  0.5253111798091818  0.5295020710055179  1.0000
  S   S161      1.0  0.7333330200690313  0.5539735308347898  0.4683291316680979  1.0000
  S   S162      1.0  0.7171588632589666  0.4719835697957416  0.5281597324325042  1.0000
  Fe  Fe82      1.0  0.7098679474223892  0.5832678053694536  0.5892154590918195  1.0000
  S   S163      1.0  0.7220930471354097  0.6171228299067926  0.5337592045057317  1.0000
  S   S164      1.0  0.697710774322115  0.5992661022892164  0.6599499085581257  1.0000
  Fe  Fe83      1.0  0.694373566597617  0.5849793704439901  0.4889035030252152  1.0000
  S   S165      1.0  0.6617572132773645  0.6076306397575997  0.4404745289772881  1.0000
  Fe  Fe84      1.0  0.7599618333461753  0.5833253107890166  0.5188320125835764  1.0000
  S   S166      1.0  0.8057021715002569  0.604296413912194  0.5044166828581894  1.0000
  S   S167      1.0  0.6787654439363648  0.5538347314844693  0.5457680117411656  1.0000
  S   S168      1.0  0.750162533858625  0.5520450498826573  0.5786764084357876  1.0000
  Fe  Fe85      1.0  0.8441119841996734  0.3038140516594215  0.6668301557562692  1.0000
  S   S169      1.0  0.8367422615837464  0.2760201163431998  0.6018893891566107  1.0000
  S   S170      1.0  0.8613000651396187  0.2806200320044618  0.7307978468386249  1.0000
  Fe  Fe86      1.0  0.8307381038397673  0.36681202776439603  0.6222946399999747  1.0000
  S   S171      1.0  0.8227396821907361  0.3453389494346786  0.5529564301345767  1.0000
  S   S172      1.0  0.8315684902538535  0.4195298310740901  0.6302652680409505  1.0000
  Fe  Fe87      1.0  0.7970587487011882  0.3082131892133881  0.5916515595835276  1.0000
  S   S173      1.0  0.7517024305137643  0.2891654517703462  0.570902008396947  1.0000
  Fe  Fe88      1.0  0.863150044054984  0.3153287523082589  0.5692204128290402  1.0000
  S   S174      1.0  0.9051725087032555  0.31086533495912094  0.5274834235780016  1.0000
  S   S175      1.0  0.8015886321687216  0.3324904978512565  0.6601219088115707  1.0000
  S   S176      1.0  0.8733703736682107  0.3405271124880995  0.6349999410813987  1.0000
  Fe  Fe89      1.0  0.08614123619479708  0.3267261254575582  0.635906321660309  1.0000
  S   S177      1.0  0.09707786468610924  0.3530374808002533  0.7010735352295052  1.0000
  S   S178      1.0  0.11378453166966129  0.33476654576045783  0.5731490728664252  1.0000
  Fe  Fe90      1.0  0.03547251625008596  0.28925950581744503  0.6776632624371363  1.0000
  S   S179      1.0  0.04214287604288036  0.3113241891305803  0.7467395349336787  1.0000
  S   S180      1.0  0.9970365491754674  0.25515112360095765  0.6707683740436758  1.0000
  Fe  Fe91      1.0  0.046755242132419994  0.35699907629941907  0.708995048790504  1.0000
  S   S181      1.0  0.017300969516757414  0.39868436272104757  0.7267862271886534  1.0000
  Fe  Fe92      1.0  0.09139278605850265  0.30505626157228294  0.7325439853342361  1.0000
  S   S182      1.0  0.12055731337830244  0.28625254490541446  0.7884732578401187  1.0000
  S   S183      1.0  0.036449217756743924  0.3355610651165858  0.6405980415700893  1.0000
  S   S184      1.0  0.08432484509967875  0.2782329578924855  0.6667934004291597  1.0000
  Fe  Fe93      1.0  0.9945749782200294  0.596520611882729  0.5367066465031256  1.0000
  S   S185      1.0  0.9683977542449  0.5706866041221336  0.4819895730749646  1.0000
  S   S186      1.0  0.99212405086865  0.6495568304538518  0.5432257838591852  1.0000
  Fe  Fe94      1.0  0.024292989553797772  0.5369697859161874  0.5708563484426796  1.0000
  S   S187      1.0  2.4430511940121136e-05  0.5055495060405786  0.5207272103351467  1.0000
  S   S188      1.0  0.06123281527406865  0.5162026055087304  0.6131478238261524  1.0000
  Fe  Fe95      1.0  0.011220673460240915  0.543421359010974  0.4702375221498149  1.0000
  S   S189      1.0  0.027836512289426185  0.5283026063770473  0.4007896164820181  1.0000
  Fe  Fe96      1.0  0.9597015128986974  0.5354559312975959  0.537574235059427  1.0000
  S   S190      1.0  0.9147152153088816  0.5121566768440887  0.5473331515177335  1.0000
  S   S191      1.0  0.03834414245420792  0.5729611601264688  0.519294907069907  1.0000
  S   S192      1.0  0.9828136602508357  0.5632598022142215  0.5935584220535467  1.0000
  C   C1        1.0  0.029090015989235996  0.43079670322996505  0.6937763692112816  1.0000
  C   C2        1.0  0.008019132732646206  0.45277816890225725  0.677343910765307  1.0000
  C   C3        1.0  0.017706436330407138  0.47868881804259855  0.6512408799494955  1.0000
  C   C4        1.0  0.04851418902158966  0.4830140897870969  0.6429030646432069  1.0000
  C   C5        1.0  0.06951608200376502  0.46121291325818675  0.659652291248481  1.0000
  C   C6        1.0  0.05976321696737674  0.4348675183834361  0.6845123993801867  1.0000
  H   H1        1.0  0.984269863579314  0.4496262963629053  0.6844931419042197  1.0000
  H   H2        1.0  0.0014340315881933297  0.49561526740816036  0.6383856123076349  1.0000
  H   H3        1.0  0.0933570666177026  0.46463691694240833  0.6534074543076853  1.0000
  H   H4        1.0  0.07611729881331475  0.4182155057144029  0.6976800410336709  1.0000
  C   C7        1.0  0.931496499470036  0.29244495181661523  0.5636156286319357  1.0000
  C   C8        1.0  0.9624733613330024  0.2975416119791231  0.5581111813636179  1.0000
  C   C9        1.0  0.9829733792277351  0.28518285871758886  0.5901709059236535  1.0000
  C   C10       1.0  0.9724812734115531  0.2675859994809781  0.6273980662838088  1.0000
  C   C11       1.0  0.9417136700256693  0.26136917511189806  0.6316237444568623  1.0000
  C   C12       1.0  0.9213069570851837  0.2740807315827421  0.6001360117172907  1.0000
  H   H5        1.0  0.9705621632959859  0.31140407875934645  0.52963813719337  1.0000
  H   H6        1.0  0.006871869787154372  0.2889303468764901  0.5857599167874183  1.0000
  H   H7        1.0  0.9335053020854588  0.24729118796733537  0.6598052514833866  1.0000
  H   H8        1.0  0.8976567452863505  0.26940095120699625  0.6041831702972522  1.0000
  C   C13       1.0  0.8359667229964918  0.578616083919993  0.5158862540315096  1.0000
  C   C14       1.0  0.8311966134526997  0.545921929161845  0.5200080872269733  1.0000
  C   C15       1.0  0.8555946436343882  0.5255915321198508  0.5289714600214179  1.0000
  C   C16       1.0  0.8847185918587412  0.5379357576374441  0.5345243114745603  1.0000
  C   C17       1.0  0.8895548026250535  0.5706648421841235  0.5300659914504765  1.0000
  C   C18       1.0  0.8652231918147917  0.5909436293456006  0.5203290523402835  1.0000
  H   H9        1.0  0.8087955766737976  0.5363150477472053  0.5154153005562965  1.0000
  H   H10       1.0  0.8520666960197251  0.5002155332905168  0.5308442934055422  1.0000
  H   H11       1.0  0.911970400330422  0.5803860382314117  0.5342941149746293  1.0000
  H   H12       1.0  0.8690110073255874  0.6162348989045975  0.516754078753094  1.0000
  C   C19       1.0  0.7493405307070691  0.45637232188516763  0.5543320163041384  1.0000
  C   C20       1.0  0.7756666987431198  0.4745524766781713  0.5567069482392082  1.0000
  C   C21       1.0  0.8009291958672272  0.46319622238997826  0.5802355131652293  1.0000
  C   C22       1.0  0.8002120241791032  0.43317915150187  0.6000982826962101  1.0000
  C   C23       1.0  0.774244484460711  0.4143752004282943  0.596456800383523  1.0000
  C   C24       1.0  0.7486005382996994  0.4262025968536832  0.5741532287410199  1.0000
  H   H13       1.0  0.7765512324979814  0.49728560135210026  0.5400855457452486  1.0000
  H   H14       1.0  0.8210667710067499  0.47753982872914696  0.5829436555526385  1.0000
  H   H15       1.0  0.7735817508333712  0.3911263163919494  0.6120016203944928  1.0000
  H   H16       1.0  0.728139920694207  0.4121967091112077  0.5731120772432067  1.0000
  C   C25       1.0  0.8006423659121866  0.3111096626214851  0.8477357954086435  1.0000
  C   C26       1.0  0.804902534202536  0.33157667099640836  0.8108389601122271  1.0000
  C   C27       1.0  0.8252309828156504  0.32330700841501997  0.7760062371475174  1.0000
  C   C28       1.0  0.8410526139079079  0.2945579230893154  0.7780983716813131  1.0000
  C   C29       1.0  0.8385059709989137  0.27537423782368897  0.8166371414642152  1.0000
  C   C30       1.0  0.8183573366693273  0.28371229013098864  0.8514664771969014  1.0000
  H   H17       1.0  0.7915464735776665  0.3530399264138499  0.8082325824676199  1.0000
  H   H18       1.0  0.8281367751320321  0.33886790794895133  0.7471829343203081  1.0000
  H   H19       1.0  0.8507432231019979  0.25317705395017825  0.8185472427821461  1.0000
  H   H20       1.0  0.8159059984960066  0.2683221640891542  0.880510235110269  1.0000
  C   C31       1.0  0.05493606191942635  0.21789956904168672  0.8550926494115804  1.0000
  C   C32       1.0  0.058212616188665134  0.21797611844867365  0.8075361594014426  1.0000
  C   C33       1.0  0.07895065657275802  0.2385812873642444  0.7872541343848497  1.0000
  C   C34       1.0  0.09672861012910805  0.2587668272002119  0.8145284170049992  1.0000
  C   C35       1.0  0.09385423148384753  0.2583325312394875  0.8621566763920548  1.0000
  C   C36       1.0  0.07281500967282839  0.23799144645368386  0.8824425550224998  1.0000
  H   H21       1.0  0.04436522702455403  0.2025528116337384  0.786277151034264  1.0000
  H   H22       1.0  0.08098103435665904  0.23895987076904968  0.7503967479280709  1.0000
  H   H23       1.0  0.10698705352847449  0.2745352108998916  0.8832561334711023  1.0000
  H   H24       1.0  0.07017651850445406  0.23828958163893293  0.9191865312970537  1.0000
  C   C37       1.0  0.9152908537858285  0.23212763419749533  0.007501263091391319  1.0000
  C   C38       1.0  0.8944601696041662  0.250562980395654  0.983360525320622  1.0000
  C   C39       1.0  0.8725731996770058  0.23576770171113653  0.9556696368856215  1.0000
  C   C40       1.0  0.870894674154851  0.20255201941043458  0.9533410559805959  1.0000
  C   C41       1.0  0.8923525999533186  0.18416196909224825  0.9762411435328321  1.0000
  C   C42       1.0  0.9145517399489499  0.1989510351166756  0.0033196285695409333  1.0000
  H   H25       1.0  0.8951826839886246  0.27625769323249544  0.9861273473746682  1.0000
  H   H26       1.0  0.856792515990538  0.2501006206758352  0.9365639109970103  1.0000
  H   H27       1.0  0.8911452921898941  0.15845334326232963  0.9743804014451226  1.0000
  H   H28       1.0  0.9303100105810392  0.18459947718976055  0.022472693563731383  1.0000
  C   C43       1.0  0.6819758223077917  0.20889212334718618  0.16885397570951666  1.0000
  C   C44       1.0  0.7072309266083746  0.22048430140827058  0.19249629915650354  1.0000
  C   C45       1.0  0.732315042142736  0.2314366010013466  0.1683415718863548  1.0000
  C   C46       1.0  0.7321841667987461  0.23083786134753412  0.12046381338320922  1.0000
  C   C47       1.0  0.7074422209660686  0.21814829079641962  0.09665035666963995  1.0000
  C   C48       1.0  0.6822944266205223  0.20709306896410837  0.12091196981234179  1.0000
  H   H29       1.0  0.7074231219066232  0.22110747199864023  0.2295383310150227  1.0000
  H   H30       1.0  0.7515679859618608  0.24089976514014594  0.18686064276152567  1.0000
  H   H31       1.0  0.7073545272582138  0.2175624495102781  0.05957744023476996  1.0000
  H   H32       1.0  0.6628451103898938  0.19819752613482847  0.10240738656106196  1.0000
  C   C49       1.0  0.7428056687086037  0.2741040341559251  0.4163835942674592  1.0000
  C   C50       1.0  0.7195517810623753  0.2647076177662286  0.4456107885926596  1.0000
  C   C51       1.0  0.7226126491983448  0.2687829744044862  0.49317760156424806  1.0000
  C   C52       1.0  0.7492198704539531  0.2815209692838316  0.5117206639656731  1.0000
  C   C53       1.0  0.7730340431332369  0.28944304877983235  0.48261166642848063  1.0000
  C   C54       1.0  0.769714679342794  0.28605175625891177  0.43499832831039065  1.0000
  H   H33       1.0  0.6990540860880561  0.2545968931884485  0.4316538832470709  1.0000
  H   H34       1.0  0.7042708511489334  0.26218598239642316  0.5155523478138728  1.0000
  H   H35       1.0  0.793921552278895  0.29849303793743537  0.49662030634681137  1.0000
  H   H36       1.0  0.7879206426806632  0.29293720192787154  0.4125563241422159  1.0000
  C   C55       1.0  0.6993545728489903  0.5964509633304651  0.29652399934386886  1.0000
  C   C56       1.0  0.6882679211066272  0.6259289130948564  0.3113743908845049  1.0000
  C   C57       1.0  0.6759671355099633  0.6291847335272334  0.3553292724084808  1.0000
  C   C58       1.0  0.6755440333332772  0.6031692874598298  0.38481054200722187  1.0000
  C   C59       1.0  0.686569406514174  0.5736576581393373  0.3699374863213247  1.0000
  C   C60       1.0  0.6981383585427535  0.5701969190282697  0.3255738350997628  1.0000
  H   H37       1.0  0.6889443319803771  0.6462452647400011  0.28883610161844137  1.0000
  H   H38       1.0  0.667243927862293  0.6520170778492544  0.3666322020179573  1.0000
  H   H39       1.0  0.6860089073850273  0.55342716966602  0.39256706805815517  1.0000
  H   H40       1.0  0.7068966796202488  0.5474157469966653  0.31435280186001485  1.0000
  C   C61       1.0  0.6910372662455487  0.40717342537606666  0.2912967241938269  1.0000
  C   C62       1.0  0.6944179324759903  0.3769504686456473  0.31010842217609813  1.0000
  C   C63       1.0  0.6701252217316724  0.3557025292277657  0.3103273566854208  1.0000
  C   C64       1.0  0.6421652247793247  0.36465677642041694  0.2922255875605536  1.0000
  C   C65       1.0  0.6386287226391575  0.39501712202869416  0.27362645493540044  1.0000
  C   C66       1.0  0.6631540729895951  0.4162156043727773  0.2728390967911767  1.0000
  H   H41       1.0  0.7160830116064998  0.36963222469735396  0.3235406742979806  1.0000
  H   H42       1.0  0.6731791390183687  0.33233668323327126  0.3245457735435121  1.0000
  H   H43       1.0  0.6171311970699287  0.4019678774788025  0.2591495403542776  1.0000
  H   H44       1.0  0.6604587398979301  0.4394449496030804  0.25781753307917304  1.0000
  C   C67       1.0  0.10133929945893372  0.28097286056431914  0.10408027499058026  1.0000
  C   C68       1.0  0.1173298669350098  0.30693671253868227  0.12217580335168811  1.0000
  C   C69       1.0  0.12464426686898578  0.3080120617976384  0.16891024912428526  1.0000
  C   C70       1.0  0.11706248130332675  0.2825192873386105  0.19709741427058602  1.0000
  C   C71       1.0  0.10255436404999063  0.25583711643700346  0.17856649755620974  1.0000
  C   C72       1.0  0.0942703133078191  0.25538318531728527  0.132259661072472  1.0000
  H   H45       1.0  0.12304778780870196  0.3267648050971993  0.10046164205336194  1.0000
  H   H46       1.0  0.13608419175519026  0.32860504872845653  0.18310096833530212  1.0000
  H   H47       1.0  0.09646136774248015  0.23619048952024307  0.2003477352824049  1.0000
  H   H48       1.0  0.08169867915573237  0.2356382905740026  0.11863444820070557  1.0000
  C   C73       1.0  0.09039923767272073  0.34193525192767094  0.5260322948930001  1.0000
  C   C74       1.0  0.0608344504929752  0.3302152976471515  0.5243893317688545  1.0000
  C   C75       1.0  0.04255562974970539  0.3358925252228785  0.48595582710477936  1.0000
  C   C76       1.0  0.05392344453962705  0.35328839899351855  0.4492457003531699  1.0000
  C   C77       1.0  0.08314119587878976  0.36572550560127076  0.45170308142570975  1.0000
  C   C78       1.0  0.10159858179380699  0.3594609939516145  0.48950546360176916  1.0000
  H   H49       1.0  0.05242542203895906  0.31568399248723866  0.5517935247660157  1.0000
  H   H50       1.0  0.020039741554931156  0.3259481703741836  0.4840572260347219  1.0000
  H   H51       1.0  0.09156868723516487  0.3803033795068487  0.42439831375182824  1.0000
  H   H52       1.0  0.12448447656232675  0.36844266854375923  0.4906580474597005  1.0000
  C   C79       1.0  0.10162217870992318  0.5908643470804411  0.3408796642726539  1.0000
  C   C80       1.0  0.10034231090860612  0.5859891489222369  0.3882117994676841  1.0000
  C   C81       1.0  0.07787276432268997  0.5665800715414778  0.40681376822688303  1.0000
  C   C82       1.0  0.056738586873688934  0.5517590322897218  0.37807666634824016  1.0000
  C   C83       1.0  0.0586370114721293  0.555736866597497  0.33061163361401513  1.0000
  C   C84       1.0  0.08087520691964767  0.5755343312084699  0.31203642745146964  1.0000
  H   H53       1.0  0.11663922032801288  0.5975289058606587  0.41054222697619  1.0000
  H   H54       1.0  0.07705385124396336  0.5630168509370169  0.4433046766938587  1.0000
  H   H55       1.0  0.042377719910558165  0.5441679975468257  0.3082219221361407  1.0000
  H   H56       1.0  0.08148405578642337  0.5794032196956083  0.27554668502513235  1.0000
  C   C85       1.0  0.1366359665069048  0.49398150690121145  0.1510056430112164  1.0000
  C   C86       1.0  0.14320326584110066  0.46144394167564745  0.1533416538183447  1.0000
  C   C87       1.0  0.12054136022760953  0.4396285297417234  0.16476798279343885  1.0000
  C   C88       1.0  0.09111415013617541  0.4502556274546844  0.1728748377495489  1.0000
  C   C89       1.0  0.08413297770478301  0.4824927139224222  0.16778870562190762  1.0000
  C   C90       1.0  0.10691659536183229  0.5043503378126695  0.15704699895412913  1.0000
  H   H57       1.0  0.16609108239295203  0.45325186382980953  0.14803061994363628  1.0000
  H   H58       1.0  0.12593014107024136  0.41465052907417227  0.16769424492488305  1.0000
  H   H59       1.0  0.061312771956112844  0.4907425374844348  0.1735699646871308  1.0000
  H   H60       1.0  0.10142319561734903  0.5291729987778041  0.1535185153003379  1.0000
  C   C91       1.0  0.7502061413410025  0.5561507362279994  0.9767755435507454  1.0000
  C   C92       1.0  0.7807058347262471  0.5528209400697426  0.988256611658037  1.0000
  C   C93       1.0  0.7892844607787767  0.5329402092134077  0.02432760213714547  1.0000
  C   C94       1.0  0.7673379252341356  0.5167776660538186  0.04940668193200337  1.0000
  C   C95       1.0  0.736897569230848  0.5193961151666813  0.03704254054713663  1.0000
  C   C96       1.0  0.7283815017984052  0.5388641237005088  0.00047296431265220207  1.0000
  H   H61       1.0  0.7977728754264634  0.5656169140907474  0.969567502177922  1.0000
  H   H62       1.0  0.8128734777773913  0.5307186327699176  0.033544123591902286  1.0000
  H   H63       1.0  0.7199954996303465  0.506033487781965  0.05531347674473786  1.0000
  H   H64       1.0  0.7049367068610701  0.54062581094631  0.9906843790685846  1.0000
  C   C97       1.0  0.7869299411817403  0.6240511420869896  0.7288191533608445  1.0000
  C   C98       1.0  0.7840780778002165  0.6258499697118395  0.6812456245078464  1.0000
  C   C99       1.0  0.7564454434872225  0.6187183392523444  0.6601533597347313  1.0000
  C   C100      1.0  0.731597553036708  0.6099448235634465  0.68662774266231  1.0000
  C   C101      1.0  0.734450200423996  0.6079758518046876  0.7342026767066585  1.0000
  C   C102      1.0  0.7621703117774014  0.6148953966571977  0.7552877058105223  1.0000
  H   H65       1.0  0.8031629451306748  0.6328339747079118  0.6606241333024507  1.0000
  H   H66       1.0  0.7544233808424008  0.6201746678965899  0.6233420836816366  1.0000
  H   H67       1.0  0.7155568963326627  0.6000933700890281  0.7545405505834935  1.0000
  H   H68       1.0  0.7645531691545113  0.612230535853947  0.7918369177808072  1.0000
  C   C103      1.0  0.10284282154720747  0.6280691546150046  0.9498739251216979  1.0000
  C   C104      1.0  0.11239211061005427  0.6081563234439086  0.9852240040163733  1.0000
  C   C105      1.0  0.1079091019721139  0.6171505570808083  0.03112593810404296  1.0000
  C   C106      1.0  0.09430565262441193  0.6463179416638568  0.04186587464011149  1.0000
  C   C107      1.0  0.08443284519568284  0.6660830695963066  0.0064711688982177495  1.0000
  C   C108      1.0  0.08872746026198164  0.6570045625485633  0.9605645719662672  1.0000
  H   H69       1.0  0.12306293677942581  0.585631240243961  0.9771955568033375  1.0000
  H   H70       1.0  0.11465350922408613  0.6012552708991099  0.05815336996484045  1.0000
  H   H71       1.0  0.07376463103777553  0.688610909574315  0.014478590937036186  1.0000
  H   H72       1.0  0.08159823706045954  0.6727570750750076  0.9335530131024775  1.0000
  C   C109      1.0  0.059397262305349585  0.6861594978213909  0.6501346390867848  1.0000
  C   C110      1.0  0.04902712157819544  0.7062717288850308  0.6155416345455494  1.0000
  C   C111      1.0  0.027983299808779227  0.6950880657395275  0.58312893168522  1.0000
  C   C112      1.0  0.018021837136689145  0.663491256584002  0.5843908448708318  1.0000
  C   C113      1.0  0.029022793349976705  0.6431353886422129  0.6181798229232365  1.0000
  C   C114      1.0  0.04929387536454244  0.6546122861220557  0.6514559644689996  1.0000
  H   H73       1.0  0.0566004173645287  0.7307306029479884  0.6146205691484571  1.0000
  H   H74       1.0  0.019461491625518024  0.7109567675920386  0.5571783352098976  1.0000
  H   H75       1.0  0.021642746007438873  0.6186603769038115  0.6192032500463295  1.0000
  H   H76       1.0  0.05745630369775934  0.6388734255815353  0.6777516161141326  1.0000
  C   C115      1.0  0.9558151028507959  0.6033204161931381  0.8241202804682475  1.0000
  C   C116      1.0  0.9246935709615585  0.6020816280427282  0.8166818603375315  1.0000
  C   C117      1.0  0.9049569088660047  0.6001342400893557  0.8538275896828698  1.0000
  C   C118      1.0  0.9163066482474045  0.5985322462312294  0.898494262076571  1.0000
  C   C119      1.0  0.9475044587999907  0.5981860497765205  0.9058811620559175  1.0000
  C   C120      1.0  0.9672733017686778  0.6008159901792812  0.868679772849567  1.0000
  H   H77       1.0  0.9157028923447859  0.6034540796567166  0.782413802581851  1.0000
  H   H78       1.0  0.8809102125893561  0.5999659277451004  0.847786983166633  1.0000
  H   H79       1.0  0.9563334674548755  0.5965177912450235  0.9403909933691692  1.0000
  H   H80       1.0  0.9913066997483563  0.6005510139558641  0.874601292905274  1.0000
  C   C121      1.0  0.3866590635228199  0.09887765066570431  0.7224075423967143  1.0000
  C   C122      1.0  0.41440109465635105  0.08312231884773547  0.718983208879793  1.0000
  C   C123      1.0  0.4235834039167607  0.07020527828298828  0.6768508221277372  1.0000
  C   C124      1.0  0.4049514026876591  0.07298855491212053  0.6383568058236833  1.0000
  C   C125      1.0  0.37786742671854934  0.08987195519370661  0.6413863879546126  1.0000
  C   C126      1.0  0.3689424124200138  0.10314721998475784  0.6832780969988418  1.0000
  H   H81       1.0  0.42848015009510243  0.08019368996810017  0.7489652841714463  1.0000
  H   H82       1.0  0.44481681418073354  0.057718548892426336  0.6744688472782888  1.0000
  H   H83       1.0  0.3633777323512949  0.09214249634051708  0.6117556549787239  1.0000
  H   H84       1.0  0.34834092409296064  0.11671016046668425  0.6852523025621375  1.0000
  C   C127      1.0  0.3153462526585411  0.9556577333294386  0.7679704068585034  1.0000
  C   C128      1.0  0.28501884876221767  0.94760364056479  0.7610903532149115  1.0000
  C   C129      1.0  0.2626962055252386  0.9712682829991884  0.7635188921287837  1.0000
  C   C130      1.0  0.2707874301623469  0.0030649158628932582  0.7715224435768843  1.0000
  C   C131      1.0  0.3011896575091855  0.01103636442830469  0.7777171434731158  1.0000
  C   C132      1.0  0.3233616129651948  0.9873007895721412  0.7767977233712965  1.0000
  H   H85       1.0  0.27867532466373446  0.9231666745953989  0.7542288432384965  1.0000
  H   H86       1.0  0.2392107668463876  0.9650206730914824  0.758484772014341  1.0000
  H   H87       1.0  0.30775608379792935  0.035488438923224175  0.7831608655418364  1.0000
  H   H88       1.0  0.346806881739683  0.9936355307607455  0.7820399515557216  1.0000
  C   C133      1.0  0.5031683422336263  0.8391117366541156  0.5189390602172503  1.0000
  C   C134      1.0  0.5199757106510806  0.8662912952497407  0.5296136091802648  1.0000
  C   C135      1.0  0.5106247076560088  0.8867486464630044  0.5648421108239731  1.0000
  C   C136      1.0  0.4842350782538832  0.8804234699847868  0.5891679922212264  1.0000
  C   C137      1.0  0.46766599375646006  0.8528325461235327  0.5792453681079851  1.0000
  C   C138      1.0  0.47722628737198164  0.8321046136258327  0.5442084313166171  1.0000
  H   H89       1.0  0.5403674190107615  0.8714435350691211  0.5107577596771067  1.0000
  H   H90       1.0  0.5242391912437486  0.9070963536452434  0.573537474435158  1.0000
  H   H91       1.0  0.4469453618886149  0.84800336705738  0.5974172620159169  1.0000
  H   H92       1.0  0.4637832920826049  0.811496463357697  0.535332450715547  1.0000
  C   C139      1.0  0.40684962214687265  0.7233653993518144  0.5804469755814348  1.0000
  C   C140      1.0  0.3962594805309321  0.7077043828966536  0.6192097447185664  1.0000
  C   C141      1.0  0.3880801970553792  0.7252333184243401  0.6582733651761092  1.0000
  C   C142      1.0  0.38912288371727083  0.7584690506401939  0.6577791687044403  1.0000
  C   C143      1.0  0.39900908281808717  0.7742600390084502  0.6186092459550454  1.0000
  C   C144      1.0  0.4086826444184069  0.756648175771684  0.5803864891739986  1.0000
  H   H93       1.0  0.3949513330986569  0.6819890843938606  0.6193547187688424  1.0000
  H   H94       1.0  0.3804639126689206  0.7130381384914504  0.6886031890934668  1.0000
  H   H95       1.0  0.39994407312444524  0.7999778548639548  0.6181832784912654  1.0000
  H   H96       1.0  0.4173331591230203  0.7688206361642322  0.5507453577760795  1.0000
  C   C145      1.0  0.04596157956102087  0.7627986292320816  0.9242775321563612  1.0000
  C   C146      1.0  0.0771326849838605  0.7579075481363586  0.9203826934239573  1.0000
  C   C147      1.0  0.09734912572722765  0.7755184895913965  0.9477981673180395  1.0000
  C   C148      1.0  0.08631605946068577  0.7975568426335911  0.9798617864374323  1.0000
  C   C149      1.0  0.055190486608032385  0.8019255721769526  0.9844303772116333  1.0000
  C   C150      1.0  0.03508287976776758  0.7848275980040058  0.9564033663683372  1.0000
  H   H97       1.0  0.08572337296865862  0.7408849923219286  0.896087974022873  1.0000
  H   H98       1.0  0.12138095865234466  0.7720248189369746  0.9441678912964475  1.0000
  H   H99       1.0  0.04661303931367611  0.818981672391635  0.009151176528439331  1.0000
  H   H100      1.0  0.011058403702598252  0.7888012450639161  0.9595733258300341  1.0000
  C   C151      1.0  0.22212054378142992  0.7714675237495502  0.823115369126455  1.0000
  C   C152      1.0  0.2248101571895166  0.7538357894562634  0.7824960083615196  1.0000
  C   C153      1.0  0.23008430439531016  0.76933361883886  0.7409919632017915  1.0000
  C   C154      1.0  0.2333748972367103  0.802416956959588  0.7402514513741115  1.0000
  C   C155      1.0  0.23157948313739607  0.8200142563947055  0.7810860896644551  1.0000
  C   C156      1.0  0.22582970943965022  0.804539413982573  0.8225384918306601  1.0000
  H   H101      1.0  0.22211792027440663  0.7282476840373722  0.7828846002168836  1.0000
  H   H102      1.0  0.2314664973683385  0.7557308255096179  0.7093985862499103  1.0000
  H   H103      1.0  0.23373324421605526  0.8456532915265764  0.7803640369007225  1.0000
  H   H104      1.0  0.22385611314441864  0.8182668401869864  0.8538405209090841  1.0000
  C   C157      1.0  0.14561506955508952  0.1443066851239725  0.11124247978601876  1.0000
  C   C158      1.0  0.13343598594579031  0.11354640391746851  0.1084693364845748  1.0000
  C   C159      1.0  0.10235355313386618  0.10932459195258226  0.10098731256274385  1.0000
  C   C160      1.0  0.08374211792333175  0.13588680288053556  0.09554562688752632  1.0000
  C   C161      1.0  0.09611936567516888  0.16635355399494123  0.09763134655531625  1.0000
  C   C162      1.0  0.12694116064579886  0.17067881227057113  0.10543741588128785  1.0000
  H   H105      1.0  0.1478424302040411  0.09300706883282728  0.11204687105225575  1.0000
  H   H106      1.0  0.09285186166647241  0.08563207086471536  0.09868345769348208  1.0000
  H   H107      1.0  0.0816437306938973  0.18661303984596267  0.09359615975620139  1.0000
  H   H108      1.0  0.13610850724058876  0.19447818908223047  0.10686480198906612  1.0000
  C   C163      1.0  0.29240937322756927  0.09914265379095766  0.019076736278292206  1.0000
  C   C164      1.0  0.26813637602404633  0.11984202920638598  0.026395130815102474  1.0000
  C   C165      1.0  0.2579964029210292  0.13954567388979067  0.9910881900149023  1.0000
  C   C166      1.0  0.27258570187521497  0.13913232989125368  0.9487212310306288  1.0000
  C   C167      1.0  0.29857296943988  0.12062639281156073  0.9429155457152124  1.0000
  C   C168      1.0  0.3082795721771767  0.10029798083981434  0.9778206809474681  1.0000
  H   H109      1.0  0.2566853725054752  0.12032948312961222  0.058965807265253245  1.0000
  H   H110      1.0  0.23834520907005108  0.15441822418274653  0.9963003475996957  1.0000
  H   H111      1.0  0.31115767171857384  0.1218969223585975  0.9114929627581653  1.0000
  H   H112      1.0  0.3273652719871135  0.08473764139205597  0.9721220540449228  1.0000
  C   C169      1.0  0.1909187467318867  0.9684139184440766  0.05615506999567921  1.0000
  C   C170      1.0  0.22019295305869505  0.9752299737328024  0.04117832027367352  1.0000
  C   C171      1.0  0.23413004841085885  0.9553190569928994  0.008645937787653546  1.0000
  C   C172      1.0  0.21887314738468872  0.9284721368713512  0.9916811328920074  1.0000
  C   C173      1.0  0.1892858319217783  0.9224268712306128  0.00549879840886125  1.0000
  C   C174      1.0  0.17536253637032317  0.9423144932656936  0.03779020403761235  1.0000
  H   H113      1.0  0.23229307588823356  0.9954064702613632  0.05535246047002951  1.0000
  H   H114      1.0  0.2571124831047925  0.9599198792627316  0.9981928399960122  1.0000
  H   H115      1.0  0.17711379195718416  0.9021905532374594  0.9916201272324292  1.0000
  H   H116      1.0  0.1526311340066353  0.9371563041063351  0.04904586834333635  1.0000
  C   C175      1.0  0.3088713974019713  0.8305854595387714  0.1695632279381549  1.0000
  C   C176      1.0  0.3033663204709242  0.8354325399638793  0.122849479362411  1.0000
  C   C177      1.0  0.27983411305148176  0.8189243081373988  0.10056367600213778  1.0000
  C   C178      1.0  0.2618573144117358  0.7977086914742296  0.1251676634786032  1.0000
  C   C179      1.0  0.2666292105537573  0.7940008581030106  0.17211917277462252  1.0000
  C   C180      1.0  0.29014236624448214  0.8102971147925958  0.19427014928464412  1.0000
  H   H117      1.0  0.317870964192978  0.8511365815810803  0.10370094702051304  1.0000
  H   H118      1.0  0.2760619148635564  0.8220387329349174  0.06428304599329304  1.0000
  H   H119      1.0  0.2520485195273527  0.7785049090412878  0.19143891442641836  1.0000
  H   H120      1.0  0.2938053764294357  0.8070824661607948  0.23059069852328634  1.0000
  C   C181      1.0  0.2732185964289772  0.7135444295718418  0.28420590529277945  1.0000
  C   C182      1.0  0.2766323380519778  0.7255350709914934  0.24015244321354345  1.0000
  C   C183      1.0  0.26192631167679825  0.7111526497493996  0.20286401016353314  1.0000
  C   C184      1.0  0.24296743981607188  0.6850942618200205  0.20958267557745713  1.0000
  C   C185      1.0  0.2383187606261325  0.6737229707257268  0.25394298037253904  1.0000
  C   C186      1.0  0.253633841742184  0.6878517315821163  0.29125792335604794  1.0000
  H   H121      1.0  0.2904732699068971  0.7460881161408844  0.2347192641967301  1.0000
  H   H122      1.0  0.265204102572274  0.7203241663989395  0.16868351151935404  1.0000
  H   H123      1.0  0.22363684654777993  0.6535396635245513  0.2593314756269492  1.0000
  H   H124      1.0  0.2507334491015385  0.6784956323755515  0.325354534760583  1.0000
  C   C187      1.0  0.3900076412273191  0.8364764587948071  0.4434819111802618  1.0000
  C   C188      1.0  0.39613577835988306  0.8328552882863012  0.4902466375881841  1.0000
  C   C189      1.0  0.3790679390224229  0.8494819605975311  0.5230551214161774  1.0000
  C   C190      1.0  0.3563578345001487  0.8703441951553486  0.5089159649833214  1.0000
  C   C191      1.0  0.35051486348866295  0.8742205353762396  0.46213198603379513  1.0000
  C   C192      1.0  0.3670174602523778  0.8569454172763821  0.42943762986985723  1.0000
  H   H125      1.0  0.4140325653103159  0.8171147145983342  0.5010529518987845  1.0000
  H   H126      1.0  0.3838480831894939  0.8466165999754335  0.559157274025751  1.0000
  H   H127      1.0  0.33297953081197756  0.8904104386281702  0.45117838297519675  1.0000
  H   H128      1.0  0.36238792860457736  0.8600425174279692  0.3933500696942329  1.0000
  C   C193      1.0  0.5743265000140049  0.5808202796648587  0.17261485971757085  1.0000
  C   C194      1.0  0.6052328210395864  0.5793796374959065  0.1819443312490323  1.0000
  C   C195      1.0  0.6214870318191098  0.5517572073612826  0.17159278221705385  1.0000
  C   C196      1.0  0.6071708462739864  0.5259939864254369  0.1500565528223894  1.0000
  C   C197      1.0  0.5762725325522134  0.5274236835718633  0.14046223962927318  1.0000
  C   C198      1.0  0.5597267187747471  0.5546647298752638  0.15248923188750882  1.0000
  H   H129      1.0  0.6165459081247598  0.5991916284958553  0.19823430576282847  1.0000
  H   H130      1.0  0.6452601435200087  0.5507455028816534  0.1795918823715696  1.0000
  H   H131      1.0  0.5651166288313059  0.5074231804271577  0.1240241641931639  1.0000
  H   H132      1.0  0.5357427439616684  0.5556831331900288  0.14548332991561272  1.0000
  C   C199      1.0  0.6138358583448416  0.7081403526116385  0.3232485540689331  1.0000
  C   C200      1.0  0.5994612211475553  0.6797921787258039  0.3105645709375901  1.0000
  C   C201      1.0  0.5780680890744084  0.6661374427630476  0.33943129930570254  1.0000
  C   C202      1.0  0.5711937587141802  0.6804620332717207  0.381411770586135  1.0000
  C   C203      1.0  0.586105840435903  0.7084617329375709  0.39468007823303164  1.0000
  C   C204      1.0  0.6076027095347558  0.7221992709046842  0.3657399139746074  1.0000
  H   H133      1.0  0.6043711721390653  0.668687416761945  0.277953246756735  1.0000
  H   H134      1.0  0.5658774233406584  0.6452651288790887  0.3282223212922178  1.0000
  H   H135      1.0  0.5810451086209676  0.7198441901410968  0.4267997114410294  1.0000
  H   H136      1.0  0.6186162834369723  0.744237975194701  0.3755276623832687  1.0000
  C   C205      1.0  0.4545916319309083  0.7309118459530851  0.1959303182625446  1.0000
  C   C206      1.0  0.4574857051851572  0.7628658356525263  0.18350275924476747  1.0000
  C   C207      1.0  0.4828201100643936  0.7728199694355572  0.15852666649993544  1.0000
  C   C208      1.0  0.505259021907802  0.7508218942899245  0.14649806778314722  1.0000
  C   C209      1.0  0.5016306141096012  0.718756154294124  0.15748317797950606  1.0000
  C   C210      1.0  0.47640099875351477  0.7088362426996291  0.18218687183607066  1.0000
  H   H137      1.0  0.4404437770708038  0.7799378623843428  0.19343702608778948  1.0000
  H   H138      1.0  0.48551514081403224  0.7976455482926138  0.14995426504555698  1.0000
  H   H139      1.0  0.5184464933619826  0.7014841372688195  0.14732895287435063  1.0000
  H   H140      1.0  0.4741549558261559  0.6840600047548798  0.19139778342199726  1.0000
  C   C211      1.0  0.18723601389455902  0.13697912997684458  0.34393981569420906  1.0000
  C   C212      1.0  0.18487360985671847  0.10613279481828575  0.3611189511922304  1.0000
  C   C213      1.0  0.20140782232898594  0.08122760516853034  0.3409341436773486  1.0000
  C   C214      1.0  0.21947277670251988  0.08699412703681886  0.30265638022335417  1.0000
  C   C215      1.0  0.22108951070316327  0.11770181164038385  0.2847223506796315  1.0000
  C   C216      1.0  0.20550289397833396  0.14276376770302157  0.30594552156827753  1.0000
  H   H141      1.0  0.1711917423528161  0.10169669030014106  0.3910304672590577  1.0000
  H   H142      1.0  0.20020000229599846  0.057513956866924065  0.35495433046792624  1.0000
  H   H143      1.0  0.235049307426409  0.12237858770532495  0.2552861737886247  1.0000
  H   H144      1.0  0.20759889791473296  0.1666624988866905  0.2928996043912742  1.0000
  C   C217      1.0  0.2030609719801753  0.33667837231124764  0.4516011015020585  1.0000
  C   C218      1.0  0.19496804328494985  0.3642068829834424  0.4760530199720769  1.0000
  C   C219      1.0  0.1830311257518804  0.39055245579662795  0.4529512388348954  1.0000
  C   C220      1.0  0.17835782796217078  0.388984545717391  0.40556126001312526  1.0000
  C   C221      1.0  0.1867355222583908  0.36164713948971494  0.3811260465761122  1.0000
  C   C222      1.0  0.19954932746855328  0.3357974046623255  0.40400955289312485  1.0000
  H   H145      1.0  0.1976493980501398  0.3650750122974983  0.5128835485347585  1.0000
  H   H146      1.0  0.17650802587710118  0.4115955633269176  0.47202596555447957  1.0000
  H   H147      1.0  0.18339523881357214  0.36042351592120175  0.34441178803873257  1.0000
  H   H148      1.0  0.2064293427534355  0.31519385186909554  0.38466729854686244  1.0000
  C   C223      1.0  0.28892858885219264  0.1745144133166685  0.5342363188928889  1.0000
  C   C224      1.0  0.2749676806772059  0.2023876218543681  0.5497908265166783  1.0000
  C   C225      1.0  0.26455838649811153  0.2046289909302248  0.5949583235826625  1.0000
  C   C226      1.0  0.26788980675595175  0.1790815448747336  0.6248954806141408  1.0000
  C   C227      1.0  0.28280544022909665  0.15154019407502717  0.6098668257896861  1.0000
  C   C228      1.0  0.2933936719593787  0.14927302519871488  0.5645721964603504  1.0000
  H   H149      1.0  0.27224903559748315  0.2223286892854892  0.5270158646170422  1.0000
  H   H150      1.0  0.25397546645481167  0.2262235799592669  0.6068555867833212  1.0000
  H   H151      1.0  0.28534159802406556  0.1316279504420128  0.6325711214620242  1.0000
  H   H152      1.0  0.3039397423100898  0.12752820039277313  0.5527911848318229  1.0000
  C   C229      1.0  0.5069133604900536  0.21712182196983465  0.40112149213404347  1.0000
  C   C230      1.0  0.5205619169990535  0.22806933535781757  0.44150734629848415  1.0000
  C   C231      1.0  0.5516226146330763  0.22383181631843105  0.44820242258845444  1.0000
  C   C232      1.0  0.5690866285015668  0.20962237794630598  0.413860620516384  1.0000
  C   C233      1.0  0.5554924210632847  0.1989311587660146  0.3732717258410417  1.0000
  C   C234      1.0  0.5243091916619285  0.20226319871438275  0.3671781299017713  1.0000
  H   H153      1.0  0.5071078575528468  0.2394893122072555  0.46780117445714264  1.0000
  H   H154      1.0  0.5622216747813062  0.23205847965085538  0.4796191076027018  1.0000
  H   H155      1.0  0.5690503963829192  0.18795037953483074  0.34670389726647616  1.0000
  H   H156      1.0  0.5139020578838531  0.19397290578857554  0.3357374307579255  1.0000
  C   C235      1.0  0.42838404251397294  0.062287740403276226  0.39711846901034714  1.0000
  C   C236      1.0  0.4513917392005732  0.05317181860305609  0.3668822923039062  1.0000
  C   C237      1.0  0.4749580910153663  0.033510983462539334  0.38210341599610836  1.0000
  C   C238      1.0  0.47612977080799274  0.024271547451349296  0.42800705722160104  1.0000
  C   C239      1.0  0.4534364282666159  0.034193885026217785  0.45804184301918766  1.0000
  C   C240      1.0  0.4292018904568125  0.052304615308556235  0.4424494538946611  1.0000
  H   H157      1.0  0.45088886745739126  0.06103554802367883  0.33169347215299044  1.0000
  H   H158      1.0  0.49241740703074466  0.02598776628694388  0.3585597976149495  1.0000
  H   H159      1.0  0.4544970576627815  0.028490022599060527  0.4936826934115186  1.0000
  H   H160      1.0  0.4117545836980391  0.05944845553979561  0.4661962228038377  1.0000
  C   C241      1.0  0.3542153634695866  0.20175026820655306  0.22028389133107146  1.0000
  C   C242      1.0  0.34271835398991146  0.19345162499040458  0.2631288663155959  1.0000
  C   C243      1.0  0.3179503709569592  0.2098715146681247  0.28150576372839803  1.0000
  C   C244      1.0  0.3044614308911488  0.23436438146482086  0.25666571510019026  1.0000
  C   C245      1.0  0.3152283403065338  0.24183081710022325  0.213051451152087  1.0000
  C   C246      1.0  0.33999317158693826  0.22541387169642824  0.19476430902471947  1.0000
  H   H161      1.0  0.35289753656297307  0.174417098261207  0.28208383601029435  1.0000
  H   H162      1.0  0.30976188813159344  0.20409574495191607  0.31520816983827077  1.0000
  H   H163      1.0  0.3049499591311175  0.26086676684179766  0.19383751404085633  1.0000
  H   H164      1.0  0.3487665912592495  0.23184431174825404  0.16157323946023797  1.0000
  C   C247      1.0  0.6323818664600208  0.7122234205330936  0.925970690925956  1.0000
  C   C248      1.0  0.6612279689018205  0.7208276473483908  0.9413942068897232  1.0000
  C   C249      1.0  0.6716267171684975  0.7103057292570829  0.9840702286214402  1.0000
  C   C250      1.0  0.6527523862173855  0.6922686627286029  0.01201674634859007  1.0000
  C   C251      1.0  0.6238761554314204  0.6839006566389703  0.9966651787601241  1.0000
  C   C252      1.0  0.6139595895139106  0.693305713886582  0.9533220599336799  1.0000
  H   H165      1.0  0.6757298103818566  0.7353129581455933  0.9205184950727531  1.0000
  H   H166      1.0  0.6940490532113665  0.7167488166494344  0.995765992231283  1.0000
  H   H167      1.0  0.6092457958917626  0.6697672631852587  0.017726109899030895  1.0000
  H   H168      1.0  0.5916716435488423  0.6865635806704924  0.9414008918794632  1.0000
  C   C253      1.0  0.7534775052508043  0.7857219518684561  0.834942980708302  1.0000
  C   C254      1.0  0.7501052553842931  0.7928104747540827  0.8815393493984657  1.0000
  C   C255      1.0  0.7651151385540155  0.7745572813710807  0.914510912803958  1.0000
  C   C256      1.0  0.7830048485740142  0.7487159841173586  0.9010159313792666  1.0000
  C   C257      1.0  0.7865001238190056  0.7416293481228827  0.854367941539141  1.0000
  C   C258      1.0  0.7721331599696909  0.76045733456051  0.8213342179374622  1.0000
  H   H169      1.0  0.7362732353994701  0.8127060665261233  0.8921854864995663  1.0000
  H   H170      1.0  0.7624868670683298  0.7801815204230843  0.9505196999067306  1.0000
  H   H171      1.0  0.8005686689156825  0.7218907286484957  0.84374417286625  1.0000
  H   H172      1.0  0.7749412436838798  0.7550430750292013  0.7853081155092839  1.0000
  C   C259      1.0  0.5784065757340178  0.8031565606058529  0.7018953771047877  1.0000
  C   C260      1.0  0.5669588954093234  0.8034207313473996  0.6570977729100407  1.0000
  C   C261      1.0  0.5589040571815534  0.7747182260814564  0.6351663734259542  1.0000
  C   C262      1.0  0.5620915837335583  0.7458176443942213  0.658216776417194  1.0000
  C   C263      1.0  0.5730251408295882  0.7456934851355745  0.7031779075966942  1.0000
  C   C264      1.0  0.5809651188879518  0.7742972281530115  0.7250571806222575  1.0000
  H   H173      1.0  0.5647516952675893  0.8256984693193382  0.6390863656795907  1.0000
  H   H174      1.0  0.5504295027748275  0.7749895348831208  0.6003718988735048  1.0000
  H   H175      1.0  0.5750879091182022  0.7234604558341381  0.7213406741053434  1.0000
  H   H176      1.0  0.5885199962444229  0.773971196994255  0.7602482044722827  1.0000
  C   C265      1.0  0.4874363256473786  0.10176638009133265  0.09129223871637326  1.0000
  C   C266      1.0  0.47564190833688447  0.12633639047743794  0.11838746074182259  1.0000
  C   C267      1.0  0.4849477172840397  0.13004591406252075  0.1639104411964569  1.0000
  C   C268      1.0  0.5067222455980734  0.10976017018222195  0.18231771097382937  1.0000
  C   C269      1.0  0.5196858692798628  0.08608448111898115  0.15469271851068525  1.0000
  C   C270      1.0  0.5098741341243588  0.0819494542591801  0.10920567169965101  1.0000
  H   H177      1.0  0.4591107772348285  0.14246540080364012  0.10449242756632267  1.0000
  H   H178      1.0  0.4751674778071331  0.14868924421366203  0.18472369078990192  1.0000
  H   H179      1.0  0.5364167373929555  0.07020642882613637  0.16891904682570263  1.0000
  H   H180      1.0  0.5189333254609713  0.06275738411243292  0.08864168937963868  1.0000
  C   C271      1.0  0.6396606589354359  0.1103275583815817  0.9757179549300589  1.0000
  C   C272      1.0  0.6277779323431977  0.12231976109386  0.9349916373834216  1.0000
  C   C273      1.0  0.6433449600074644  0.14600255859733435  0.911242593325927  1.0000
  C   C274      1.0  0.6706146516564881  0.15811390480586573  0.928412928097465  1.0000
  C   C275      1.0  0.6824342634709077  0.14623517834071853  0.969348008691573  1.0000
  C   C276      1.0  0.6671026651081964  0.12210694655786503  0.992756844507251  1.0000
  H   H181      1.0  0.6066484945613986  0.11335975417697886  0.9215005243902678  1.0000
  H   H182      1.0  0.6341369251508311  0.15514063698773684  0.879589140667045  1.0000
  H   H183      1.0  0.7034643449031749  0.15545297224831667  0.9827477941525283  1.0000
  H   H184      1.0  0.6764825673297802  0.1127500519022473  0.02412321294315256  1.0000
  C   C277      1.0  0.5324122801691794  0.09217531427950187  0.783602480797398  1.0000
  C   C278      1.0  0.5127270142376693  0.08791624967165013  0.7464038405047343  1.0000
  C   C279      1.0  0.5211680438967664  0.06838773465001702  0.7093305342299686  1.0000
  C   C280      1.0  0.549519839671104  0.05370494568967077  0.7091407677473958  1.0000
  C   C281      1.0  0.5693601767550565  0.05846628635427109  0.7459283597588714  1.0000
  C   C282      1.0  0.5607236357585808  0.07749878671329458  0.7832747635684819  1.0000
  H   H185      1.0  0.49082353922504673  0.09928595053010003  0.7465278279301284  1.0000
  H   H186      1.0  0.5058795075676281  0.06498348445740554  0.6807628564396254  1.0000
  H   H187      1.0  0.5913866607713659  0.04738219671983224  0.7456017200122075  1.0000
  H   H188      1.0  0.5762594513533207  0.081432349117327  0.8113574348640951  1.0000
  C   C283      1.0  0.558011185053839  0.9460747301744782  0.9139186313124049  1.0000
  C   C284      1.0  0.5642662916882548  0.9212901421139383  0.883164638767682  1.0000
  C   C285      1.0  0.5880826695225853  0.9002965013473062  0.8916581757286257  1.0000
  C   C286      1.0  0.6049289970315986  0.9031919568005362  0.932016855073524  1.0000
  C   C287      1.0  0.5982437120434806  0.9275257419842798  0.963497436951889  1.0000
  C   C288      1.0  0.5751400207602227  0.9494234301614208  0.9540231396534492  1.0000
  H   H189      1.0  0.550728753499813  0.9184665887051683  0.8526204462644438  1.0000
  H   H190      1.0  0.5932318603006022  0.8817938488749933  0.8670279256543042  1.0000
  H   H191      1.0  0.6109400099545302  0.9294189942434451  0.9951235403254978  1.0000
  H   H192      1.0  0.5700024574162088  0.9682773319497291  0.9782386750628292  1.0000
  N   N1        1.0  0.3809726418871364  0.11089596661655143  0.10082503594693559  1.0000
  C   C289      1.0  0.37796017965270323  0.084506770510685  0.06730320125098888  1.0000
  C   C290      1.0  0.3940245295142466  0.1389005260752596  0.07791967166851044  1.0000
  C   C291      1.0  0.4009959705681387  0.10087309519659082  0.13861437323175285  1.0000
  C   C292      1.0  0.35097319129962806  0.11930825576583426  0.11937564560714886  1.0000
  H   H193      1.0  0.36761144722115424  0.06313931934155903  0.08316324948893472  1.0000
  H   H194      1.0  0.40031533013007775  0.07734372801780309  0.05314737260653457  1.0000
  H   H195      1.0  0.3632664449823104  0.09134875770006579  0.038076055148539734  1.0000
  H   H196      1.0  0.397991620613761  0.158807589465932  0.10275748727292844  1.0000
  H   H197      1.0  0.4159658224293605  0.13294243981656906  0.06151621909407945  1.0000
  H   H198      1.0  0.37872386280632364  0.1479197269109278  0.05068105600378825  1.0000
  H   H199      1.0  0.40531785886419575  0.12081990061933556  0.16312862659356964  1.0000
  H   H200      1.0  0.42323885654282734  0.09260587263661035  0.12554811934731203  1.0000
  H   H201      1.0  0.3909979193859718  0.08092547299949104  0.15820969916046534  1.0000
  H   H202      1.0  0.3525680953210347  0.13892554801048895  0.1451503665512599  1.0000
  H   H203      1.0  0.3401194032390291  0.09859815192228338  0.1361679365229047  1.0000
  H   H204      1.0  0.33535275144210924  0.12729019573864497  0.09183441354809574  1.0000
  N   N2        1.0  0.916651841747544  0.41104598443437024  0.5390598496385887  1.0000
  C   C293      1.0  0.9291002155655994  0.43294554948444364  0.5045944573903808  1.0000
  C   C294      1.0  0.9070900980097191  0.4294529124190097  0.579914690390969  1.0000
  C   C295      1.0  0.9399528976188114  0.3876126641428638  0.552229707152734  1.0000
  C   C296      1.0  0.8903176782814451  0.39412270212519346  0.5194547138110535  1.0000
  H   H205      1.0  0.9486901471611433  0.4465709441116911  0.5185298059314972  1.0000
  H   H206      1.0  0.9119626276314616  0.4507817484822722  0.4937471784622451  1.0000
  H   H207      1.0  0.9367720674369538  0.4198453999497176  0.47341603518182385  1.0000
  H   H208      1.0  0.9261856278251712  0.443220061881026  0.5950717813564489  1.0000
  H   H209      1.0  0.8890669962561132  0.4469228464406065  0.571238988008519  1.0000
  H   H210      1.0  0.8977977353145189  0.41366725505485735  0.6068306948910529  1.0000
  H   H211      1.0  0.9311548364242365  0.3705043210588537  0.5778601192996394  1.0000
  H   H212      1.0  0.9602399812970969  0.39942896066070904  0.5671790582478666  1.0000
  H   H213      1.0  0.9473877838150804  0.37308308522964606  0.5221663000853821  1.0000
  H   H214      1.0  0.8966563275078406  0.3796378427156676  0.4887980449524474  1.0000
  H   H215      1.0  0.8721249002191502  0.41093765660254206  0.5093418207078771  1.0000
  H   H216      1.0  0.8805617087481964  0.3774208745719924  0.544665421216556  1.0000
  N   N3        1.0  0.3482859003273142  0.6622403946512904  0.2095791867983128  1.0000
  C   C297      1.0  0.3469939118069765  0.6886280781055475  0.17649901036854812  1.0000
  C   C298      1.0  0.35009953373979696  0.6753084228555073  0.25669741934878937  1.0000
  C   C299      1.0  0.3752856660142718  0.6425908843966572  0.20029636899409725  1.0000
  C   C300      1.0  0.32079399060638525  0.6425072665162471  0.2048762264664242  1.0000
  H   H217      1.0  0.34560403396806083  0.6796616863919507  0.14059108057003583  1.0000
  H   H218      1.0  0.3674063719226146  0.7040529664860807  0.17919740478968094  1.0000
  H   H219      1.0  0.32689732860123577  0.703993734740084  0.18246182227734584  1.0000
  H   H220      1.0  0.3708006561922903  0.6898779160340716  0.2618291750069938  1.0000
  H   H221      1.0  0.33054805537914556  0.6909352076759299  0.2644817659822148  1.0000
  H   H222      1.0  0.35040054747125726  0.6561475035767786  0.2826981322782334  1.0000
  H   H223      1.0  0.37721908643678437  0.6226476503005655  0.22492411758291908  1.0000
  H   H224      1.0  0.39636010943574385  0.657006276204959  0.20336630931586958  1.0000
  H   H225      1.0  0.37468597798621306  0.6322602427178924  0.1650733010391398  1.0000
  H   H226      1.0  0.30014126203813873  0.656603451730369  0.21257916073289068  1.0000
  H   H227      1.0  0.32110001619835216  0.6221064370136132  0.22887249065437235  1.0000
  H   H228      1.0  0.31815730358312155  0.6328503536928275  0.16945947359389119  1.0000
  N   N4        1.0  0.1130924690636328  0.12263381428148223  0.24981290634119235  1.0000
  C   C301      1.0  0.14537448344795934  0.12696443627882603  0.23923103118136518  1.0000
  C   C302      1.0  0.09533536712503432  0.14807856497383787  0.2277983913223022  1.0000
  C   C303      1.0  0.10886749521470418  0.12421520172990408  0.29998900243330556  1.0000
  C   C304      1.0  0.1029885233658221  0.09128140087878811  0.23217854638168525  1.0000
  H   H229      1.0  0.1495763600231046  0.12541054266507512  0.2018460419506899  1.0000
  H   H230      1.0  0.1594501592319979  0.10829440441320637  0.255601023118381  1.0000
  H   H231      1.0  0.15370783055411552  0.15058246553792576  0.2512673617828524  1.0000
  H   H232      1.0  0.09826284755642867  0.14758207154802006  0.18999867767551146  1.0000
  H   H233      1.0  0.07075806593691891  0.14540977703292768  0.23451831673502813  1.0000
  H   H234      1.0  0.10240480288093945  0.17210283173767205  0.2401500149366359  1.0000
  H   H235      1.0  0.08475960247553438  0.1210372318743953  0.30943761870437503  1.0000
  H   H236      1.0  0.11655022071393195  0.14753006788449818  0.3143311621188886  1.0000
  H   H237      1.0  0.12219916593272395  0.10546460001188462  0.3176434349689656  1.0000
  H   H238      1.0  0.10602814431648477  0.08935898222828653  0.1943891477221195  1.0000
  H   H239      1.0  0.07864376815254137  0.08716386805045895  0.23928091934075024  1.0000
  H   H240      1.0  0.11608503181585705  0.07153241256265974  0.24784583709212255  1.0000
  N   N5        1.0  0.1439029898763844  0.4998029311463168  0.29838532475728585  1.0000
  C   C305      1.0  0.1737706513325475  0.5033512304759546  0.3205484968759097  1.0000
  C   C306      1.0  0.14328770750921915  0.47007671005373364  0.2710609623360047  1.0000
  C   C307      1.0  0.13845062052479884  0.5270788911454783  0.2679435791193985  1.0000
  C   C308      1.0  0.12013997613364034  0.498663840927367  0.3337209041850601  1.0000
  H   H241      1.0  0.17870651949536268  0.4830020708539756  0.3435976523358046  1.0000
  H   H242      1.0  0.1750552265498354  0.5256498171719195  0.3413589988634727  1.0000
  H   H243      1.0  0.19211411276771434  0.5042454364391004  0.2945940634924756  1.0000
  H   H244      1.0  0.12085391668242118  0.46637874381508837  0.25466596871398134  1.0000
  H   H245      1.0  0.1605698337572782  0.4704008847393628  0.2434971061723075  1.0000
  H   H246      1.0  0.14800508869613993  0.4489766709149935  0.2925047891882711  1.0000
  H   H247      1.0  0.11582934372120768  0.5255808924000156  0.251333108650969  1.0000
  H   H248      1.0  0.15549057964941143  0.5279840633559841  0.2401096325322656  1.0000
  H   H249      1.0  0.13975913865294487  0.5500751270486125  0.2869729976714777  1.0000
  H   H250      1.0  0.12009437606120077  0.5207091527048655  0.35510113311130725  1.0000
  H   H251      1.0  0.12344630384484967  0.478019858059249  0.356777676002015  1.0000
  H   H252      1.0  0.09729460227415032  0.49627490924738926  0.31794123593385093  1.0000
  N   N6        1.0  0.5931028266761335  0.5663926037298769  0.32173342938880994  1.0000
  C   C309      1.0  0.6132435916916189  0.5495257019667058  0.3538058043793616  1.0000
  C   C310      1.0  0.6095027041148473  0.5934431504193769  0.30149550933209385  1.0000
  C   C311      1.0  0.5663775339478905  0.5783577744526158  0.3467285948868544  1.0000
  C   C312      1.0  0.5833078165627738  0.5442873096482331  0.2849000733785975  1.0000
  H   H253      1.0  0.6338383067657313  0.5405739819206906  0.3361156138408337  1.0000
  H   H254      1.0  0.6017905620702618  0.5287574284889793  0.36944713740429025  1.0000
  H   H255      1.0  0.6207455315073104  0.5655285053294703  0.38229305124329865  1.0000
  H   H256      1.0  0.5950108433291664  0.606635989419414  0.2768555718989939  1.0000
  H   H257      1.0  0.617038238340048  0.610725070562889  0.32832180869543887  1.0000
  H   H258      1.0  0.6300241364942237  0.5854110521519014  0.2827393761569303  1.0000
  H   H259      1.0  0.5504422604130622  0.5907681400185765  0.3232999720113228  1.0000
  H   H260      1.0  0.5729027183493931  0.5956820318654696  0.3742280466676817  1.0000
  H   H261      1.0  0.5537289760566126  0.5586939732998103  0.36317006268703605  1.0000
  H   H262      1.0  0.5676572578254357  0.5562056587537166  0.2605475006124587  1.0000
  H   H263      1.0  0.571267493224673  0.5233035675478557  0.29885880972292117  1.0000
  H   H264      1.0  0.6028773002763643  0.5352950670981286  0.2647132613670274  1.0000
  N   N7        1.0  0.7178578604880388  0.37681398038509384  0.45033920001004246  1.0000
  C   C313      1.0  0.7456701783754133  0.36874655539974804  0.47584697664911935  1.0000
  C   C314      1.0  0.7242322868501472  0.4029501813595511  0.41820031006772507  1.0000
  C   C315      1.0  0.6941869729198968  0.3870226423107151  0.4828361503649083  1.0000
  C   C316      1.0  0.7072255584245409  0.348488943842751  0.4246188026109855  1.0000
  H   H265      1.0  0.7413674481898671  0.3501256080017096  0.5019579171396038  1.0000
  H   H266      1.0  0.7551100133676084  0.38988985832507095  0.4940709223613504  1.0000
  H   H267      1.0  0.7634846958095542  0.3593844618311445  0.4525339032776594  1.0000
  H   H268      1.0  0.7319988956342347  0.424802275738694  0.43672156803923834  1.0000
  H   H269      1.0  0.742056420507818  0.39619121646551236  0.3931397948553665  1.0000
  H   H270      1.0  0.7037833827879321  0.4095841057327782  0.3981694756536791  1.0000
  H   H271      1.0  0.7010811494258017  0.4087919734174258  0.5020719239592375  1.0000
  H   H272      1.0  0.6892953561639713  0.3681676527634031  0.5083143409294351  1.0000
  H   H273      1.0  0.6727480298189575  0.39273690459328087  0.4647305502405188  1.0000
  H   H274      1.0  0.7243721288173137  0.34001231483403455  0.39949230017204046  1.0000
  H   H275      1.0  0.686091452954725  0.3535073239384602  0.4053824054376889  1.0000
  H   H276      1.0  0.7024135555774136  0.32837967841222343  0.4479979989253519  1.0000
  N   N8        1.0  0.7480137213904466  0.25400652896604375  0.7391983485413547  1.0000
  C   C317      1.0  0.7445669697576488  0.2843688216731191  0.7646179939995487  1.0000
  C   C318      1.0  0.7793576543454014  0.2424861511233223  0.7442151816099358  1.0000
  C   C319      1.0  0.7412926359402299  0.2590428909649387  0.690117760340966  1.0000
  C   C320      1.0  0.7269202291488258  0.23018827981294324  0.7579314872754173  1.0000
  H   H277      1.0  0.7212385808256186  0.2939125435327871  0.7616250836058824  1.0000
  H   H278      1.0  0.760327269566053  0.3028273085579566  0.7516947179278647  1.0000
  H   H279      1.0  0.7493911640727966  0.28138808971649565  0.8018392413930171  1.0000
  H   H280      1.0  0.7827548924334441  0.21931576007846343  0.7262231560304273  1.0000
  H   H281      1.0  0.7957856852738535  0.2596429010887313  0.72959087905034  1.0000
  H   H282      1.0  0.7854952962179557  0.2391924856257419  0.7809027860772761  1.0000
  H   H283      1.0  0.7438696331353325  0.2367013992841602  0.6696968369589682  1.0000
  H   H284      1.0  0.7567668717820807  0.2769166562466494  0.6748759079142053  1.0000
  H   H285      1.0  0.7178500500725952  0.267794229192346  0.6848028612506566  1.0000
  H   H286      1.0  0.7312893345901992  0.22591491285641704  0.7949924345500032  1.0000
  H   H287      1.0  0.728956410164227  0.20688356075985007  0.7397791985370414  1.0000
  H   H288      1.0  0.703041927592913  0.238137052963862  0.754813349307844  1.0000
  N   N9        1.0  0.17361304813284817  0.20509823016754436  0.8740720252709197  1.0000
  C   C321      1.0  0.1877206532367599  0.18045052878248913  0.8447248682631178  1.0000
  C   C322      1.0  0.17222319439100198  0.23538105580297541  0.8488152642100849  1.0000
  C   C323      1.0  0.19185940286006886  0.2095359215668786  0.9161517274989184  1.0000
  C   C324      1.0  0.14273490146512313  0.1950555508054963  0.8865074955252416  1.0000
  H   H289      1.0  0.1897878376854436  0.15740177965046165  0.862945232096763  1.0000
  H   H290      1.0  0.21096695466174764  0.1875012068191706  0.8344274074746022  1.0000
  H   H291      1.0  0.17442638965237678  0.17619215821087653  0.8128149758031867  1.0000
  H   H292      1.0  0.16124437825545979  0.2545280614885814  0.8694461076570846  1.0000
  H   H293      1.0  0.19512055688783225  0.24389814900804185  0.8393069653673383  1.0000
  H   H294      1.0  0.1589388157113416  0.23275612172092552  0.8165392210804691  1.0000
  H   H295      1.0  0.18191115734198182  0.22799801483980575  0.9391461071614724  1.0000
  H   H296      1.0  0.215362800693516  0.21696218152835645  0.9079690517183986  1.0000
  H   H297      1.0  0.19360844308487923  0.18703199190738373  0.9358486252904319  1.0000
  H   H298      1.0  0.12795150767935404  0.19261777427737603  0.8556922147801234  1.0000
  H   H299      1.0  0.13180916666674647  0.21270430568025578  0.9098199453150898  1.0000
  H   H300      1.0  0.14279632166048795  0.17180130013674821  0.9044247617286997  1.0000
  N   N10       1.0  0.08552317633963469  0.4612772342840334  0.4864020892223233  1.0000
  C   C325      1.0  0.11587429660000415  0.4492821273379847  0.4744222800655372  1.0000
  C   C326      1.0  0.0648483394620405  0.4567216905285837  0.44696764181429377  1.0000
  C   C327      1.0  0.08759875614267498  0.4955190924430132  0.49795037297134587  1.0000
  C   C328      1.0  0.07385374552278234  0.4437595332867832  0.5263379905269809  1.0000
  H   H301      1.0  0.13187615033037448  0.4516809781851723  0.5037176294511182  1.0000
  H   H302      1.0  0.12560115199765254  0.4622802940914534  0.4449206290561663  1.0000
  H   H303      1.0  0.11529185898877525  0.42374620167422616  0.46443271825492266  1.0000
  H   H304      1.0  0.07289096011305718  0.4695814028386203  0.41616882271076094  1.0000
  H   H305      1.0  0.062486348199604747  0.4311222101064126  0.43740575516371466  1.0000
  H   H306      1.0  0.0418148207009601  0.4658665966946538  0.45462823958522963  1.0000
  H   H307      1.0  0.10257519322548192  0.49981646599932816  0.5281194663288385  1.0000
  H   H308      1.0  0.06514935900549723  0.5054815571394988  0.5068468065842253  1.0000
  H   H309      1.0  0.09644035258611083  0.5094592554830769  0.4687175055792937  1.0000
  H   H310      1.0  0.08897066035411294  0.4465117255519138  0.5566812517397242  1.0000
  H   H311      1.0  0.07173409323392965  0.417827888315575  0.5188152137671302  1.0000
  H   H312      1.0  0.05119395756593681  0.4526175595805848  0.5367624530680689  1.0000
  N   N11       1.0  0.041352138715512465  0.5320979971929255  0.7783875858672905  1.0000
  C   C329      1.0  0.07454740624869616  0.5357153969937595  0.7791688495303078  1.0000
  C   C330      1.0  0.028998664989631884  0.5470363893021126  0.7366641830348234  1.0000
  C   C331      1.0  0.028269369338372208  0.5476347746944978  0.8194046590915094  1.0000
  C   C332      1.0  0.03362174888013736  0.49788341673341446  0.7782235693401949  1.0000
  H   H313      1.0  0.08129304215083488  0.5612090178018964  0.7797434594123335  1.0000
  H   H314      1.0  0.08505057732401156  0.5245145535535545  0.7483470037705472  1.0000
  H   H315      1.0  0.08465518919261927  0.5244965543062495  0.8100257072539448  1.0000
  H   H316      1.0  0.004010441963458566  0.5445808571222286  0.734758387176383  1.0000
  H   H317      1.0  0.03407925147991531  0.5729429423290653  0.7358052278042793  1.0000
  H   H318      1.0  0.0386442641735536  0.5361893899605171  0.7050399629646248  1.0000
  H   H319      1.0  0.003206192108630823  0.545519829944023  0.8196780501485247  1.0000
  H   H320      1.0  0.03364472373310545  0.5734974186976792  0.8206161278098344  1.0000
  H   H321      1.0  0.03706859741473867  0.5370426813289453  0.8515959412345746  1.0000
  H   H322      1.0  0.041862140019868654  0.4859318471061409  0.809744391063923  1.0000
  H   H323      1.0  0.04401565571095056  0.4853371953625045  0.7485417594930841  1.0000
  H   H324      1.0  0.008795158533439595  0.49407141040344016  0.7759488071795655  1.0000
  N   N12       1.0  0.3097957723094337  0.10736271923266005  0.34964992546923035  1.0000
  C   C333      1.0  0.3004100542191998  0.1198092445186798  0.30460748359135575  1.0000
  C   C334      1.0  0.2829528174036905  0.1010259848160926  0.37810898487711975  1.0000
  C   C335      1.0  0.3292016964776135  0.13108351030668697  0.37307374856155484  1.0000
  C   C336      1.0  0.32672742542459865  0.07741145788830628  0.34274667854566127  1.0000
  H   H325      1.0  0.3202448189760963  0.12545511924713337  0.2828799654494411  1.0000
  H   H326      1.0  0.2868115049220068  0.1419028153443045  0.30824184274992983  1.0000
  H   H327      1.0  0.28650699971967475  0.10217429108658038  0.28538585508414005  1.0000
  H   H328      1.0  0.268491663587058  0.08216830222849003  0.36253359395553836  1.0000
  H   H329      1.0  0.2894322207100012  0.09298627616428767  0.4129951488952296  1.0000
  H   H330      1.0  0.2687617987713102  0.12262438605362869  0.38251467268312067  1.0000
  H   H331      1.0  0.34994541826800174  0.13594712568780332  0.35301010139112293  1.0000
  H   H332      1.0  0.33649364134253373  0.1226427556144063  0.4073372369544103  1.0000
  H   H333      1.0  0.3171451205443723  0.15407067245408013  0.3783663419515144  1.0000
  H   H334      1.0  0.33474410819829353  0.0675689105765338  0.3759036972520182  1.0000
  H   H335      1.0  0.347001905831762  0.08113721880981961  0.32101800450135876  1.0000
  H   H336      1.0  0.31248422767927314  0.05891830391272145  0.32560810262257767  1.0000
  N   N13       1.0  0.638713176143624  0.5829353668721405  0.03433701168102776  1.0000
  C   C337      1.0  0.6500614962763224  0.5989325257529612  0.9928958521678563  1.0000
  C   C338      1.0  0.6301686545248253  0.5497739312590115  0.022910629937079822  1.0000
  C   C339      1.0  0.6121081948734398  0.6001757976908831  0.052262786096447966  1.0000
  C   C340      1.0  0.6626150120539674  0.5829227789920532  0.06966123249588207  1.0000
  H   H337      1.0  0.6700550910995924  0.5864136708858537  0.9782780244534501  1.0000
  H   H338      1.0  0.6571580431362302  0.6238173563836664  0.0006456652961570608  1.0000
  H   H339      1.0  0.6324885845714023  0.5999650202974566  0.9656327115166454  1.0000
  H   H340      1.0  0.6217363366576446  0.5369879188906009  0.053610756089431444  1.0000
  H   H341      1.0  0.6120095136340613  0.5488696729369766  0.9965207086513906  1.0000
  H   H342      1.0  0.6497444876893333  0.5359455022503007  0.009610940378269818  1.0000
  H   H343      1.0  0.5940358533304232  0.6022455859345516  0.02591462872731154  1.0000
  H   H344      1.0  0.6182370539295088  0.6246255752039611  0.06395033371901217  1.0000
  H   H345      1.0  0.602196247456126  0.5878390223137278  0.0822558785997667  1.0000
  H   H346      1.0  0.6547567291398326  0.5712375418711871  0.10134833660865697  1.0000
  H   H347      1.0  0.6694901021282894  0.6076104878164931  0.07916945977075085  1.0000
  H   H348      1.0  0.6828889082823085  0.5696933744754963  0.05782026005608176  1.0000
  N   N14       1.0  0.9440994078440113  0.3325623247616715  0.7454712099993291  1.0000
  C   C341      1.0  0.9636588000582925  0.34685553491866045  0.7812413507176384  1.0000
  C   C342      1.0  0.9425292944641037  0.29774685945680907  0.7517052550076379  1.0000
  C   C343      1.0  0.9566568767409401  0.339309159673547  0.6997117268273757  1.0000
  C   C344      1.0  0.9135103491302796  0.3462997947279295  0.7492424732153667  1.0000
  H   H349      1.0  0.9652966406207675  0.37314340580338107  0.7774284861492928  1.0000
  H   H350      1.0  0.9870363826655474  0.3374513104303409  0.7792213650654213  1.0000
  H   H351      1.0  0.9550327436915468  0.3419576595631499  0.8162039001708379  1.0000
  H   H352      1.0  0.9325200185493018  0.2916192348680693  0.7853378730316267  1.0000
  H   H353      1.0  0.9282301263599768  0.2863289877055011  0.7247122268725228  1.0000
  H   H354      1.0  0.9653343119710914  0.28667093754309353  0.7493425467053103  1.0000
  H   H355      1.0  0.9421627809613241  0.32923824971094967  0.6718757184505114  1.0000
  H   H356      1.0  0.9794345895297767  0.3285108376536389  0.6955765292560572  1.0000
  H   H357      1.0  0.9590993021127743  0.3653308086410321  0.6940408280049222  1.0000
  H   H358      1.0  0.9137251653845958  0.37247157625931776  0.7438703873913889  1.0000
  H   H359      1.0  0.9033569309975047  0.34164528709529396  0.7833698434843096  1.0000
  H   H360      1.0  0.898032089630039  0.33562182301005616  0.723443471116117  1.0000
  N   N15       1.0  0.6990767828554629  0.6965552670202105  0.7868278568191093  1.0000
  C   C345      1.0  0.7278955548209302  0.693635217138151  0.7617435974104952  1.0000
  C   C346      1.0  0.7017952880439485  0.7219665501248351  0.8218584816080139  1.0000
  C   C347      1.0  0.6918554931799922  0.6661922876535329  0.8094307804690319  1.0000
  C   C348      1.0  0.6746187747555431  0.7046042614531077  0.7543621083825134  1.0000
  H   H361      1.0  0.7467988993038572  0.6870176321985031  0.7849948454673028  1.0000
  H   H362      1.0  0.7342240728076027  0.7165315168999689  0.7454027140885287  1.0000
  H   H363      1.0  0.7265167482176909  0.6752168986277495  0.7341899939813655  1.0000
  H   H364      1.0  0.6804428578432897  0.7249877484308704  0.8411894681802434  1.0000
  H   H365      1.0  0.7201222759705779  0.716891499510561  0.8469756695844709  1.0000
  H   H366      1.0  0.7069226878282333  0.74522682263068  0.8059263687961782  1.0000
  H   H367      1.0  0.6705227494921356  0.6680974611471308  0.8294256048277082  1.0000
  H   H368      1.0  0.7100424874899622  0.6590606739312482  0.833627200471118  1.0000
  H   H369      1.0  0.688935936568067  0.6465999685098011  0.7839225248339703  1.0000
  H   H370      1.0  0.6526288382210355  0.7076545373477857  0.7723789163820737  1.0000
  H   H371      1.0  0.6716212257800511  0.6856516361192989  0.727818790055956  1.0000
  H   H372      1.0  0.6795081155960216  0.7272385414258719  0.7362798695757935  1.0000
  N   N16       1.0  0.3907729339358399  0.14286399728247168  0.5065765095513278  1.0000
  C   C349      1.0  0.4221026685367548  0.13116456601790683  0.5110567129305521  1.0000
  C   C350      1.0  0.3701012079806789  0.11549796303269622  0.5008943945204892  1.0000
  C   C351      1.0  0.3884705354489335  0.1636505881330661  0.4661171450059053  1.0000
  C   C352      1.0  0.3823573219829761  0.16106179535420662  0.5482046800926863  1.0000
  H   H373      1.0  0.4290957986693875  0.11744192592794844  0.48004174599232546  1.0000
  H   H374      1.0  0.42461035200774067  0.11511857556268779  0.541018583893122  1.0000
  H   H375      1.0  0.4383347819492871  0.1511563983066848  0.5157154213254215  1.0000
  H   H376      1.0  0.3752235922206162  0.10172147963545486  0.46921062853052786  1.0000
  H   H377      1.0  0.37201249751344445  0.09879210899569646  0.5301306132121406  1.0000
  H   H378      1.0  0.34619577866577456  0.12341994325766548  0.4985869294258554  1.0000
  H   H379      1.0  0.3651650878083903  0.1731477939341366  0.46192093752593594  1.0000
  H   H380      1.0  0.3943829337028304  0.1505227886980378  0.43407977869661  1.0000
  H   H381      1.0  0.4040225710649352  0.18441504344596726  0.4689691285628486  1.0000
  H   H382      1.0  0.3838846105924927  0.14606619546198152  0.5793904500138012  1.0000
  H   H383      1.0  0.35873599756971597  0.1700924010827456  0.5458961147385406  1.0000
  H   H384      1.0  0.3973814380359717  0.18199499843886335  0.5535869403936378  1.0000
  N   N17       1.0  0.7799524487059167  0.5048511237368999  0.7054201895394576  1.0000
  C   C353      1.0  0.7670909683677822  0.5367827610880598  0.7138533882908479  1.0000
  C   C354      1.0  0.8077914500825037  0.5079004122657745  0.6780476206499537  1.0000
  C   C355      1.0  0.7577723872872065  0.48503308889233065  0.680149496681524  1.0000
  C   C356      1.0  0.7872006923685844  0.4897577038812535  0.7496539071383128  1.0000
  H   H385      1.0  0.7614162685151125  0.5488618582971867  0.6811783308498278  1.0000
  H   H386      1.0  0.783242574425398  0.5524065945527064  0.7328307912787142  1.0000
  H   H387      1.0  0.7459648684685245  0.5356112225101027  0.7343051341090588  1.0000
  H   H388      1.0  0.8184152602762691  0.4842567250485268  0.6716090685339852  1.0000
  H   H389      1.0  0.8030518836052027  0.5187955210512069  0.6441229853714665  1.0000
  H   H390      1.0  0.8248110415166201  0.5231476542572294  0.695797170510072  1.0000
  H   H391      1.0  0.736297548237977  0.4826575636174707  0.6994716260219392  1.0000
  H   H392      1.0  0.766630636528877  0.4606231599119301  0.6736700279958682  1.0000
  H   H393      1.0  0.7520728344026802  0.49545046554123134  0.6462706120754192  1.0000
  H   H394      1.0  0.7970748394838075  0.46560473368520494  0.7444379952417637  1.0000
  H   H395      1.0  0.7666820610944172  0.48707803023237634  0.7712087486872583  1.0000
  H   H396      1.0  0.8038009026622187  0.5041706320724113  0.7697245013643705  1.0000
  N   N18       1.0  0.31179428555104294  0.8720547964019068  0.8791295505466894  1.0000
  C   C357      1.0  0.30929258846474816  0.8548542541804521  0.9228776646728493  1.0000
  C   C358      1.0  0.28488499601364614  0.8654237892036806  0.8505120882512582  1.0000
  C   C359      1.0  0.3391948301474552  0.861257241487768  0.854792412974206  1.0000
  C   C360      1.0  0.3137989990193144  0.9066524408860249  0.8883226397961034  1.0000
  H   H397      1.0  0.30713324575845546  0.8287249005677741  0.9170631706579735  1.0000
  H   H398      1.0  0.28912911377375927  0.8627100260051466  0.9425123349593182  1.0000
  H   H399      1.0  0.32935633257118435  0.8590550340786123  0.9451531166840986  1.0000
  H   H400      1.0  0.28289107286391846  0.839610411600146  0.8421041852227497  1.0000
  H   H401      1.0  0.26373948984010687  0.872811060055578  0.8682436129009429  1.0000
  H   H402      1.0  0.28584733228432135  0.8784922766648647  0.8175192781860756  1.0000
  H   H403      1.0  0.34189952685348945  0.8737926451213346  0.8217217956124336  1.0000
  H   H404      1.0  0.33829689251547324  0.8352948836247103  0.8468815329343669  1.0000
  H   H405      1.0  0.3599438460110338  0.8659823800810815  0.8753191778761953  1.0000
  H   H406      1.0  0.31573001553103985  0.9202794209211579  0.8559217222048074  1.0000
  H   H407      1.0  0.33382311629889605  0.9126665365746526  0.9097895261002505  1.0000
  H   H408      1.0  0.2933644990661697  0.9155471971507362  0.9064991440900155  1.0000
  N   N19       1.0  0.22507487790932354  0.03575893010294062  0.9184423427522045  1.0000
  C   C361      1.0  0.23472501858080128  0.007502427186377725  0.8916800179408676  1.0000
  C   C362      1.0  0.19614367720929993  0.028942526662717016  0.9414609095717695  1.0000
  C   C363      1.0  0.22114343418447496  0.06302535511052643  0.887359994492004  1.0000
  C   C364      1.0  0.24831752992515202  0.043673350133033084  0.9531762700098707  1.0000
  H   H409      1.0  0.256627374818403  0.011786521989030074  0.8741275700183314  1.0000
  H   H410      1.0  0.2180404139090372  0.0013574995327878536  0.8643397070132314  1.0000
  H   H411      1.0  0.23743956258724783  0.9862469888527075  0.9138007088691521  1.0000
  H   H412      1.0  0.17798996406196413  0.0233626098437123  0.9161734232119292  1.0000
  H   H413      1.0  0.19809722790487488  0.008141700859190637  0.9645814415945001  1.0000
  H   H414      1.0  0.18849469083829762  0.049548696536194425  0.9627067530022566  1.0000
  H   H415      1.0  0.21439816502364045  0.08498961172884267  0.9063432174824584  1.0000
  H   H416      1.0  0.20381119914692122  0.05795105036986836  0.8605299871841523  1.0000
  H   H417      1.0  0.24242717709865053  0.06842330199652236  0.8690133585764089  1.0000
  H   H418      1.0  0.24185048293212147  0.06503581033872186  0.9737352190909877  1.0000
  H   H419      1.0  0.2704424315435584  0.04897838583860947  0.9369608604898675  1.0000
  H   H420      1.0  0.2518496684665989  0.023803611985449225  0.9775274318404972  1.0000
  N   N20       1.0  0.23905396597632228  0.9067714150443571  0.15232807083471922  1.0000
  C   C365      1.0  0.2665561493879455  0.9134893381535035  0.17961052169248104  1.0000
  C   C366      1.0  0.2257799184660778  0.8762479894233751  0.16688081782270792  1.0000
  C   C367      1.0  0.24697420999222583  0.9047453673806367  0.1032650906253545  1.0000
  C   C368      1.0  0.2168554546988925  0.9325885371377644  0.1594162107086876  1.0000
  H   H421      1.0  0.2615355093574738  0.9147330485256451  0.2169126610945118  1.0000
  H   H422      1.0  0.2769936884721918  0.9365288750343391  0.16979794373985269  1.0000
  H   H423      1.0  0.28394846025134535  0.8946076944726803  0.17465760302815614  1.0000
  H   H424      1.0  0.20549263776995297  0.8699700667181798  0.1460473996801388  1.0000
  H   H425      1.0  0.2421835167794042  0.8564349361483047  0.16294433217761894  1.0000
  H   H426      1.0  0.21899226646145137  0.8770654748496592  0.20352973241626282  1.0000
  H   H427      1.0  0.25732651258246914  0.9272676834785637  0.09121803610326817  1.0000
  H   H428      1.0  0.22669238576973655  0.9000549992132661  0.08165319054516074  1.0000
  H   H429      1.0  0.26334974793967797  0.8852662193292098  0.09639670530775901  1.0000
  H   H430      1.0  0.19564306547774868  0.9280527333670218  0.1397783830497299  1.0000
  H   H431      1.0  0.22577862922431627  0.9558858623213267  0.14772538675833458  1.0000
  H   H432      1.0  0.2106802161687177  0.9353564970195457  0.19613939296284433  1.0000
  N   N21       1.0  0.9390762153131202  0.20471169961081  0.8443711087331915  1.0000
  C   C369      1.0  0.9585881764707578  0.20607396292440522  0.8034062870271955  1.0000
  C   C370      1.0  0.9425650447744489  0.17340721811558302  0.8664632885335192  1.0000
  C   C371      1.0  0.9072187254535267  0.20920418683975495  0.8305715166754504  1.0000
  C   C372      1.0  0.9479362739545154  0.23008535448305978  0.8771823798273468  1.0000
  H   H433      1.0  0.9566215200427265  0.22929108838691087  0.7857215602369181  1.0000
  H   H434      1.0  0.9526923496042842  0.18708859283712997  0.7780834820751096  1.0000
  H   H435      1.0  0.982811105161536  0.20285012735083732  0.8125465611955693  1.0000
  H   H436      1.0  0.9280270346803874  0.17149349911693812  0.897325009628987  1.0000
  H   H437      1.0  0.9363465641311381  0.15358888004113558  0.8427270989279655  1.0000
  H   H438      1.0  0.9663119175594777  0.16939536612988904  0.877740376733793  1.0000
  H   H439      1.0  0.8918423247324838  0.20851475243600817  0.860669664667417  1.0000
  H   H440      1.0  0.8996307957307822  0.19020443361879977  0.8063271545943661  1.0000
  H   H441      1.0  0.903761061514539  0.23245503288991637  0.813372810934266  1.0000
  H   H442      1.0  0.9339664320708786  0.2293438990150852  0.9087647791806608  1.0000
  H   H443      1.0  0.9453658972256671  0.2540953864685488  0.8620705542600866  1.0000
  H   H444      1.0  0.971921309294049  0.22750438340505472  0.8881007901457586  1.0000
  N   N22       1.0  0.1908772102976195  0.27772439158470874  0.6120986447927843  1.0000
  C   C373      1.0  0.1924597900093064  0.31069803246401295  0.595018531276059  1.0000
  C   C374      1.0  0.1601643068303237  0.27139725270604287  0.6293494794752157  1.0000
  C   C375      1.0  0.21297388028601685  0.27357317942133785  0.6496412894724186  1.0000
  C   C376      1.0  0.19785418916742836  0.25524935136908766  0.5743394732525601  1.0000
  H   H445      1.0  0.1766442513926958  0.31434909247390874  0.5657758665398097  1.0000
  H   H446      1.0  0.2154595221625567  0.3165528630774517  0.582337409181853  1.0000
  H   H447      1.0  0.1863536083289391  0.32835971467837677  0.6220676412155248  1.0000
  H   H448      1.0  0.15809004918953387  0.2467785492212473  0.6427256971842681  1.0000
  H   H449      1.0  0.1540782818732315  0.28814164631031147  0.6576662431090763  1.0000
  H   H450      1.0  0.14292441572006798  0.27440818246872456  0.6018818438587539  1.0000
  H   H451      1.0  0.21283702228699097  0.24869953078671925  0.6626889815039956  1.0000
  H   H452      1.0  0.20801627504789444  0.2897574237485625  0.679068658540843  1.0000
  H   H453      1.0  0.23635983655155374  0.27871805964991747  0.6379907407374001  1.0000
  H   H454      1.0  0.1971863524868693  0.23008696240551174  0.5859441209780619  1.0000
  H   H455      1.0  0.22075484269021908  0.2597141690935765  0.5601226624692401  1.0000
  H   H456      1.0  0.18163704299869296  0.25779963633558656  0.5454252801017212  1.0000
  N   N23       1.0  0.13897318087843247  0.7454080368727877  0.11735177261330879  1.0000
  C   C377      1.0  0.1524129626342352  0.7774270409107545  0.12277480225652539  1.0000
  C   C378      1.0  0.16327895041696547  0.7216509989769149  0.11102262024597964  1.0000
  C   C379      1.0  0.11862096294550839  0.7450154605133196  0.07707125362678592  1.0000
  C   C380      1.0  0.12147794304165592  0.7375675624939848  0.15873965763601997  1.0000
  H   H457      1.0  0.134774621074067  0.795971107317977  0.12789429035614153  1.0000
  H   H458      1.0  0.1654032102027045  0.7842048521746517  0.09184589640985849  1.0000
  H   H459      1.0  0.16841887544303466  0.7784184697387073  0.15226013983870704  1.0000
  H   H460      1.0  0.17847100659867388  0.720621687555104  0.14153756915505794  1.0000
  H   H461      1.0  0.15394084293306964  0.6972989590991566  0.10539258799410242  1.0000
  H   H462      1.0  0.17793404650643926  0.7276582193869829  0.08152104160781605  1.0000
  H   H463      1.0  0.1308142784915256  0.7507793547133386  0.04509449679822942  1.0000
  H   H464      1.0  0.10018742752151866  0.7628775412954834  0.08066877347420487  1.0000
  H   H465      1.0  0.10785547601547396  0.7213360853695334  0.07203994759342525  1.0000
  H   H466      1.0  0.11068762315492454  0.713702561164288  0.15531458338391435  1.0000
  H   H467      1.0  0.10312491091823572  0.7551378845685212  0.16486647422213713  1.0000
  H   H468      1.0  0.13616119229754697  0.7371126582414632  0.18975686564472433  1.0000
  N   N24       1.0  0.910344636821499  0.6262645367025271  0.6643799269084097  1.0000
  C   C381      1.0  0.9166164566390822  0.5933951934106793  0.6792909350929189  1.0000
  C   C382      1.0  0.9335699246470921  0.6361231272150093  0.6310897970391639  1.0000
  C   C383      1.0  0.9110232861054067  0.6479649342692454  0.704552266908162  1.0000
  C   C384      1.0  0.8801422077186938  0.6275082913969303  0.6427304879108032  1.0000
  H   H469      1.0  0.9390947298600233  0.5917008916262732  0.6963869146973718  1.0000
  H   H470      1.0  0.9165675072870862  0.5764273055640577  0.6497110904804726  1.0000
  H   H471      1.0  0.899379189044502  0.5851046523983947  0.7041501680919986  1.0000
  H   H472      1.0  0.9298011392010379  0.6608804424123556  0.6191369921285683  1.0000
  H   H473      1.0  0.9566664245016521  0.6352731603449715  0.6463240620876456  1.0000
  H   H474      1.0  0.9336236213652718  0.620411303980986  0.6001591783593055  1.0000
  H   H475      1.0  0.90706547771947  0.6730771504702306  0.6943981771024477  1.0000
  H   H476      1.0  0.9332205897080388  0.646988106269757  0.7226054652524829  1.0000
  H   H477      1.0  0.8931732165952606  0.6417381563824223  0.7297931685080948  1.0000
  H   H478      1.0  0.8747952364729129  0.6518392566435133  0.6303522177639823  1.0000
  H   H479      1.0  0.8620788728897139  0.6208066231696072  0.6673562578390393  1.0000
  H   H480      1.0  0.8785046684348508  0.6109279450542043  0.6128832773221827  1.0000
  N   N25       1.0  0.6131340947114059  0.6579331534005155  0.544133530138659  1.0000
  C   C385      1.0  0.6087276771326741  0.6609489957456866  0.4941339756249645  1.0000
  C   C386      1.0  0.6199780321934788  0.6895263282031683  0.5643407561068604  1.0000
  C   C387      1.0  0.6384847317472775  0.6359875506557413  0.5530833277089814  1.0000
  C   C388      1.0  0.5852975345029413  0.645275226391821  0.5649271362421193  1.0000
  H   H481      1.0  0.603365868840719  0.637596258429271  0.47768818131497065  1.0000
  H   H482      1.0  0.629316882975531  0.6702210884570556  0.4770151388402901  1.0000
  H   H483      1.0  0.5897812024310347  0.6772846426455496  0.48609565732857746  1.0000
  H   H484      1.0  0.6230794596489829  0.6881539437953722  0.6021427235255142  1.0000
  H   H485      1.0  0.6408389818052571  0.6998697598647078  0.5494630733939841  1.0000
  H   H486      1.0  0.6012344116550195  0.7066404038071714  0.5583439134523568  1.0000
  H   H487      1.0  0.6426623708185221  0.6330790844428048  0.5904706588143114  1.0000
  H   H488      1.0  0.6597169032696988  0.6447864691546159  0.5373793946132587  1.0000
  H   H489      1.0  0.6340425437280381  0.6119691196659525  0.5381084939184241  1.0000
  H   H490      1.0  0.587608097492945  0.6431168780261034  0.6027725623950816  1.0000
  H   H491      1.0  0.5793932601634396  0.6214437777183854  0.5505888091228387  1.0000
  H   H492      1.0  0.5657792639990711  0.6613046779289029  0.5586156371002735  1.0000
  N   N26       1.0  0.5956946784442382  0.7920757054298639  0.010852279795145359  1.0000
  C   C389      1.0  0.6254302263096394  0.7892623030554662  0.9884642211858657  1.0000
  C   C390      1.0  0.5995920617662034  0.805964327649704  0.05719344174121077  1.0000
  C   C391      1.0  0.5818729231480068  0.7601674141991552  0.014191599116580411  1.0000
  C   C392      1.0  0.5759051639840861  0.8129144224043546  0.9834432284957941  1.0000
  H   H493      1.0  0.6408675280477872  0.7734553216279525  0.008028424956616487  1.0000
  H   H494      1.0  0.6366501631964343  0.8128736457984079  0.9854405886318364  1.0000
  H   H495      1.0  0.6231838943545696  0.7790713770643133  0.9533085699541783  1.0000
  H   H496      1.0  0.5775448239808006  0.8084312314267766  0.07509483771878811  1.0000
  H   H497      1.0  0.6142557768212376  0.790773399800017  0.07894106634214482  1.0000
  H   H498      1.0  0.6100675034743946  0.8300263018670733  0.05575030943474846  1.0000
  H   H499      1.0  0.5958220232418696  0.7440469603459986  0.03567450196497646  1.0000
  H   H500      1.0  0.5793090797857274  0.7487660675519755  0.9798169077396618  1.0000
  H   H501      1.0  0.5590504017585395  0.7614146358950784  0.02989682211966138  1.0000
  H   H502      1.0  0.5533924936711849  0.8158582246784762  0.9997721072759618  1.0000
  H   H503      1.0  0.5722234280320627  0.8029751180484389  0.9484132705622382  1.0000
  H   H504      1.0  0.5858900144947864  0.8370786737989969  0.9796394132747334  1.0000
  N   N27       1.0  0.43501794464728455  0.12756768517464856  0.8763285703541428  1.0000
  C   C393      1.0  0.44096273127016133  0.149710596857769  0.838334017324291  1.0000
  C   C394      1.0  0.43787975164619464  0.0944458556729788  0.8593858121594643  1.0000
  C   C395      1.0  0.4041557935291019  0.13279758540243702  0.8939594235885734  1.0000
  C   C396      1.0  0.4570701416200891  0.13328099605381727  0.9136463159432937  1.0000
  H   H505      1.0  0.42485536210179137  0.1458642272620514  0.8094500432784887  1.0000
  H   H506      1.0  0.4640738533671035  0.14631511123621244  0.8242131118491552  1.0000
  H   H507      1.0  0.43898316920372116  0.17495286839894209  0.8496211907169722  1.0000
  H   H508      1.0  0.42109120724780447  0.08912018976494651  0.8319848449217021  1.0000
  H   H509      1.0  0.46063392686801613  0.08996028430547387  0.8445497037915829  1.0000
  H   H510      1.0  0.43426387202458294  0.07699676857298887  0.8872229831281012  1.0000
  H   H511      1.0  0.40114908857528053  0.15759283791108736  0.9067985099734259  1.0000
  H   H512      1.0  0.3989152677231441  0.11628574778514911  0.9224068739009353  1.0000
  H   H513      1.0  0.3869092947670416  0.128740743773458  0.8667138641762702  1.0000
  H   H514      1.0  0.4555588656932831  0.15800851381930903  0.927315020642296  1.0000
  H   H515      1.0  0.4806058832633779  0.12973817657751652  0.901545079435437  1.0000
  H   H516      1.0  0.4535177221250868  0.11671616184898492  0.942674842947102  1.0000
  N   N28       1.0  0.2060804245650129  0.23938744822574626  0.1873085730281494  1.0000
  C   C397      1.0  0.19470034419506074  0.2554273205387977  0.22906607273657742  1.0000
  C   C398      1.0  0.22935324399547274  0.2594888865817939  0.16584979567115177  1.0000
  C   C399      1.0  0.18086242315693238  0.2343751048616439  0.15477551647235432  1.0000
  C   C400      1.0  0.21935638484774542  0.20831347471900769  0.199512303434896  1.0000
  H   H517      1.0  0.21296238456816  0.2593761477037476  0.25468825139445084  1.0000
  H   H518      1.0  0.176756312767423  0.24122412024490994  0.24589854287522117  1.0000
  H   H519      1.0  0.18498258824231253  0.2791753729234193  0.22115563939528005  1.0000
  H   H520      1.0  0.24847632576001955  0.2641024979011026  0.1898315786146758  1.0000
  H   H521      1.0  0.23875351621441002  0.2479185255494149  0.13456777030338873  1.0000
  H   H522      1.0  0.22000848501568  0.2830284988486632  0.15592042835994957  1.0000
  H   H523      1.0  0.18848784634459004  0.22177480491109086  0.12313870593170018  1.0000
  H   H524      1.0  0.17048122938501767  0.2573193654249737  0.14432927349822666  1.0000
  H   H525      1.0  0.16272406284316474  0.2196734183540073  0.17021080774584085  1.0000
  H   H526      1.0  0.22851933488608417  0.19576614452683594  0.16879697176528774  1.0000
  H   H527      1.0  0.2022098679424844  0.19231644834649209  0.21482225572403246  1.0000
  H   H528      1.0  0.2381785657242526  0.21117331961937466  0.22459759318601202  1.0000
  N   N29       1.0  0.045636561334245984  0.6624826295925464  0.42921917543278476  1.0000
  C   C401      1.0  0.023015714915136876  0.637683689540097  0.41804019156584377  1.0000
  C   C402      1.0  0.06461469945009668  0.6684756477296281  0.38862890014160395  1.0000
  C   C403      1.0  0.06484151105734015  0.6516414275554254  0.467543695092413  1.0000
  C   C404      1.0  0.03003918929734417  0.6921967221798528  0.44272659114834245  1.0000
  H   H529      1.0  0.007977027463289321  0.6450672349312806  0.3894655047430344  1.0000
  H   H530      1.0  0.00844371903779173  0.6324536458479393  0.4480609891151636  1.0000
  H   H531      1.0  0.03393848095540464  0.6149574948631833  0.40744584504631215  1.0000
  H   H532      1.0  0.0821046142394799  0.6868845810536492  0.3958516589511633  1.0000
  H   H533      1.0  0.0766974903592379  0.6466205295183364  0.3773488380624271  1.0000
  H   H534      1.0  0.05088865187481462  0.6765923404377968  0.3589648186857545  1.0000
  H   H535      1.0  0.07674121975730896  0.6291200787424733  0.4587483018651332  1.0000
  H   H536      1.0  0.051237212004569654  0.6471302477013187  0.49881860437118264  1.0000
  H   H537      1.0  0.08225681634799997  0.6696745858063483  0.4768917138797029  1.0000
  H   H538      1.0  0.015477594991871957  0.7012019222443261  0.4145623128070544  1.0000
  H   H539      1.0  0.0464122517375396  0.7112743683702203  0.4521510069920736  1.0000
  H   H540      1.0  0.015254367106084299  0.6884517055803664  0.47294727367324607  1.0000
  N   N30       1.0  0.11783422749177762  0.26146921824692293  0.4259825702870601  1.0000
  C   C405      1.0  0.1400970527450336  0.2849893683766836  0.44306093839665733  1.0000
  C   C406      1.0  0.12265690058155877  0.25552332885356427  0.3765434212668235  1.0000
  C   C407      1.0  0.08702879382300033  0.2739666789619453  0.43327067259453556  1.0000
  C   C408      1.0  0.12161061490104208  0.23134992850183375  0.45111670110418856  1.0000
  H   H541      1.0  0.13797726865213522  0.3081217646942499  0.42514884987851315  1.0000
  H   H542      1.0  0.16357603550682331  0.2764562398372936  0.4377653832589525  1.0000
  H   H543      1.0  0.13720484204139227  0.29013149783783126  0.48029701002460246  1.0000
  H   H544      1.0  0.14520351382542218  0.24488872904107412  0.3698565863806916  1.0000
  H   H545      1.0  0.1055204279560118  0.23886335341713927  0.3620895774817603  1.0000
  H   H546      1.0  0.12127540166137886  0.2778772918007993  0.35659168514247636  1.0000
  H   H547      1.0  0.06950257417685402  0.25693025065687775  0.4209807177162336  1.0000
  H   H548      1.0  0.08344431966284604  0.296663342095214  0.4146293037349798  1.0000
  H   H549      1.0  0.08269984501597594  0.2788840931390675  0.4701859384414246  1.0000
  H   H550      1.0  0.10526567457393111  0.21297616227845795  0.43898482518779774  1.0000
  H   H551      1.0  0.11810611599516596  0.2349123577817623  0.48855730143561876  1.0000
  H   H552      1.0  0.14467477729938127  0.22129033273780271  0.44616954708521767  1.0000
  N   N31       1.0  0.5509805674564408  0.9356163585070837  0.7309358398183093  1.0000
  C   C409      1.0  0.5314074007593517  0.9083170405239988  0.7421779143477827  1.0000
  C   C410      1.0  0.5509436857492952  0.9399617434682903  0.6808024546918349  1.0000
  C   C411      1.0  0.5821385674250293  0.9293493564033455  0.7467050556658298  1.0000
  C   C412      1.0  0.5394145550046291  0.9647722103352252  0.7536249137113905  1.0000
  H   H553      1.0  0.5305739463554794  0.904312220176918  0.779719291883046  1.0000
  H   H554      1.0  0.539840888180808  0.886001327775111  0.7258043752196559  1.0000
  H   H555      1.0  0.5078653926592953  0.912153308430392  0.7298457137935568  1.0000
  H   H556      1.0  0.5595109647475288  0.9184012157657099  0.6625574380091349  1.0000
  H   H557      1.0  0.5277366611931659  0.9445901744495849  0.6678846177124157  1.0000
  H   H558      1.0  0.5653844987707454  0.9604164632104897  0.670741485659656  1.0000
  H   H559      1.0  0.5830549080439689  0.9254226863697221  0.7842952854932503  1.0000
  H   H560      1.0  0.5973699789062598  0.9496194906129783  0.7387521184315265  1.0000
  H   H561      1.0  0.591671038807063  0.9077172528054311  0.7297946605319673  1.0000
  H   H562      1.0  0.5389645225834173  0.9623849816110227  0.7916126982697556  1.0000
  H   H563      1.0  0.5160731662696421  0.9704537942926601  0.7420963678297747  1.0000
  H   H564      1.0  0.5536611492693208  0.9858406547251191  0.7456131509839703  1.0000
  N   N32       1.0  0.5125168624930395  0.7562307578914655  0.31691169814776354  1.0000
  C   C413      1.0  0.5156664124282294  0.7212414899196324  0.3144762059366644  1.0000
  C   C414      1.0  0.5311669650763756  0.7689497587102437  0.3550083477228831  1.0000
  C   C415      1.0  0.48047065039455855  0.7645621123878894  0.32449296277598305  1.0000
  C   C416      1.0  0.5228791899804318  0.7700721218457667  0.27335721697343174  1.0000
  H   H565      1.0  0.5014242948351196  0.7108085737168996  0.2865896170164282  1.0000
  H   H566      1.0  0.5089285559045006  0.7098449438620931  0.3471898232187761  1.0000
  H   H567      1.0  0.5394128789528948  0.7142295460056076  0.30744769917069775  1.0000
  H   H568      1.0  0.5286743574247617  0.7952007287847099  0.3587660946000909  1.0000
  H   H569      1.0  0.5247013284129398  0.7583884496095259  0.3883141865391662  1.0000
  H   H570      1.0  0.5555395325033279  0.7636903570760463  0.34967516719798913  1.0000
  H   H571      1.0  0.4771643010580209  0.7907738744896867  0.32693400468662626  1.0000
  H   H572      1.0  0.4718330809974092  0.7542326473990019  0.35686815971975194  1.0000
  H   H573      1.0  0.4658740409846991  0.7554886402042734  0.29607135142393903  1.0000
  H   H574      1.0  0.520049071741445  0.7963613208242438  0.27314395281617626  1.0000
  H   H575      1.0  0.509992331318979  0.7601512430852764  0.2438107342247038  1.0000
  H   H576      1.0  0.5471553716154136  0.7647576089872626  0.2669827565909417  1.0000
  N   N33       1.0  0.5506377745871326  0.09831732091211376  0.4095390757030516  1.0000
  C   C417      1.0  0.5752142942684592  0.11757957309037992  0.4301197986203432  1.0000
  C   C418      1.0  0.5581363412359136  0.06415482836619635  0.41313117611137123  1.0000
  C   C419      1.0  0.5469892296349006  0.10668947879222412  0.3607287750314534  1.0000
  C   C420      1.0  0.5221830143842234  0.10482061467052972  0.43422453670843025  1.0000
  H   H577      1.0  0.5790170332237736  0.11146201825181867  0.4667066140934927  1.0000
  H   H578      1.0  0.570011550323153  0.1434582705463261  0.42895584741054815  1.0000
  H   H579      1.0  0.5969316459244721  0.1140551370473113  0.41168904394141453  1.0000
  H   H580      1.0  0.5600061688986514  0.05662717713753995  0.44952629875067307  1.0000
  H   H581      1.0  0.5404151101581051  0.048988333547419716  0.3968963918507211  1.0000
  H   H582      1.0  0.5798867671083415  0.05849162353404114  0.3959640474490165  1.0000
  H   H583      1.0  0.5286627740613892  0.09255868069725559  0.34397397483272985  1.0000
  H   H584      1.0  0.5680348762373353  0.10224700924212082  0.3409839918407164  1.0000
  H   H585      1.0  0.541183225542301  0.13225457441312805  0.3566319729643672  1.0000
  H   H586      1.0  0.524029426151929  0.09837813266256856  0.4710453210602712  1.0000
  H   H587      1.0  0.5031054319691474  0.09082857874577721  0.4194121477218726  1.0000
  H   H588      1.0  0.5159988551512974  0.13048545124838173  0.43252004859682575  1.0000
  N   N34       1.0  0.7519450313990079  0.6317310509932199  0.08379064485560628  1.0000
  C   C421      1.0  0.7306922970980724  0.6299359004213125  0.12266269391498019  1.0000
  C   C422      1.0  0.7352355528805788  0.6282483444289109  0.04014121824273542  1.0000
  C   C423      1.0  0.7744422212779649  0.6058831958677069  0.08746469374289867  1.0000
  C   C424      1.0  0.7673861984944996  0.6629209688258837  0.08470464821304158  1.0000
  H   H589      1.0  0.742500938619131  0.6328943837708866  0.15617772183252288  1.0000
  H   H590      1.0  0.7190227941549786  0.6065287976323331  0.12363197646707325  1.0000
  H   H591      1.0  0.7130825395870202  0.6488069944496924  0.12074172880826284  1.0000
  H   H592      1.0  0.7505745990503441  0.6299501524466146  0.010177841585545355  1.0000
  H   H593      1.0  0.723839811600446  0.6048029528130642  0.03749496322969503  1.0000
  H   H594      1.0  0.7178950482190152  0.6471517737225267  0.03616122520999676  1.0000
  H   H595      1.0  0.7905920409829433  0.6061252663154559  0.058312116944846615  1.0000
  H   H596      1.0  0.7634151893648038  0.5820432622382041  0.08722485715482575  1.0000
  H   H597      1.0  0.7877546337100988  0.607842198438803  0.11974027690491873  1.0000
  H   H598      1.0  0.7834955903866985  0.6651711099794828  0.055673864347393076  1.0000
  H   H599      1.0  0.7803031797157761  0.6665420722644106  0.11707621788611577  1.0000
  H   H600      1.0  0.7508744576478853  0.6828327522075679  0.08178689174593035  1.0000
  N   N35       1.0  0.4749407497074411  0.8001937766694182  0.707908122540646  1.0000
  C   C425      1.0  0.4609242023254286  0.7742787789840961  0.7343268177897752  1.0000
  C   C426      1.0  0.4534634952036436  0.8269110574741614  0.7033942363298292  1.0000
  C   C427      1.0  0.4829335995610915  0.7880830371580063  0.6619097016847303  1.0000
  C   C428      1.0  0.5025113437582834  0.8113105751914987  0.7317542113138515  1.0000
  H   H601      1.0  0.4769751348565314  0.7542595411155845  0.7397040023833018  1.0000
  H   H602      1.0  0.440996401869977  0.7641891385510347  0.7160306848497858  1.0000
  H   H603      1.0  0.45306829141025706  0.7827780387854486  0.7684475249710017  1.0000
  H   H604      1.0  0.46343582278523004  0.8468616344704165  0.683662395219895  1.0000
  H   H605      1.0  0.43251771176882275  0.8193095856980533  0.6851710795035597  1.0000
  H   H606      1.0  0.44650317012056145  0.8364423873360111  0.7374057740835402  1.0000
  H   H607      1.0  0.49473190222362073  0.8064607086199831  0.6413556258371192  1.0000
  H   H608      1.0  0.4624509273099952  0.7806005695070667  0.6424240935569544  1.0000
  H   H609      1.0  0.49808198741706927  0.7669959274954238  0.663971021142259  1.0000
  H   H610      1.0  0.5141814819524119  0.8302198544679058  0.7120406135392225  1.0000
  H   H611      1.0  0.5189349658138896  0.7915245367882385  0.7361663849503828  1.0000
  H   H612      1.0  0.49733900283566657  0.8210639470582277  0.7663802082902178  1.0000
  N   N36       1.0  0.027051691333716876  0.3447352589225522  0.12245575367377243  1.0000
  C   C429      1.0  0.009768010194051824  0.34193831866908014  0.07918065909651407  1.0000
  C   C430      1.0  0.030856799889352526  0.312782662567505  0.14242991953761738  1.0000
  C   C431      1.0  0.010633648694956532  0.365459555805349  0.15509655934690417  1.0000
  C   C432      1.0  0.056989290420230265  0.358731213238082  0.11303888566512214  1.0000
  H   H613      1.0  0.006287098249799117  0.3656190986418295  0.06326487064592068  1.0000
  H   H614      1.0  0.9871863301205884  0.331015347292643  0.08480034914590084  1.0000
  H   H615      1.0  0.021839422558290522  0.32661529669982564  0.0537520519144552  1.0000
  H   H616      1.0  0.008791719225202277  0.30221009106580266  0.1521495492207532  1.0000
  H   H617      1.0  0.041500064627735034  0.29608371786271875  0.11755700439022705  1.0000
  H   H618      1.0  0.04547736434001748  0.31353797878668127  0.17354166032534563  1.0000
  H   H619      1.0  0.02298672966943971  0.36764267852527666  0.18825080704176597  1.0000
  H   H620      1.0  0.9877025184011237  0.35607991089754737  0.1624686845009184  1.0000
  H   H621      1.0  0.008120947453204463  0.39006169311007927  0.1417158397133077  1.0000
  H   H622      1.0  0.0694215759656931  0.3446089499880427  0.08678475302016975  1.0000
  H   H623      1.0  0.07123004716576253  0.35986058361078416  0.14454131078598154  1.0000
  H   H624      1.0  0.05503067831563846  0.38351800286315263  0.10021097689984633  1.0000
  N   N37       1.0  0.9393784014930227  0.7012686295285817  0.9303754172123231  1.0000
  C   C433      1.0  0.9108768229181053  0.6888591328351633  0.9493511220887403  1.0000
  C   C434      1.0  0.9652433813108297  0.6859399426339184  0.953493723343585  1.0000
  C   C435      1.0  0.9406702320750461  0.7360769784857059  0.9379537410529073  1.0000
  C   C436      1.0  0.9406568941126282  0.6941549055381951  0.8807121545632203  1.0000
  H   H625      1.0  0.890841388454327  0.7003780505884688  0.9334272105158866  1.0000
  H   H626      1.0  0.9094735292741604  0.6929606309058022  0.98698342935686  1.0000
  H   H627      1.0  0.9087872364254806  0.662822060315708  0.9432678527557146  1.0000
  H   H628      1.0  0.9871447277643015  0.6947410800034156  0.9399196702427247  1.0000
  H   H629      1.0  0.9651596931277419  0.6907798922421798  0.9910196497771411  1.0000
  H   H630      1.0  0.9648425301840301  0.6596423411908253  0.9484392646994404  1.0000
  H   H631      1.0  0.9400788655692607  0.7422401021378857  0.9750872250772552  1.0000
  H   H632      1.0  0.9213778735383346  0.7483145009076553  0.9210890167980829  1.0000
  H   H633      1.0  0.9617367493884622  0.7464073663645543  0.9237984387421744  1.0000
  H   H634      1.0  0.9619463789264694  0.7032861432481166  0.8653749009527311  1.0000
  H   H635      1.0  0.9214022900538481  0.7051699847327513  0.8621219573493906  1.0000
  H   H636      1.0  0.9397488233737751  0.6680411034690399  0.8738712131900733  1.0000
  N   N38       1.0  0.12952183822529184  0.7749114137259379  0.7623143567707905  1.0000
  C   C437      1.0  0.1449182550680006  0.801763949817401  0.7398312339936599  1.0000
  C   C438      1.0  0.14252979694145584  0.7446039108359815  0.7455290458544683  1.0000
  C   C439      1.0  0.0969343336899413  0.7757138564472346  0.7512824054143574  1.0000
  C   C440      1.0  0.13375382228937505  0.7775282594422818  0.8124879274587405  1.0000
  H   H637      1.0  0.14253532580091188  0.8003825868106303  0.7018793591612202  1.0000
  H   H638      1.0  0.16953507355801037  0.8018672246326998  0.7475939767184474  1.0000
  H   H639      1.0  0.13568932270379142  0.8250867629791864  0.7514547285315725  1.0000
  H   H640      1.0  0.13139730622078893  0.7237453052102772  0.7614392848535572  1.0000
  H   H641      1.0  0.13966010802943732  0.7418479875172143  0.7077669707011943  1.0000
  H   H642      1.0  0.16703953493926565  0.743074699311485  0.7531928067817183  1.0000
  H   H643      1.0  0.08466311350245936  0.7557135493570036  0.767675194879494  1.0000
  H   H644      1.0  0.09293198046606665  0.7733130962759832  0.7137016282973871  1.0000
  H   H645      1.0  0.08627679916568165  0.7982725078165729  0.7631999386853513  1.0000
  H   H646      1.0  0.12273602239333847  0.7574903618052535  0.8305682299976872  1.0000
  H   H647      1.0  0.12399685597944289  0.8000240580050528  0.8263971386827174  1.0000
  H   H648      1.0  0.1580997791990821  0.7772107943352881  0.8219551712804829  1.0000
  N   N39       1.0  0.33806244206970687  0.7514037089931465  0.479494407757343  1.0000
  C   C441      1.0  0.33538078691025913  0.7269698997883834  0.5153319330347205  1.0000
  C   C442      1.0  0.3690205312280912  0.7511148276384575  0.46084134302784924  1.0000
  C   C443      1.0  0.33150976567535917  0.7830793231922214  0.499556591600426  1.0000
  C   C444      1.0  0.31639289887665106  0.7444825890488923  0.4421155655031958  1.0000
  H   H649      1.0  0.3119790282688318  0.7255478880589871  0.5288194944106912  1.0000
  H   H650      1.0  0.3504904312758794  0.7323656198851899  0.5448800706023016  1.0000
  H   H651      1.0  0.34185528838413315  0.7029822897398041  0.5021328527770266  1.0000
  H   H652      1.0  0.3753183716749799  0.7272272877837884  0.44712136678880327  1.0000
  H   H653      1.0  0.3714934432092846  0.7684598800603362  0.4326557661812069  1.0000
  H   H654      1.0  0.3860073270371202  0.7574499423800205  0.4874355294797331  1.0000
  H   H655      1.0  0.333412538052885  0.8021346313112818  0.473487871092522  1.0000
  H   H656      1.0  0.34755196780461217  0.7890365777380416  0.527837387669526  1.0000
  H   H657      1.0  0.308325476184392  0.7842188389550087  0.5140089352914284  1.0000
  H   H658      1.0  0.3208610200334294  0.7208684530300132  0.4258753563108079  1.0000
  H   H659      1.0  0.31781219441967035  0.7625452518056669  0.41450755077669327  1.0000
  H   H660      1.0  0.29270198611279236  0.7443823005849691  0.45458069868907536  1.0000
  N   N40       1.0  0.8449589336574509  0.2042413052720249  0.10857125946909396  1.0000
  C   C445      1.0  0.8340541434771114  0.22150045851274625  0.06798637678847852  1.0000
  C   C446      1.0  0.8212130230771719  0.2045025633954245  0.14403737327238875  1.0000
  C   C447      1.0  0.872456041834187  0.21999702711990876  0.12654439989889887  1.0000
  C   C448      1.0  0.8520387203700142  0.17104876719560247  0.09530498315458091  1.0000
  H   H661      1.0  0.8513703196846473  0.22200881473137968  0.04078423519683416  1.0000
  H   H662      1.0  0.8281967114408758  0.24663180523180528  0.0764818989373306  1.0000
  H   H663      1.0  0.8135271877949585  0.21010062322855427  0.05308709082675289  1.0000
  H   H664      1.0  0.8284894401515247  0.19168700444423714  0.17534380097715996  1.0000
  H   H665      1.0  0.8150966247923342  0.22927092711977837  0.1543031707671243  1.0000
  H   H666      1.0  0.8000484916802391  0.19310246381180796  0.13118893639660367  1.0000
  H   H667      1.0  0.8813804518454722  0.2077012990919218  0.15732139785778188  1.0000
  H   H668      1.0  0.8679384444850288  0.2452326595424521  0.13623658876189415  1.0000
  H   H669      1.0  0.8907755330220682  0.22021716751359754  0.10044891914147924  1.0000
  H   H670      1.0  0.8602266419821077  0.15713676336658633  0.1250961758804121  1.0000
  H   H671      1.0  0.8698695929618379  0.17013529829305862  0.06851987642531299  1.0000
  H   H672      1.0  0.8318133970470193  0.15869711649260632  0.08092754232799626  1.0000
  N   N41       1.0  0.7192772632355772  0.3435229080636073  0.17698257185490407  1.0000
  C   C449      1.0  0.7350452069231728  0.3417102825390548  0.2216093370121759  1.0000
  C   C450      1.0  0.6885851607888877  0.35643279761848956  0.1839285812129945  1.0000
  C   C451      1.0  0.7172263377284945  0.311350101121999  0.15628292233016117  1.0000
  C   C452      1.0  0.7362932003523108  0.3646504139674749  0.14614191480810756  1.0000
  H   H673      1.0  0.7374398199859419  0.3657139880099276  0.23779261026400422  1.0000
  H   H674      1.0  0.7580982718619002  0.33154329450687126  0.21782241719605966  1.0000
  H   H675      1.0  0.7225831425034367  0.3263813101642101  0.2460959906145015  1.0000
  H   H676      1.0  0.6758221081119067  0.3576904273888757  0.15110362218464957  1.0000
  H   H677      1.0  0.6752670847115897  0.3414489324746841  0.20780706883602984  1.0000
  H   H678      1.0  0.6893838119415128  0.38092990356223644  0.19872378563052173  1.0000
  H   H679      1.0  0.7400040637334185  0.30084729227205487  0.15069487682470184  1.0000
  H   H680      1.0  0.7056776320007632  0.31169316996160323  0.12236447596924283  1.0000
  H   H681      1.0  0.7044483386004365  0.29475983193433386  0.17854003339690983  1.0000
  H   H682      1.0  0.7248811073628029  0.366872522501839  0.11227393500092453  1.0000
  H   H683      1.0  0.7594770437918754  0.355444951582673  0.13974485698948302  1.0000
  H   H684      1.0  0.7385551385798549  0.38907618257158116  0.16098204619495826  1.0000
  N   N42       1.0  0.528346475882367  0.29939176868973016  0.31874335223956085  1.0000
  C   C453      1.0  0.49831000211319015  0.2851431266331853  0.3265381899202123  1.0000
  C   C454      1.0  0.5259424740630592  0.33446218909179426  0.3200053050295102  1.0000
  C   C455      1.0  0.5396728788181425  0.2889193729221152  0.27346486477972987  1.0000
  C   C456      1.0  0.5494846954358603  0.28898480357768164  0.3549146234828947  1.0000
  H   H685      1.0  0.4990964710075399  0.2587661714719888  0.3231767295659504  1.0000
  H   H686      1.0  0.4813288166729529  0.29372385255556827  0.301370045172736  1.0000
  H   H687      1.0  0.4896907258065384  0.29067963618450066  0.3615228932597136  1.0000
  H   H688      1.0  0.5483308755776395  0.3458557646696912  0.31427227091959337  1.0000
  H   H689      1.0  0.5103463374985914  0.34327359608307706  0.2930058624295746  1.0000
  H   H690      1.0  0.5174360938242801  0.34307189578819525  0.35373979109871134  1.0000
  H   H691      1.0  0.5622987620120853  0.2991821949303286  0.26626482988185857  1.0000
  H   H692      1.0  0.5242591978509985  0.29634120421843213  0.2453735501923943  1.0000
  H   H693      1.0  0.5419566920002948  0.26254526862744476  0.2715460018646604  1.0000
  H   H694      1.0  0.54122381471925  0.29548010017695236  0.3897244765683205  1.0000
  H   H695      1.0  0.5722205339063074  0.2998590074979183  0.350696206733844  1.0000
  H   H696      1.0  0.5525465291066384  0.2627985890480205  0.354135831536703  1.0000
  N   N43       1.0  0.45833614992663707  0.9103579601736228  0.43319574458352983  1.0000
  C   C457      1.0  0.4515327093297695  0.889288190806056  0.39366214707099345  1.0000
  C   C458      1.0  0.49138535123260185  0.9123472310531344  0.43971011520327136  1.0000
  C   C459      1.0  0.4443313853376293  0.8971708776186963  0.474787858132953  1.0000
  C   C460      1.0  0.4460972656636406  0.942472811735418  0.42460038136472705  1.0000
  H   H697      1.0  0.46154811970872206  0.8984772959692643  0.3615194071795311  1.0000
  H   H698      1.0  0.426751181655442  0.8867503003040635  0.38822036576148256  1.0000
  H   H699      1.0  0.46059003347131333  0.8648392075675778  0.39913156536852573  1.0000
  H   H700      1.0  0.5025951801886896  0.9234502531013351  0.40978383886055453  1.0000
  H   H701      1.0  0.49736040024131856  0.9270473173764431  0.47038894985988716  1.0000
  H   H702      1.0  0.5014507386603586  0.888306117334253  0.4443397959163103  1.0000
  H   H703      1.0  0.45071617033688044  0.9109462626326761  0.5060828425481758  1.0000
  H   H704      1.0  0.4514321980489122  0.8720886310091035  0.48016225029448195  1.0000
  H   H705      1.0  0.4192747834974107  0.8972053439646372  0.47226729211822693  1.0000
  H   H706      1.0  0.4506713124445776  0.9588172689484173  0.4539576751119436  1.0000
  H   H707      1.0  0.42124286291617813  0.9418367984622937  0.41904486820087816  1.0000
  H   H708      1.0  0.4565970100988661  0.9534022451868445  0.3939227913912627  1.0000
  N   N44       1.0  0.18791470366028654  0.6712691976331467  0.950622578102789  1.0000
  C   C461      1.0  0.19091242302843078  0.6374094988195549  0.937223173083152  1.0000
  C   C462      1.0  0.21797476402439808  0.6865507956680029  0.9502904358895532  1.0000
  C   C463      1.0  0.17500073215990267  0.6735529570740142  0.9971568393711694  1.0000
  C   C464      1.0  0.16779109727326294  0.6875477090184661  0.9178053150881591  1.0000
  H   H709      1.0  0.16864450630210098  0.6251359372108026  0.9372189643516967  1.0000
  H   H710      1.0  0.2058892791910031  0.6243425092483348  0.9612661440038234  1.0000
  H   H711      1.0  0.20033851503767264  0.6347758816192565  0.9021063147919922  1.0000
  H   H712      1.0  0.21657350726700694  0.7121264748366624  0.9602807661019344  1.0000
  H   H713      1.0  0.2338254232353964  0.6748489426610342  0.9745228737067864  1.0000
  H   H714      1.0  0.22821808705904947  0.6856580184243248  0.9154992685362723  1.0000
  H   H715      1.0  0.1720453227236446  0.6987407298468107  0.008038715908502247  1.0000
  H   H716      1.0  0.18965587089433264  0.6616780961631973  0.022959568386571098  1.0000
  H   H717      1.0  0.15245792287890092  0.6620239723232275  0.9986675341969397  1.0000
  H   H718      1.0  0.16481402437217774  0.713108677429353  0.9270151096282515  1.0000
  H   H719      1.0  0.1450232245651657  0.67638585839486  0.9166652879143492  1.0000
  H   H720      1.0  0.17708099841596464  0.6866353400246825  0.8824259055830227  1.0000
  N   N45       1.0  0.36397708387402744  0.9739364339367061  0.6317329653723298  1.0000
  C   C465      1.0  0.38375708835927813  0.9459881597743824  0.6378608861086928  1.0000
  C   C466      1.0  0.37297075289701187  0.999173096474185  0.6646511938535213  1.0000
  C   C467      1.0  0.33226962687878964  0.9648317937850407  0.6400280742434723  1.0000
  C   C468      1.0  0.3668857384332763  0.9856009215175711  0.5843802998143954  1.0000
  H   H721      1.0  0.37760055807489284  0.9264101626176549  0.6136042283418688  1.0000
  H   H722      1.0  0.3821656752372706  0.9366694195245541  0.6733561907898161  1.0000
  H   H723      1.0  0.40788597891689277  0.9519587441033871  0.631705892893315  1.0000
  H   H724      1.0  0.3589408751163874  0.020956182357222852  0.6606668533464297  1.0000
  H   H725      1.0  0.3705009584097925  0.9911010168160138  0.7006728553762025  1.0000
  H   H726      1.0  0.39694912995037696  0.0062094198238398235  0.6598140007262818  1.0000
  H   H727      1.0  0.3245303112948843  0.9462916466035355  0.615115979071267  1.0000
  H   H728      1.0  0.3168259896664508  0.9855907855862048  0.6370041019590802  1.0000
  H   H729      1.0  0.3293535492758018  0.9550179212700974  0.6749202589417416  1.0000
  H   H730      1.0  0.3532770713230209  0.007515160232391294  0.5790341306259281  1.0000
  H   H731      1.0  0.3592892192398022  0.9672901162097293  0.5589635552202736  1.0000
  H   H732      1.0  0.39068460229014745  0.9915559546848767  0.5762975661012095  1.0000
  N   N46       1.0  0.5935706875061826  0.14547091955095737  0.11341293171340983  1.0000
  C   C469      1.0  0.582816371682651  0.14080195967730091  0.16076931109118942  1.0000
  C   C470      1.0  0.5926468517865617  0.17970391254798934  0.10233140083285686  1.0000
  C   C471      1.0  0.5739743461513744  0.12771134571156395  0.08104281244815281  1.0000
  C   C472      1.0  0.6249009722771086  0.13372722064177522  0.10933489795638263  1.0000
  H   H733      1.0  0.5828860587000187  0.11520112085997569  0.17016758809111243  1.0000
  H   H734      1.0  0.5593372843573148  0.14968021101065143  0.1652827265144592  1.0000
  H   H735      1.0  0.5973395590159136  0.15371119361564345  0.186066826567995  1.0000
  H   H736      1.0  0.6011154203311138  0.18411503303761645  0.06707253873569985  1.0000
  H   H737      1.0  0.5692836407916414  0.18925997463449093  0.10457587030814364  1.0000
  H   H738      1.0  0.6069464999471391  0.1938813403030941  0.1264013782172546  1.0000
  H   H739      1.0  0.5814196426606225  0.13106416289805267  0.04501802201694116  1.0000
  H   H740      1.0  0.5500444582268876  0.13558919903421884  0.08350493584194574  1.0000
  H   H741      1.0  0.5745520317888847  0.10167459328898598  0.08772209454872626  1.0000
  H   H742      1.0  0.6339709204973616  0.13774807390288957  0.07437336261979866  1.0000
  H   H743      1.0  0.6263021705545541  0.10772210844376229  0.1158548666094914  1.0000
  H   H744      1.0  0.6402306244812497  0.14601081228340562  0.1341228644315946  1.0000
  N   N47       1.0  0.6542132136220741  0.0054383627381597854  0.9227727135315077  1.0000
  C   C473      1.0  0.6396257744977256  0.004088614405053148  0.968166161798923  1.0000
  C   C474      1.0  0.635529567106961  0.9879991235356536  0.8887616533511873  1.0000
  C   C475      1.0  0.6843878847821487  0.9905533099641826  0.9254200348590169  1.0000
  C   C476      1.0  0.6573856931204958  0.039038955660459784  0.9089152908354575  1.0000
  H   H745      1.0  0.6524283371550904  0.018135255761553726  0.9943047521988315  1.0000
  H   H746      1.0  0.6379907252772181  0.9792532915840212  0.9806232675692494  1.0000
  H   H747      1.0  0.6163434214990825  0.0140454756322681  0.9671038806361035  1.0000
  H   H748      1.0  0.6453635789477531  0.9893238997005603  0.8538202333635374  1.0000
  H   H749      1.0  0.6334997075703541  0.9623598085797536  0.8975701860067224  1.0000
  H   H750      1.0  0.6122017104946279  0.9977610862796774  0.8870227632469886  1.0000
  H   H751      1.0  0.6961163099156694  0.9912337637648581  0.8917766283839538  1.0000
  H   H752      1.0  0.6827970479094053  0.9651124056939657  0.9356754915441832  1.0000
  H   H753      1.0  0.6990130041569992  0.0029972505519444415  0.9510077648574247  1.0000
  H   H754      1.0  0.6681825307431976  0.04115995296123254  0.8747310510493601  1.0000
  H   H755      1.0  0.6712784899760454  0.052899586581017566  0.9339794256617211  1.0000
  H   H756      1.0  0.635113051950422  0.051139715519155526  0.9070997145867452  1.0000
  N   N48       1.0  0.7890238873073954  0.5957118236993385  0.36550533144313646  1.0000
  C   C477      1.0  0.7636467510956644  0.612434176630456  0.38799960706072273  1.0000
  C   C478      1.0  0.7824833095732332  0.5918731179145896  0.3160547011950342  1.0000
  C   C479      1.0  0.7930186168068564  0.5639751738382301  0.38611247179137975  1.0000
  C   C480      1.0  0.8169320776934679  0.6145307182936403  0.37189954976316736  1.0000
  H   H757      1.0  0.7680138526868829  0.6163068383273954  0.42521802968611455  1.0000
  H   H758      1.0  0.7424148192804171  0.5986121844486101  0.3849057347912989  1.0000
  H   H759      1.0  0.7593897014582868  0.6361188939181738  0.3725097898113885  1.0000
  H   H760      1.0  0.8016170845520487  0.5805029213753955  0.29753891438280394  1.0000
  H   H761      1.0  0.7623237051417844  0.576555444914745  0.31016498455644803  1.0000
  H   H762      1.0  0.777672002107242  0.6151279388629295  0.29958035633746244  1.0000
  H   H763      1.0  0.8120845843044662  0.5507786710417305  0.3700901751498676  1.0000
  H   H764      1.0  0.7723581102230759  0.5491175475460836  0.38187098384844287  1.0000
  H   H765      1.0  0.7978759548942252  0.5658696093630389  0.4234767946520119  1.0000
  H   H766      1.0  0.8366480510043636  0.6026222476745587  0.35561804552871135  1.0000
  H   H767      1.0  0.8223820730252139  0.6177653068480379  0.40898552072756394  1.0000
  H   H768      1.0  0.8146524365499206  0.6386435584555377  0.35684630050167526  1.0000
