data_image0
_chemical_formula_structural       FeS2FeS2FeSFeS3FeS2FeS2FeSFeS3FeS2FeS2FeSFeS3FeS2FeS2FeSFeS3FeS2FeS2FeSFeS3FeS2FeS2FeSFeS3FeS2FeS2FeSFeS3FeS2FeS2FeSFeS3FeS2FeS2FeSFeS3FeS2FeS2FeSFeS3FeS2FeS2FeSFeS3FeS2FeS2FeSFeS3C6H4C6H4C6H4C6H4C6H4C6H4C6H4C6H4C6H4C6H4C6H4C6H4C6H4C6H4C6H4C6H4C6H4C6H4C6H4C6H4C6H4C6H4C6H4C6H4FeS2FeS2FeSFeS3FeS2FeS2FeSFeS3FeS2FeS2FeSFeS3FeS2FeS2FeSFeS3FeS2FeS2FeSFeS3FeS2FeS2FeSFeS3FeS2FeS2FeSFeS3FeS2FeS2FeSFeS3FeS2FeS2FeSFeS3FeS2FeS2FeSFeS3FeS2FeS2FeSFeS3FeS2FeS2FeSFeS3C6H4C6H4C6H4C6H4C6H4C6H4C6H4C6H4C6H4C6H4C6H4C6H4C6H4C6H4C6H4C6H4C6H4C6H4C6H4C6H4C6H4C6H4C6H4C6H4NC4H12NC4H12NC4H12NC4H12NC4H12NC4H12NC4H12NC4H12NC4H12NC4H12NC4H12NC4H12NC4H12NC4H12NC4H12NC4H12NC4H12NC4H12NC4H12NC4H12NC4H12NC4H12NC4H12NC4H12NC4H12NC4H12NC4H12NC4H12NC4H12NC4H12NC4H12NC4H12NC4H12NC4H12NC4H12NC4H12NC4H12NC4H12NC4H12NC4H12NC4H12NC4H12NC4H12NC4H12NC4H12NC4H12NC4H12NC4H12
_chemical_formula_sum              "Fe96 S192 C480 H768 N48"
_cell_length_a       31.659210910118347
_cell_length_b       34.28936663008314
_cell_length_c       36.35030883421015
_cell_angle_alpha    89.60574061091701
_cell_angle_beta     89.8498562517782
_cell_angle_gamma    89.37090566475746

_space_group_name_H-M_alt    "P 1"
_space_group_IT_number       1

loop_
  _space_group_symop_operation_xyz
  'x, y, z'

loop_
  _atom_site_type_symbol
  _atom_site_label
  _atom_site_symmetry_multiplicity
  _atom_site_fract_x
  _atom_site_fract_y
  _atom_site_fract_z
  _atom_site_occupancy
  Fe  Fe1       1.0  0.4491366539220005  0.4609763048803651  0.21633891894014304  1.0000
  S   S1        1.0  0.3874159431478842  0.4318937221148573  0.22689189093664994  1.0000
  S   S2        1.0  0.46883935236704993  0.5085024962600742  0.2541287655598194  1.0000
  Fe  Fe2       1.0  0.46534690669397893  0.41719300342163484  0.14568890868471818  1.0000
  S   S3        1.0  0.40516301166136065  0.38327505894902386  0.1499170335819564  1.0000
  S   S4        1.0  0.5073554922044345  0.4169017502992461  0.09597036073239806  1.0000
  Fe  Fe3       1.0  0.37635245908981796  0.4404493416565177  0.16666869581650826  1.0000
  S   S5        1.0  0.3412542369916919  0.32662449564743506  0.6628404795907684  1.0000
  Fe  Fe4       1.0  0.4220297563627773  0.37754786962834636  0.20972715005893136  1.0000
  S   S6        1.0  0.4168537411950771  0.32451132795061455  0.24577339618330438  1.0000
  S   S7        1.0  0.43496591044398153  0.47472114635409396  0.15769222449670742  1.0000
  S   S8        1.0  0.48510780424574645  0.4059776903307567  0.20392810139913664  1.0000
  Fe  Fe5       1.0  0.9191370052759092  0.5867564624361371  0.5058020866630953  1.0000
  S   S9        1.0  0.87646146225087  0.5520134340077354  0.46994622311035006  1.0000
  S   S10       1.0  0.9537522341185649  0.6369751768234533  0.4805307872662083  1.0000
  Fe  Fe6       1.0  0.9030571286956295  0.5367330944463047  0.572851154674697  1.0000
  S   S11       1.0  0.8597045488023138  0.4972698412720439  0.5426545113128737  1.0000
  S   S12       1.0  0.9458607018597002  0.514825123154853  0.0860918058894673  1.0000
  Fe  Fe7       1.0  0.9074565088673479  0.500491380455835  0.49733979480519114  1.0000
  S   S13       1.0  0.9251491908374286  0.4453908598129362  0.46788133518730995  1.0000
  Fe  Fe8       1.0  0.8328963959868207  0.552164776533942  0.5184041360634855  1.0000
  S   S14       1.0  0.7630810342152475  0.5622149759277127  0.5122152899298318  1.0000
  S   S15       1.0  0.953692870614642  0.5350935331498308  0.5298150522046309  1.0000
  S   S16       1.0  0.8725384225425473  0.5920425452514482  0.5523034398548078  1.0000
  Fe  Fe9       1.0  0.3493625091541471  0.8024192238586698  0.5940034098967734  1.0000
  S   S17       1.0  0.39896759256484854  0.7578013874838437  0.5796629870260427  1.0000
  S   S18       1.0  0.2885177267827057  0.8080118655456568  0.5628542588954482  1.0000
  Fe  Fe10      1.0  0.40417629500903646  0.8413903196161113  0.6511541724586406  1.0000
  S   S19       1.0  0.45886271579070403  0.8006774721584236  0.641906656723682  1.0000
  S   S20       1.0  0.5058971897418061  0.865616623874245  0.32040842489627624  1.0000
  Fe  Fe11      1.0  0.44360836463176817  0.8077456684914653  0.5820106082547964  1.0000
  S   S21       1.0  0.4928377902574434  0.818636560251841  0.5388588810857505  1.0000
  Fe  Fe12      1.0  0.40923746741326605  0.7544568225501969  0.6406687759209017  1.0000
  S   S22       1.0  0.417031641009239  0.6974276281975349  0.6704358551044088  1.0000
  S   S23       1.0  0.3932421475589485  0.8528495348488777  0.5914490997131936  1.0000
  S   S24       1.0  0.3552441432978208  0.7947413848307839  0.6550040065660497  1.0000
  Fe  Fe13      1.0  0.6843032573926854  0.5600071016336055  0.09312970108974893  1.0000
  S   S25       1.0  0.5735636660247934  0.5050692363753421  0.6547081835919364  1.0000
  S   S26       1.0  0.679449975358535  0.5034857361695497  0.12438042243033219  1.0000
  Fe  Fe14      1.0  0.731520504663822  0.6367337739919955  0.09200730998043372  1.0000
  S   S27       1.0  0.6690201555158112  0.5386146713789358  0.6665705655451453  1.0000
  S   S28       1.0  0.7866675543369928  0.6705606539210991  0.11360573400683548  1.0000
  Fe  Fe15      1.0  0.6030538020373701  0.5617042874237305  0.6703271758691909  1.0000
  S   S29       1.0  0.5941715028051482  0.618611578875533  0.6405563108530996  1.0000
  Fe  Fe16      1.0  0.639446036592937  0.4810072550583435  0.6565638153974298  1.0000
  S   S30       1.0  0.6677657990825169  0.4425817637102383  0.6134487646928141  1.0000
  S   S31       1.0  0.676384352673702  0.6152772221321029  0.1249872632098179  1.0000
  S   S32       1.0  0.7433496389974866  0.5793048482792225  0.06432595814340325  1.0000
  Fe  Fe17      1.0  0.8672204331255032  0.3942126045083221  0.2778873204572534  1.0000
  S   S33       1.0  0.9284239749513933  0.361982383104853  0.26928905247433366  1.0000
  S   S34       1.0  0.8672290211198642  0.45412352594257877  0.3024951259320051  1.0000
  Fe  Fe18      1.0  0.8145897283476122  0.3313283229148367  0.24306551613023045  1.0000
  S   S35       1.0  0.8708997865509481  0.2933309496369857  0.2314497822206712  1.0000
  S   S36       1.0  0.7495148294613977  0.3141466439016433  0.2250489728886057  1.0000
  Fe  Fe19      1.0  0.8918009944503072  0.3098342839103817  0.2880384723132403  1.0000
  S   S37       1.0  0.9214388048334308  0.2640899425614382  0.32434708604587964  1.0000
  Fe  Fe20      1.0  0.9023042873672857  0.3485298529629127  0.21365506094360723  1.0000
  S   S38       1.0  0.9402615470939842  0.3490304277039117  0.16141571673154637  1.0000
  S   S39       1.0  0.8323776374693175  0.3431461210148807  0.30160955503009734  1.0000
  S   S40       1.0  0.8441597374483705  0.38552847136782875  0.22036059328926044  1.0000
  Fe  Fe21      1.0  0.7809361697513196  0.8263502633329756  0.25579177976037276  1.0000
  S   S41       1.0  0.8096110392099263  0.8489991361528862  0.20372381432727094  1.0000
  S   S42       1.0  0.7441972216157229  0.7708642813969362  0.25460160026262707  1.0000
  Fe  Fe22      1.0  0.8069872198445894  0.8971728701319526  0.2996812417382254  1.0000
  S   S43       1.0  0.8372401163268712  0.9260493921802609  0.2509939023490578  1.0000
  S   S44       1.0  0.8052821660479428  0.9248106577298602  0.3553813852166491  1.0000
  Fe  Fe23      1.0  0.7804280787964616  0.9060553781381  0.21997808936872926  1.0000
  S   S45       1.0  0.748222420273497  0.9457245761860761  0.17900044648659155  1.0000
  Fe  Fe24      1.0  0.8632161756373701  0.8662654221132794  0.2400448010980529  1.0000
  S   S46       1.0  0.8770622413838157  0.7615862398735043  0.6228965129202806  1.0000
  S   S47       1.0  0.7476403620817408  0.8823517871187808  0.2698806020819597  1.0000
  S   S48       1.0  0.8371372940112032  0.838490293830624  0.2910304224315719  1.0000
  Fe  Fe25      1.0  0.9641026181686366  0.9372472825304228  0.5441538576108966  1.0000
  S   S49       1.0  0.9733754481076826  0.8949771118553144  0.4978385095920018  1.0000
  S   S50       1.0  0.9113570536544668  0.9382801630117478  0.5849700812082202  1.0000
  Fe  Fe26      1.0  0.048840020066232226  0.9745287415115516  0.5341920489156597  1.0000
  S   S51       1.0  0.0667571825481541  0.9360779536232663  0.4870835743094533  1.0000
  S   S52       1.0  0.0961479067548654  0.015318724041191167  0.5577700243262798  1.0000
  Fe  Fe27      1.0  0.00033661208681912136  0.9466275366916579  0.46813466130604897  1.0000
  S   S53       1.0  0.9913904819642408  0.9576271573370574  0.40785689899598926  1.0000
  Fe  Fe28      1.0  0.03856716398234927  0.8879031161900055  0.5204853142383804  1.0000
  S   S54       1.0  0.06989462502816002  0.8296842108722771  0.528020580242813  1.0000
  S   S55       1.0  0.9846885490164563  0.989956017751327  0.5123201750370234  1.0000
  S   S56       1.0  0.027131087916451024  0.9252707189519392  0.5695739197367952  1.0000
  Fe  Fe29      1.0  0.09324605146778908  0.2820948851038874  0.45980758642048974  1.0000
  S   S57       1.0  0.10624362491866646  0.28505188510233836  0.5203417713623693  1.0000
  S   S58       1.0  0.055052442613648944  0.33120092606507456  0.4347728428021125  1.0000
  Fe  Fe30      1.0  0.14057758631575545  0.20510435317855524  0.45110594945351346  1.0000
  S   S59       1.0  0.15811065836431012  0.20190617522116328  0.5106685280154248  1.0000
  S   S60       1.0  0.16021359117176992  0.1601219050929601  0.4095350861153026  1.0000
  Fe  Fe31      1.0  0.09126127735867873  0.2214465963833434  0.5206291065367794  1.0000
  S   S61       1.0  0.045329287863089096  0.19357048912367403  0.5594598887802066  1.0000
  Fe  Fe32      1.0  0.17147520844358835  0.2655900147374645  0.5044247306665139  1.0000
  S   S62       1.0  0.22952396533830574  0.2897470625305243  0.5305102877115536  1.0000
  S   S63       1.0  0.07248843281573314  0.21976309805535887  0.461514292236889  1.0000
  S   S64       1.0  0.15989825381783593  0.2673896997187141  0.44364029003134203  1.0000
  Fe  Fe33      1.0  0.3648642426502654  0.970453552920059  0.44102314832516465  1.0000
  S   S65       1.0  0.31310535551248414  0.9283192511947886  0.4541921087251146  1.0000
  S   S66       1.0  0.4284471922633779  0.9755308894002335  0.4676060607447494  1.0000
  Fe  Fe34      1.0  0.32115026015251225  0.0019780855750957116  0.37285193226351676  1.0000
  S   S67       1.0  0.2659345567503408  0.9616416349486446  0.3783969664631063  1.0000
  S   S68       1.0  0.33173988087719125  0.046578268702108794  0.3282801612203333  1.0000
  Fe  Fe35      1.0  0.2693620360819617  0.9773324854637426  0.43817406509929896  1.0000
  S   S69       1.0  0.21343212853139432  0.994921341895467  0.4721211699752104  1.0000
  Fe  Fe36      1.0  0.31423816785429654  0.9159819682677387  0.39393254936532707  1.0000
  S   S70       1.0  0.3189782339021905  0.8542330165212856  0.37422989020008013  1.0000
  S   S71       1.0  0.3207932164736264  0.0210619074289482  0.43158399664054686  1.0000
  S   S72       1.0  0.3689975305449167  0.9547218685925224  0.3817366998864545  1.0000
  Fe  Fe37      1.0  0.578417483932449  0.07180325575198498  0.2579598326414605  1.0000
  S   S73       1.0  0.599428753870581  0.09179539053574493  0.3132649316427901  1.0000
  S   S74       1.0  0.5772858658226945  0.007591710686483788  0.24723642902892984  1.0000
  Fe  Fe38      1.0  0.5573269262798897  0.1535462914510486  0.23210330608901314  1.0000
  S   S75       1.0  0.5774436520191697  0.1813986087196884  0.2847995798869577  1.0000
  S   S76       1.0  0.5310046303752883  0.1877712943147756  0.1845881054628949  1.0000
  Fe  Fe39      1.0  0.6319448850736595  0.1390948475075436  0.28172811266923  1.0000
  S   S77       1.0  0.6988561358508815  0.15258109077950882  0.29608032398900436  1.0000
  Fe  Fe40      1.0  0.5430163561161049  0.13171200517076187  0.3112692737883035  1.0000
  S   S78       1.0  0.4999720482017117  0.13710603502674945  0.3599901384635786  1.0000
  S   S79       1.0  0.615319532140451  0.11605486103764616  0.22621843121864071  1.0000
  S   S80       1.0  0.5186434967317168  0.1070500556860361  0.25884960615187563  1.0000
  Fe  Fe41      1.0  0.4122818379149228  0.5299025370699243  0.46579788713920406  1.0000
  S   S81       1.0  0.36903988138407234  0.5024976116687233  0.5071872255452242  1.0000
  S   S82       1.0  0.41471079617961354  0.5944580839503283  0.4555216358615692  1.0000
  Fe  Fe42      1.0  0.4516810621524567  0.45264412602504245  0.44348798022621605  1.0000
  S   S83       1.0  0.41231697585748023  0.41786905610094693  0.4827864589296567  1.0000
  S   S84       1.0  0.49741987171746294  0.42365947724551334  0.405183840157544  1.0000
  Fe  Fe43      1.0  0.3592724079567416  0.45708619525992494  0.46402851294663394  1.0000
  S   S85       1.0  0.2953331714449531  0.4380641188381802  0.4454444833113109  1.0000
  Fe  Fe44      1.0  0.42581528054582907  0.4660972948312275  0.5224031511084802  1.0000
  S   S86       1.0  0.4459611636019773  0.45705993907379083  0.581125556438346  1.0000
  S   S87       1.0  0.397440385630665  0.48769839300118717  0.4212032847418627  1.0000
  S   S88       1.0  0.47019158208139994  0.4973949191173046  0.4844564581998143  1.0000
  Fe  Fe45      1.0  0.2185239500636807  0.6524662852497377  0.43976225076888403  1.0000
  S   S89       1.0  0.23970899365614207  0.6980193305630834  0.39970786453931006  1.0000
  S   S90       1.0  0.24873660162552144  0.643829580962807  0.4949862810483656  1.0000
  Fe  Fe46      1.0  0.15376104451173345  0.6197423442856032  0.38716964186036495  1.0000
  S   S91       1.0  0.16992230902492667  0.6619383844114447  0.3417895548530397  1.0000
  S   S92       1.0  0.10558158378025828  0.5720995844011668  0.3855705183457785  1.0000
  Fe  Fe47      1.0  0.2372063124294893  0.6502771495850558  0.35819050996718627  1.0000
  S   S93       1.0  0.2957184416310864  0.6436983125068554  0.32386621104416297  1.0000
  Fe  Fe48      1.0  0.17088386283450463  0.705955844333777  0.3873209309914544  1.0000
  S   S94       1.0  0.1427896503359749  0.7657558553181291  0.37816001434184326  1.0000
  S   S95       1.0  0.22099081037079576  0.6039628272030542  0.39915894351819475  1.0000
  S   S96       1.0  0.14973418031976582  0.6645580965925868  0.43168519590029897  1.0000
  C   C1        1.0  0.332821168845075  0.6274083848361415  0.35653064924902056  1.0000
  C   C2        1.0  0.3664941721478062  0.6511870245179595  0.3665915858582136  1.0000
  C   C3        1.0  0.391945599772332  0.6408313997466146  0.39684298104405036  1.0000
  C   C4        1.0  0.3838872937021437  0.6066388730160335  0.4168774449649057  1.0000
  C   C5        1.0  0.35081533832043466  0.5825268217859166  0.4062233304510558  1.0000
  C   C6        1.0  0.32544700954086436  0.5928418507568446  0.37607316575910976  1.0000
  H   H1        1.0  0.3721884603062423  0.6780262851279797  0.3516843532587668  1.0000
  H   H2        1.0  0.41790502902476084  0.6591760106248991  0.40475201576364017  1.0000
  H   H3        1.0  0.3438786461145551  0.5565235704783725  0.42193044883135455  1.0000
  H   H4        1.0  0.29957129024357887  0.5743157083260807  0.36837456085056036  1.0000
  C   C7        1.0  0.377902953477859  0.07267463577884992  0.3370877864335812  1.0000
  C   C8        1.0  0.39948623478150525  0.06700910503301083  0.3702112722663179  1.0000
  C   C9        1.0  0.43586272050806796  0.08832517363100534  0.3778184858724265  1.0000
  C   C10       1.0  0.45188702063982433  0.11422724631752468  0.35158310663995335  1.0000
  C   C11       1.0  0.430497309425757  0.11995402321400461  0.31826501707924026  1.0000
  C   C12       1.0  0.3932051921398841  0.09948783567857067  0.3112018622759621  1.0000
  H   H5        1.0  0.38848037459275  0.045985638040958454  0.3900544860293724  1.0000
  H   H6        1.0  0.4525306390293941  0.08357032178305768  0.40347173736397973  1.0000
  H   H7        1.0  0.4425348913315804  0.1404028153461998  0.29812031333587474  1.0000
  H   H8        1.0  0.3765297360860083  0.10406613019189637  0.28556166006429584  1.0000
  C   C13       1.0  0.2463708208870767  0.332384725053805  0.508253035673367  1.0000
  C   C14       1.0  0.2850002298335398  0.3488324970852797  0.5179562850580804  1.0000
  C   C15       1.0  0.29992943770073105  0.38167769211982694  0.4990692770661868  1.0000
  C   C16       1.0  0.2763291419825516  0.3980323659978708  0.4703288222027363  1.0000
  C   C17       1.0  0.23715926694965594  0.3823099420296339  0.4612436545222116  1.0000
  C   C18       1.0  0.22209758591942436  0.34959503188546004  0.48031548036308525  1.0000
  H   H9        1.0  0.3035479283321296  0.3361483659343592  0.5399289348534888  1.0000
  H   H10       1.0  0.3297083855199129  0.39418966582451725  0.5067477804875239  1.0000
  H   H11       1.0  0.21854612500239545  0.3951947032784899  0.4392978046593982  1.0000
  H   H12       1.0  0.19169148294900715  0.33781949226610425  0.47338336431078737  1.0000
  C   C19       1.0  0.1707840515869017  0.1132261408060371  0.4271739090465121  1.0000
  C   C20       1.0  0.18554066406456848  0.08430701762256865  0.40330568837372  1.0000
  C   C21       1.0  0.19837846207764817  0.04788787991204768  0.4171293220416187  1.0000
  C   C22       1.0  0.1949631120590651  0.0396677333657387  0.4547212173488586  1.0000
  C   C23       1.0  0.17827333432691364  0.06787856317830254  0.4784349362507414  1.0000
  C   C24       1.0  0.16661454480991875  0.1048233797140048  0.46472209035635864  1.0000
  H   H13       1.0  0.1878572133175304  0.09022360210788438  0.37409296306040274  1.0000
  H   H14       1.0  0.21062217409529965  0.02605155868033915  0.39855913344445115  1.0000
  H   H15       1.0  0.17524656838157696  0.06139666177842118  0.507499132850736  1.0000
  H   H16       1.0  0.1542542504048503  0.12649709326421998  0.48327917379540075  1.0000
  C   C25       1.0  0.0807863390465422  0.06449512039722127  0.5605373376684181  1.0000
  C   C26       1.0  0.11179169277972867  0.09267437181260396  0.5654784379915885  1.0000
  C   C27       1.0  0.10073950509465557  0.13231278448317862  0.56595993367592  1.0000
  C   C28       1.0  0.058497018967999415  0.1438846601400181  0.5624299863877501  1.0000
  C   C29       1.0  0.027126870577198314  0.11566459095743697  0.5592021269317418  1.0000
  C   C30       1.0  0.03835486696242363  0.07598206072449121  0.5576245887878182  1.0000
  H   H17       1.0  0.1445901526040212  0.08390405664089617  0.5682019095112065  1.0000
  H   H18       1.0  0.12499163855811779  0.1538877361690203  0.5694072757896578  1.0000
  H   H19       1.0  0.9943667626828019  0.12456227317923907  0.5565647448394948  1.0000
  H   H20       1.0  0.014193052351090474  0.05444896069133476  0.5540691738146996  1.0000
  C   C31       1.0  0.09027868319264387  0.8126336183674466  0.4862612641529443  1.0000
  C   C32       1.0  0.1178992690333065  0.7805851579584386  0.48631830842330337  1.0000
  C   C33       1.0  0.1345217052385479  0.7666575922161123  0.4531368777971773  1.0000
  C   C34       1.0  0.12354280129176809  0.7845496775364612  0.4198101646237825  1.0000
  C   C35       1.0  0.09658775163453681  0.8171960474219983  0.419814671233095  1.0000
  C   C36       1.0  0.0797363279399359  0.8311406304195827  0.45303400183705206  1.0000
  H   H21       1.0  0.12665396494883185  0.7665405872259105  0.5119892572729483  1.0000
  H   H22       1.0  0.15611358559738298  0.7422228327597683  0.4534089512136481  1.0000
  H   H23       1.0  0.0885499048180578  0.831470003276472  0.3941623226150946  1.0000
  H   H24       1.0  0.05843871468854278  0.8560063222770113  0.45285127914814527  1.0000
  C   C37       1.0  0.8566803839638492  0.9349808192360214  0.37025162496653563  1.0000
  C   C38       1.0  0.8890063640935529  0.9407212312513704  0.344566912771568  1.0000
  C   C39       1.0  0.9300425775864103  0.9487537027157683  0.3563605401634129  1.0000
  C   C40       1.0  0.9392446443852313  0.9498771086825896  0.3939219383230808  1.0000
  C   C41       1.0  0.9070188006844723  0.9442290182357542  0.41976672865769676  1.0000
  C   C42       1.0  0.8656061669250552  0.937234739117276  0.4078946324555483  1.0000
  H   H25       1.0  0.8824042259130287  0.939515684637679  0.31556024745373173  1.0000
  H   H26       1.0  0.9546784401760621  0.9538525729550952  0.3362953511068165  1.0000
  H   H27       1.0  0.9138534743563039  0.9454210849449595  0.4488625890994911  1.0000
  H   H28       1.0  0.8406584096082964  0.9328906140836833  0.42786552163929453  1.0000
  C   C43       1.0  0.8995930843409533  0.8896335382684285  0.5952062847873782  1.0000
  C   C44       1.0  0.894566352739648  0.8778483282560671  0.6318040865979427  1.0000
  C   C45       1.0  0.8869447792035461  0.8386367682755412  0.6402230750914717  1.0000
  C   C46       1.0  0.8841684018796468  0.8110896097025487  0.6121039275304367  1.0000
  C   C47       1.0  0.8879555000687291  0.8231650443621905  0.5754168007408815  1.0000
  C   C48       1.0  0.8959651145945097  0.8623600678984749  0.5669862970877763  1.0000
  H   H29       1.0  0.897785765183754  0.8987360292888712  0.6537484241580607  1.0000
  H   H30       1.0  0.8839723160587607  0.8298013817638337  0.6685866730466569  1.0000
  H   H31       1.0  0.8844487872821963  0.802396872218099  0.5534949719014053  1.0000
  H   H32       1.0  0.8985530798736187  0.8715960415396757  0.5385984388561789  1.0000
  C   C49       1.0  0.6993170039424595  0.9619953624748108  0.19583880067529164  1.0000
  C   C50       1.0  0.674843663837043  0.9377860031692179  0.2181874801903385  1.0000
  C   C51       1.0  0.6372648091857149  0.9519370771676948  0.23378641398881575  1.0000
  C   C52       1.0  0.6237596549353587  0.9901851960361047  0.22664291981808002  1.0000
  C   C53       1.0  0.6474313419932364  0.013965262585871274  0.2031547299776062  1.0000
  C   C54       1.0  0.6851735049031273  0.9998549017355947  0.1876934009333569  1.0000
  H   H33       1.0  0.6844360986260438  0.9079077390782617  0.22292595347036165  1.0000
  H   H34       1.0  0.6189110652206314  0.9333632583031974  0.25172188251078986  1.0000
  H   H35       1.0  0.6365488454763957  0.04307291728964047  0.1965816668305466  1.0000
  H   H36       1.0  0.7037915916023958  0.018522252688821572  0.1699902316236391  1.0000
  C   C55       1.0  0.7371290842955278  0.26816875519338973  0.2435150319174715  1.0000
  C   C56       1.0  0.701710375976272  0.24838048984439218  0.23068897490830567  1.0000
  C   C57       1.0  0.6897902893487493  0.21290072073115043  0.2468452660186299  1.0000
  C   C58       1.0  0.7140139917231083  0.19658504051807457  0.27528626307746157  1.0000
  C   C59       1.0  0.7503545326522983  0.21559421987738206  0.2872303883924523  1.0000
  C   C60       1.0  0.7617954431099385  0.2514749832236544  0.27148710026846057  1.0000
  H   H37       1.0  0.6839496566424035  0.2601479944199857  0.2078605710788224  1.0000
  H   H38       1.0  0.6622371028499942  0.1979013730952412  0.23695685643814252  1.0000
  H   H39       1.0  0.769318428082758  0.20295697956024727  0.30907266024315494  1.0000
  H   H40       1.0  0.7895162050656725  0.2662983512548909  0.281266293267578  1.0000
  C   C61       1.0  0.9594014021116699  0.28368462032798575  0.3535941363021266  1.0000
  C   C62       1.0  0.9556247951882534  0.3220975299590615  0.36596306397625217  1.0000
  C   C63       1.0  0.9852931720019558  0.33686225494664335  0.39070793471361903  1.0000
  C   C64       1.0  0.01944387185816998  0.31355548288990104  0.40216335067458336  1.0000
  C   C65       1.0  0.023878161430176403  0.2756058388299044  0.38883900636661894  1.0000
  C   C66       1.0  0.9934869529492535  0.26043634149920636  0.36512426702862955  1.0000
  H   H41       1.0  0.9291961456102373  0.3399187922742587  0.35710511348020796  1.0000
  H   H42       1.0  0.9813687243230664  0.36606364729549  0.4012761845714988  1.0000
  H   H43       1.0  0.050976750411733995  0.25801276165582676  0.39632283494544884  1.0000
  H   H44       1.0  0.9967690610001668  0.23091280808863515  0.35509604657601546  1.0000
  C   C67       1.0  0.7745637289833645  0.6984268726617238  0.15273085994811916  1.0000
  C   C68       1.0  0.8066855317720832  0.7187973498772016  0.17045218586435967  1.0000
  C   C69       1.0  0.7973905958705348  0.7418103523057082  0.2013199813859229  1.0000
  C   C70       1.0  0.756134585680928  0.7434625408797467  0.21520710660950496  1.0000
  C   C71       1.0  0.7241347439974206  0.7228348987043421  0.19764248868911993  1.0000
  C   C72       1.0  0.7332263793697555  0.7008752261080476  0.16614690331181203  1.0000
  H   H45       1.0  0.8388627887742829  0.7163429848816988  0.16062443942119403  1.0000
  H   H46       1.0  0.8223545212371153  0.7572626791731849  0.2150978777496477  1.0000
  H   H47       1.0  0.6921351949224877  0.7241417884684693  0.20801402939936312  1.0000
  H   H48       1.0  0.7081506845280324  0.6858634942643197  0.15238092923796775  1.0000
  C   C73       1.0  0.4563302067057683  0.8539847968083947  0.3385469853417091  1.0000
  C   C74       1.0  0.4253516374456087  0.8395989940261922  0.3150838475319309  1.0000
  C   C75       1.0  0.3834089333165653  0.837377465254683  0.32685118996244505  1.0000
  C   C76       1.0  0.37230359496627646  0.8495313861544415  0.36218044325464066  1.0000
  C   C77       1.0  0.40367016922685145  0.8617725389505154  0.3865243783287621  1.0000
  C   C78       1.0  0.445852856068285  0.8637298981393775  0.3747858377872448  1.0000
  H   H49       1.0  0.4332227466960911  0.8317303324406532  0.28717873721419196  1.0000
  H   H50       1.0  0.35944890103879523  0.8289274782422426  0.3075204751958082  1.0000
  H   H51       1.0  0.3951724015935877  0.8715609842319635  0.41383100747443086  1.0000
  H   H52       1.0  0.4696568442594335  0.8751666258421211  0.39298497058963605  1.0000
  C   C79       1.0  0.47610917128736774  0.8592178081246784  0.5131527798995545  1.0000
  C   C80       1.0  0.4330444181795558  0.8652222463277252  0.5068309582450844  1.0000
  C   C81       1.0  0.4186087344462973  0.9004270738649371  0.49159519180058353  1.0000
  C   C82       1.0  0.44708661389562576  0.9298471393233997  0.4826289587767553  1.0000
  C   C83       1.0  0.4904486857347633  0.9233139364591608  0.48759090520790627  1.0000
  C   C84       1.0  0.505025764874375  0.8877384125818891  0.5024690341767318  1.0000
  H   H53       1.0  0.41059508334977823  0.843149868836516  0.5146349026045384  1.0000
  H   H54       1.0  0.38525194736575535  0.9053907594482349  0.48858075701752746  1.0000
  H   H55       1.0  0.5126328575549901  0.9459807708471235  0.4805639353492662  1.0000
  H   H56       1.0  0.5384302035787506  0.8830530879218387  0.5072215624990937  1.0000
  C   C85       1.0  0.4682080280190489  0.6781993680796253  0.6653346268266652  1.0000
  C   C86       1.0  0.4965078566553644  0.6950649081762558  0.6404310903592203  1.0000
  C   C87       1.0  0.5359984273346393  0.6774353431957564  0.6340544436424383  1.0000
  C   C88       1.0  0.5471191219297672  0.6428140906216042  0.6523849381327024  1.0000
  C   C89       1.0  0.5194171334354921  0.6266110216599021  0.6781753493429908  1.0000
  C   C90       1.0  0.4798903285991193  0.6442362552253799  0.6845245856288521  1.0000
  H   H57       1.0  0.48751792781455183  0.7209678027674928  0.6251567816320279  1.0000
  H   H58       1.0  0.5573663504024224  0.6900209026429085  0.6140709070712491  1.0000
  H   H59       1.0  0.5278663213916408  0.5999021042382345  0.6924635096380938  1.0000
  H   H60       1.0  0.4580532403415946  0.6311916624196916  0.703850548434545  1.0000
  C   C91       1.0  0.2752316843146596  0.762196304059952  0.5455819546846559  1.0000
  C   C92       1.0  0.24974097081802366  0.7596425047546232  0.5143313224216326  1.0000
  C   C93       1.0  0.2410975408460225  0.7231664112876851  0.499153613435548  1.0000
  C   C94       1.0  0.25763775724898136  0.6891776935761146  0.515246285815612  1.0000
  C   C95       1.0  0.28259952055923604  0.6916509641561298  0.5468256369941981  1.0000
  C   C96       1.0  0.29148853421746573  0.7281785216735258  0.5619433025656443  1.0000
  H   H61       1.0  0.2374576759267536  0.7857756311318428  0.501228349438237  1.0000
  H   H62       1.0  0.22172056011360036  0.7213317465071033  0.47491186734063623  1.0000
  H   H63       1.0  0.2954023125964852  0.6653919909173233  0.5593855089302832  1.0000
  H   H64       1.0  0.31068721857271014  0.7299260993954052  0.5864248498191361  1.0000
  C   C97       1.0  0.9464991029697251  0.46897220994724054  0.10753098946947913  1.0000
  C   C98       1.0  0.9535699105004934  0.435359631442409  0.08677045824460672  1.0000
  C   C99       1.0  0.9526142325835357  0.39860606807479937  0.1037557881041018  1.0000
  C   C100      1.0  0.94354030440883  0.395336256442018  0.14132755394665697  1.0000
  C   C101      1.0  0.9364810566612604  0.42892238268996336  0.16218251675434517  1.0000
  C   C102      1.0  0.9385277868566603  0.46579643348821553  0.1453371297855528  1.0000
  H   H65       1.0  0.9588942241630442  0.43750710829582257  0.057482035654117906  1.0000
  H   H66       1.0  0.9577473629114222  0.3725759352782498  0.08759027619779979  1.0000
  H   H67       1.0  0.9298094011346121  0.426444210919894  0.19131847079140896  1.0000
  H   H68       1.0  0.9334805431369371  0.49180860599555554  0.16153235338142496  1.0000
  C   C103      1.0  0.9112242644780866  0.4479213402302171  0.4214332386409897  1.0000
  C   C104      1.0  0.9103412305324184  0.4837073280065967  0.40272725432570833  1.0000
  C   C105      1.0  0.8966746824333329  0.4856391282671736  0.36610053437674267  1.0000
  C   C106      1.0  0.8846387450716393  0.45166788420820614  0.3480220835450684  1.0000
  C   C107      1.0  0.8862353598630661  0.4158786120261704  0.3665621165564034  1.0000
  C   C108      1.0  0.8996851970656721  0.4139495603301547  0.40318420925795756  1.0000
  H   H69       1.0  0.9208784390938002  0.5098031101587092  0.41621716686872756  1.0000
  H   H70       1.0  0.8958907180011731  0.5133518528398341  0.3516483842135707  1.0000
  H   H71       1.0  0.8767458382247503  0.3896615377147617  0.3527849196275091  1.0000
  H   H72       1.0  0.9003640277331957  0.3861749859468  0.4174641935959704  1.0000
  C   C109      1.0  0.7339717301735008  0.5272129486314558  0.5365390833488484  1.0000
  C   C110      1.0  0.7489992338501127  0.48884430021196923  0.5402867834863944  1.0000
  C   C111      1.0  0.7271861912234591  0.4620142604668369  0.5622634282497052  1.0000
  C   C112      1.0  0.6906299793366469  0.4737191461245455  0.5809301294113056  1.0000
  C   C113      1.0  0.6744544843264992  0.5114982163935692  0.575837310314488  1.0000
  C   C114      1.0  0.6958532798315711  0.5380845899534369  0.5532699921371795  1.0000
  H   H73       1.0  0.777293405854003  0.47959478894964563  0.5262650548283879  1.0000
  H   H74       1.0  0.7393650034843696  0.4326101715982323  0.5657051146905129  1.0000
  H   H75       1.0  0.6455280465643471  0.5203792146294756  0.5894608300536324  1.0000
  H   H76       1.0  0.683394394031063  0.5673508092492  0.549604848737645  1.0000
  C   C115      1.0  0.9927528019766511  0.6188455590354408  0.45050364604686277  1.0000
  C   C116      1.0  0.9986010449519729  0.5785908206869137  0.4462369083238225  1.0000
  C   C117      1.0  0.03257315774614833  0.5641408937339512  0.42540502235813105  1.0000
  C   C118      1.0  0.06017596598264019  0.589947790005446  0.4079512102800686  1.0000
  C   C119      1.0  0.05256581316391329  0.6301553221475693  0.41007369233951835  1.0000
  C   C120      1.0  0.01918974772363846  0.6446282228365934  0.43165066569259725  1.0000
  H   H77       1.0  0.977506186733184  0.5584675420979442  0.4595149677394729  1.0000
  H   H78       1.0  0.038162444238633686  0.5330800700902498  0.42399520061850626  1.0000
  H   H79       1.0  0.072555462673205  0.6502110011881693  0.39523493363057954  1.0000
  H   H80       1.0  0.014191497249189444  0.6757540866439876  0.43391118338760576  1.0000
  C   C121      1.0  0.4840961591414246  0.4874726505350913  0.2961719256728685  1.0000
  C   C122      1.0  0.4777494818569321  0.507836512782652  0.32895710012282825  1.0000
  C   C123      1.0  0.4847971598532947  0.489096759640185  0.36284728206059635  1.0000
  C   C124      1.0  0.4984573861057411  0.45013670187803845  0.3638737774720542  1.0000
  C   C125      1.0  0.5076117640101881  0.4307265993014157  0.33109454381494224  1.0000
  C   C126      1.0  0.49994861305063404  0.4492443497036253  0.2973003343320526  1.0000
  H   H81       1.0  0.4658541227410773  0.537548789725338  0.3282626026907417  1.0000
  H   H82       1.0  0.47875937740352964  0.5045809378545971  0.3881661993630045  1.0000
  H   H83       1.0  0.5187127766651497  0.4007775937870499  0.3318211298760259  1.0000
  H   H84       1.0  0.5060817927615594  0.43378251233196913  0.27219489878052266  1.0000
  C   C127      1.0  0.4155340360351489  0.422039793756185  0.6042335303265227  1.0000
  C   C128      1.0  0.427964577164133  0.4088718499940245  0.6391455395267772  1.0000
  C   C129      1.0  0.40571977308637897  0.37894191406099403  0.6568694902438614  1.0000
  C   C130      1.0  0.36968259535892833  0.3635857682683068  0.6405949421689283  1.0000
  C   C131      1.0  0.35600058121390354  0.3780770016819727  0.6064918170823634  1.0000
  C   C132      1.0  0.37935416792604953  0.40677711349634355  0.587972339391397  1.0000
  H   H85       1.0  0.4547515343797298  0.4218543072997112  0.6525470778747071  1.0000
  H   H86       1.0  0.4156477229622566  0.36845343056380825  0.6835683010805519  1.0000
  H   H87       1.0  0.32756366669020665  0.3668683282861645  0.5942807969269215  1.0000
  H   H88       1.0  0.36909591146954  0.4174049460747661  0.5613685589246684  1.0000
  C   C133      1.0  0.6318127622697479  0.47941146739646756  0.11609000693008609  1.0000
  C   C134      1.0  0.6107450878392628  0.46123083138991805  0.14532119262866658  1.0000
  C   C135      1.0  0.572287475171579  0.4424150456011686  0.13929505566999567  1.0000
  C   C136      1.0  0.5554571974871805  0.4405243553979589  0.10381938373755871  1.0000
  C   C137      1.0  0.5769562064506558  0.458060576610145  0.0744393191602053  1.0000
  C   C138      1.0  0.6148002010932949  0.4779659451817929  0.08064453216779977  1.0000
  H   H89       1.0  0.6238074736806998  0.4623378314106966  0.17277093051510123  1.0000
  H   H90       1.0  0.5559131767760919  0.4292132824858602  0.162090756796948  1.0000
  H   H91       1.0  0.5641926660343181  0.45656766232310003  0.04690890611645582  1.0000
  H   H92       1.0  0.6313059603017486  0.49138325510899283  0.05784723709012817  1.0000
  C   C139      1.0  0.4461193457645678  0.28531084363286197  0.2278541806252009  1.0000
  C   C140      1.0  0.46043543191943875  0.2862078500803959  0.19142569285852853  1.0000
  C   C141      1.0  0.48519565676092463  0.2553583212811538  0.1777306290678651  1.0000
  C   C142      1.0  0.49629295674004487  0.22397119351521458  0.20065952121682543  1.0000
  C   C143      1.0  0.4815584058160523  0.2228342057166499  0.2369651970593283  1.0000
  C   C144      1.0  0.4562719712176196  0.2533891596530196  0.25047693463744247  1.0000
  H   H93       1.0  0.45250900421105844  0.31068131396390136  0.17377006740179737  1.0000
  H   H94       1.0  0.49658700001709294  0.256305893743122  0.14963910780087342  1.0000
  H   H95       1.0  0.4898497716062076  0.19858678830567345  0.2548015166015188  1.0000
  H   H96       1.0  0.44523496678894103  0.252572486850523  0.2786696158191669  1.0000
  Fe  Fe49      1.0  0.3857489650789546  0.22032803075603516  0.7513132074854602  1.0000
  S   S97       1.0  0.3598124972323716  0.2227084509659898  0.6944812902846234  1.0000
  S   S98       1.0  0.3454519095314411  0.1937999626876198  0.7950974496807591  1.0000
  Fe  Fe50      1.0  0.465425021852133  0.26161008730803265  0.7295783546054291  1.0000
  S   S99       1.0  0.4467999572836811  0.26766215896726775  0.6703707533150165  1.0000
  S   S100      1.0  0.5284503113881386  0.284491907340096  0.7470020236764636  1.0000
  Fe  Fe51      1.0  0.38314524829357166  0.283884150950886  0.6926955619882106  1.0000
  S   S101      1.0  0.31905796299909395  0.4685769350078264  0.14216659452304214  1.0000
  Fe  Fe52      1.0  0.425080781119691  0.20615555059075333  0.6767613014520776  1.0000
  S   S102      1.0  0.4282874769755682  0.16523260679398555  0.6292230384358259  1.0000
  S   S103      1.0  0.40312872045793213  0.2834810619945437  0.7518421540924849  1.0000
  S   S104      1.0  0.44952606595922356  0.1980633403579915  0.7342099895657124  1.0000
  Fe  Fe53      1.0  0.033413552601106566  0.5246337333278636  0.971659264293399  1.0000
  S   S105      1.0  0.9938263138103245  0.507673637041821  0.9239223082653751  1.0000
  S   S106      1.0  0.10057997630066073  0.5396987788432636  0.9618059509596047  1.0000
  Fe  Fe54      1.0  0.9643521907802212  0.5096228693088933  0.02676232088896624  1.0000
  S   S107      1.0  0.9182242785345054  0.4900414331591591  0.9841647756114189  1.0000
  S   S108      1.0  0.9144944940830942  0.5217001349957698  0.6319966042796882  1.0000
  Fe  Fe55      1.0  0.973893428012263  0.4582781237987158  0.9601855614141327  1.0000
  S   S109      1.0  0.9722990120418009  0.3995142007230368  0.9340994550920033  1.0000
  Fe  Fe56      1.0  0.9421145725922604  0.5411674894476128  0.9518294616313764  1.0000
  S   S110      1.0  0.9026004230076582  0.5813348085343968  0.9169047067545597  1.0000
  S   S111      1.0  0.018060753255754625  0.47245732930353596  0.006081557124043568  1.0000
  S   S112      1.0  0.9842004496757294  0.5635359958498596  0.9962929148314151  1.0000
  Fe  Fe57      1.0  0.4429774460940696  0.8378328735571512  0.19886829278375462  1.0000
  S   S113      1.0  0.4836784874071468  0.8626124729675789  0.154101769640695  1.0000
  S   S114      1.0  0.3820861296312991  0.8067351398815324  0.19040399462909985  1.0000
  Fe  Fe58      1.0  0.4956238404825358  0.8697903847409583  0.25966128745499173  1.0000
  S   S115      1.0  0.5400040372466715  0.9000982303137086  0.22157907032479462  1.0000
  S   S116      1.0  0.4062192063186669  0.8940977966200828  0.6873399544301582  1.0000
  Fe  Fe59      1.0  0.4831078774872515  0.9165734781724095  0.18848159700537925  1.0000
  S   S117      1.0  0.4812200329972207  0.9719145632172536  0.15527077231892794  1.0000
  Fe  Fe60      1.0  0.5377936220282329  0.8445931631695633  0.18998769123565995  1.0000
  S   S118      1.0  0.6002854456476167  0.8225028047840246  0.17039459820496172  1.0000
  S   S119      1.0  0.43798745232175335  0.8934292626031587  0.2307552032177156  1.0000
  S   S120      1.0  0.4974795858551237  0.8127592862911494  0.23056147091862944  1.0000
  Fe  Fe61      1.0  0.574357971135606  0.4926259795670083  0.7155147770098437  1.0000
  S   S121      1.0  0.6406484013385911  0.578126533374516  0.04757916679015661  1.0000
  S   S122      1.0  0.5167115430755994  0.46790202072236  0.7421588698846263  1.0000
  Fe  Fe62      1.0  0.6618778938614852  0.5243215399119496  0.726085584586239  1.0000
  S   S123      1.0  0.692073928809885  0.661547168720176  0.046306664134512676  1.0000
  S   S124      1.0  0.7184102277276064  0.5407792978055318  0.7594612868238736  1.0000
  Fe  Fe63      1.0  0.6377289087547269  0.6353262335840942  0.07678855423937159  1.0000
  S   S125      1.0  0.5754351000626359  0.6656289503110668  0.08460258963459055  1.0000
  Fe  Fe64      1.0  0.6989582329038022  0.6023696292277773  0.021239542520393062  1.0000
  S   S126      1.0  0.710481013971181  0.5996454074684227  0.9604510829315148  1.0000
  S   S127      1.0  0.5972918333926565  0.551723124408026  0.7311643157622142  1.0000
  S   S128      1.0  0.638499155757538  0.46386439464723994  0.7160867203949508  1.0000
  Fe  Fe65      1.0  0.8788037724226138  0.3591320614485916  0.7565430992312276  1.0000
  S   S129      1.0  0.9430621460358137  0.33615886726456123  0.7419680479389034  1.0000
  S   S130      1.0  0.872073563631011  0.41674703012061587  0.7849658530446628  1.0000
  Fe  Fe66      1.0  0.8345356155255214  0.29033237828969877  0.7223789608165345  1.0000
  S   S131      1.0  0.8953604561224257  0.26175393952124143  0.7041116233383607  1.0000
  S   S132      1.0  0.769633527892538  0.26807896795688213  0.7097111907237337  1.0000
  Fe  Fe67      1.0  0.9183001515695641  0.2784574444601488  0.7603675083341738  1.0000
  S   S133      1.0  0.96142339775184  0.24556089110971077  0.7987893552300042  1.0000
  Fe  Fe68      1.0  0.914097732742469  0.32224580521925056  0.687752908489417  1.0000
  S   S134      1.0  0.9462109876629983  0.3399784618879361  0.6353159992181083  1.0000
  S   S135      1.0  0.8560225622440769  0.3024693925986578  0.7799195337674873  1.0000
  S   S136      1.0  0.8513983910809342  0.3495503076874864  0.7008352524630967  1.0000
  Fe  Fe69      1.0  0.7947569160639176  0.7421594350056373  0.7387153871862571  1.0000
  S   S137      1.0  0.809198371485764  0.7941464045598013  0.7038543527246844  1.0000
  S   S138      1.0  0.7280769147607915  0.7231532563057677  0.7429048651135729  1.0000
  Fe  Fe70      1.0  0.8848986279488014  0.7273906783239832  0.7595116919706337  1.0000
  S   S139      1.0  0.9085812531186679  0.778052327535963  0.7262903115241583  1.0000
  S   S140      1.0  0.9300785076870579  0.6913333576073404  0.7933249275269264  1.0000
  Fe  Fe71      1.0  0.8525915496475857  0.8100670101330533  0.749652702239725  1.0000
  S   S141      1.0  0.8545165723466227  0.8718547096571687  0.7693539845090043  1.0000
  Fe  Fe72      1.0  0.8633191795891942  0.7579811555226553  0.6833254196860937  1.0000
  S   S142      1.0  0.9304329884263762  0.8541887298949346  0.2246491293625814  1.0000
  S   S143      1.0  0.8328771335754334  0.7613223262267792  0.7868201829752738  1.0000
  S   S144      1.0  0.8449086987775098  0.7037764117829498  0.7140507457048239  1.0000
  Fe  Fe73      1.0  0.9699057357172027  0.8327920816934711  0.02856214226265208  1.0000
  S   S145      1.0  0.9540384942857749  0.7718662164464446  0.045880403182571916  1.0000
  S   S146      1.0  0.937883464883718  0.8844092693446965  0.054025633187673616  1.0000
  Fe  Fe74      1.0  0.030225088857435578  0.8064667498755563  0.9693584256494462  1.0000
  S   S147      1.0  0.019867432009133656  0.7430921341055385  0.9810131958014097  1.0000
  S   S148      1.0  0.0762824527681305  0.8231786489152462  0.9251200922122009  1.0000
  Fe  Fe75      1.0  0.9515575503434298  0.7597913673052455  0.9855153632997111  1.0000
  S   S149      1.0  0.897146707430337  0.7276746998962238  0.961249683437645  1.0000
  Fe  Fe76      1.0  0.023683187545995077  0.7606878782935346  0.04002501290767757  1.0000
  S   S150      1.0  0.05770839864350208  0.7197057002302941  0.07822058940943921  1.0000
  S   S151      1.0  0.9611182076194329  0.8217232715977497  0.9685761745030408  1.0000
  S   S152      1.0  0.03997004510945179  0.8230565749174068  0.02816869603741967  1.0000
  Fe  Fe77      1.0  0.09545316702228623  0.0760034478761118  0.7704289241862003  1.0000
  S   S153      1.0  0.06666048754828657  0.07728083728751976  0.8268722712676448  1.0000
  S   S154      1.0  0.06517074729260464  0.1097387098899909  0.7242685526288359  1.0000
  Fe  Fe78      1.0  0.15977566704533186  0.01468954522518695  0.7906285795300468  1.0000
  S   S155      1.0  0.13661666961317762  0.009790722348985481  0.8486535380648783  1.0000
  S   S156      1.0  0.212535146679923  0.9748928234945665  0.7729706028340364  1.0000
  Fe  Fe79      1.0  0.07214661515783916  0.012452713624368839  0.823958720886593  1.0000
  S   S157      1.0  0.01822958116623763  0.978329111338378  0.846526552630348  1.0000
  Fe  Fe80      1.0  0.13335875603839195  0.07502317360326183  0.8469666732831237  1.0000
  S   S158      1.0  0.15313383182920567  0.10523435562161176  0.8989209893931647  1.0000
  S   S159      1.0  0.09523345137181671  0.010895263354762541  0.7658780359818892  1.0000
  S   S160      1.0  0.1623838017719361  0.08014737651467274  0.7905975643281263  1.0000
  Fe  Fe81      1.0  0.40873272509972186  0.9418766830520736  0.961475463896115  1.0000
  S   S161      1.0  0.3751530172249369  0.9324763896971348  0.9081147397717801  1.0000
  S   S162      1.0  0.3762459921896578  0.9271391173430085  0.01472707512650051  1.0000
  Fe  Fe82      1.0  0.48928814090299927  0.966334538387544  0.925051474609834  1.0000
  S   S163      1.0  0.4638882465573  0.959799480619443  0.8682896305012203  1.0000
  S   S164      1.0  0.5573744137248877  0.9817194733207473  0.9297391630003979  1.0000
  Fe  Fe83      1.0  0.4054369035523026  0.9884358348591882  0.890081065608889  1.0000
  S   S165      1.0  0.3763863162202596  0.0339415219092023  0.8524654015897425  1.0000
  Fe  Fe84      1.0  0.43565836470957975  0.9046453573213185  0.8896044488569226  1.0000
  S   S166      1.0  0.4385602835805758  0.8514015411514748  0.8541688580210675  1.0000
  S   S167      1.0  0.4335816167850056  0.0008803695601600214  0.9455098849236383  1.0000
  S   S168      1.0  0.4667058133795907  0.9082223773695415  0.944736832373192  1.0000
  Fe  Fe85      1.0  0.6580441558482313  0.9924163771770483  0.7459295061700197  1.0000
  S   S169      1.0  0.6877443929149399  0.04454226149746354  0.7713444277647256  1.0000
  S   S170      1.0  0.6655042273148624  0.9307741480663911  0.7656378115757346  1.0000
  Fe  Fe86      1.0  0.6124092497060196  0.040136326582681736  0.68760164280354  1.0000
  S   S171      1.0  0.6383973094037481  0.09687045028638108  0.7072196977356469  1.0000
  S   S172      1.0  0.5678029910183034  0.03295750363206573  0.6405136070837897  1.0000
  Fe  Fe87      1.0  0.6993370853190221  0.06331635038499761  0.7130190378082069  1.0000
  S   S173      1.0  0.7640051959192555  0.08452308716535505  0.6986586356249862  1.0000
  Fe  Fe88      1.0  0.6243595312919281  0.07294316547225854  0.7633565284709706  1.0000
  S   S174      1.0  0.5888802603214072  0.1071572269660308  0.8057458592278647  1.0000
  S   S175      1.0  0.6746423012783561  0.008583674123049612  0.688051835479438  1.0000
  S   S176      1.0  0.5931972656276533  0.018875962864776552  0.743296444327517  1.0000
  Fe  Fe89      1.0  0.22709210378518357  0.39987606810316556  0.9297824598517647  1.0000
  S   S177      1.0  0.17062651386576297  0.37292838105437537  0.9566360494296897  1.0000
  S   S178      1.0  0.2299164753760135  0.4574990218566498  0.9009666735001329  1.0000
  Fe  Fe90      1.0  0.28183810364705253  0.3282499369523629  0.940214576916857  1.0000
  S   S179      1.0  0.2306880166845341  0.2938082266033496  0.9675475613098011  1.0000
  S   S180      1.0  0.3480966477285957  0.30808264769842914  0.9295380303581207  1.0000
  Fe  Fe91      1.0  0.18820326625239972  0.31969584477989677  0.9241889486781982  1.0000
  S   S181      1.0  0.13898416740791172  0.28920986232131374  0.8904547403429944  1.0000
  Fe  Fe92      1.0  0.2174751241999912  0.3496747025344044  0.9975613412302946  1.0000
  S   S182      1.0  0.20526556182536557  0.34866444484782194  0.058144483304304995  1.0000
  S   S183      1.0  0.2409086963116738  0.34887612980348054  0.8938195330721396  1.0000
  S   S184      1.0  0.2724466012691036  0.38184314347591625  0.9738499085891968  1.0000
  Fe  Fe93      1.0  0.343534365257106  0.6184923686860138  0.11276380489956628  1.0000
  S   S185      1.0  0.3498611039269678  0.6488787438122292  0.058402617431807524  1.0000
  S   S186      1.0  0.39686160276016785  0.6281731618576641  0.15233312570941937  1.0000
  Fe  Fe94      1.0  0.25910980985046606  0.5833320496415096  0.09289748765734585  1.0000
  S   S187      1.0  0.25874928436770284  0.6112537323819842  0.036921006444080584  1.0000
  S   S188      1.0  0.20143143814649056  0.5502605422883531  0.11014596557133416  1.0000
  Fe  Fe95      1.0  0.32667119045619725  0.5927696312877208  0.03514630908583882  1.0000
  S   S189      1.0  0.3557197312085612  0.5677040963372368  0.9841018109845128  1.0000
  Fe  Fe96      1.0  0.2815087863360972  0.6641504386139344  0.06594424302253188  1.0000
  S   S190      1.0  0.2549082638917646  0.7236637618006607  0.05341658042735942  1.0000
  S   S191      1.0  0.3258249349058257  0.5606644967983219  0.08904448882257654  1.0000
  S   S192      1.0  0.2765365024786508  0.6379608830548276  0.12226324946393752  1.0000
  C   C145      1.0  0.3196245611633538  0.5379752678530588  0.9613928753739185  1.0000
  C   C146      1.0  0.29215288643820614  0.514195322093705  0.9814613689415569  1.0000
  C   C147      1.0  0.2649936281160449  0.48881569982017353  0.9630314070833359  1.0000
  C   C148      1.0  0.2639696357194138  0.48861178817005263  0.9245161266369355  1.0000
  C   C149      1.0  0.290917457892941  0.5129390717454926  0.9045158308443257  1.0000
  C   C150      1.0  0.3193314096179236  0.5369897520899114  0.9229419409990859  1.0000
  H   H97       1.0  0.2928115587691417  0.5145658355217775  0.0111910671068709  1.0000
  H   H98       1.0  0.24409835551926662  0.4701607104616012  0.9786240237202456  1.0000
  H   H99       1.0  0.29027493452676495  0.5128003824675149  0.8747682564998394  1.0000
  H   H100      1.0  0.34059421027830455  0.5553604876988029  0.9074072097928312  1.0000
  C   C151      1.0  0.5670841555131749  0.019084106886944063  0.8979101908850707  1.0000
  C   C152      1.0  0.6068867960511329  0.021965989759196614  0.8814858174542026  1.0000
  C   C153      1.0  0.6137323316470004  0.049519067929758576  0.853535221141529  1.0000
  C   C154      1.0  0.5812848043466466  0.07519406762494585  0.8429288584285642  1.0000
  C   C155      1.0  0.5419385612762142  0.07338374452107788  0.8604192617611408  1.0000
  C   C156      1.0  0.5345462140588375  0.04474635690050821  0.8873484719527838  1.0000
  H   H101      1.0  0.6321346943249668  0.002260954890862754  0.8896876936177727  1.0000
  H   H102      1.0  0.6443666770864191  0.051163029615511  0.8405589229336021  1.0000
  H   H103      1.0  0.5169136798964097  0.09346140616403731  0.8526625844136541  1.0000
  H   H104      1.0  0.5037893607382457  0.04276163268253286  0.9001932961356431  1.0000
  C   C157      1.0  0.14807104026352746  0.1562739769050747  0.8965110033688964  1.0000
  C   C158      1.0  0.1592698085397477  0.17876234425848103  0.926909400956952  1.0000
  C   C159      1.0  0.1574122046180728  0.21961345762558562  0.9248656963232277  1.0000
  C   C160      1.0  0.1434968005658321  0.2381335818752111  0.8926555673730464  1.0000
  C   C161      1.0  0.1311978497259727  0.21561908940077204  0.8625524744723682  1.0000
  C   C162      1.0  0.13392350044902687  0.17472979636843072  0.8643503498331874  1.0000
  H   H105      1.0  0.16967129710484752  0.16462491169784196  0.9520526222826017  1.0000
  H   H106      1.0  0.16588240616722882  0.23672507494892583  0.9485294757149466  1.0000
  H   H107      1.0  0.1202282850380909  0.22977566450464657  0.8375929970241891  1.0000
  H   H108      1.0  0.12534488141678854  0.1574860314516698  0.8408044694564183  1.0000
  C   C163      1.0  0.25941436693442854  0.9911075526445138  0.7928542219984087  1.0000
  C   C164      1.0  0.27214406197677166  0.02981732458730546  0.788597176838229  1.0000
  C   C165      1.0  0.30947639522703085  0.04240668117858126  0.8053052747537774  1.0000
  C   C166      1.0  0.3334423040219816  0.016584280750208347  0.8270483480158601  1.0000
  C   C167      1.0  0.32146119155688474  0.9776399502338949  0.8298763186970958  1.0000
  C   C168      1.0  0.2842983580770723  0.9650366314733578  0.8132446950381536  1.0000
  H   H109      1.0  0.2533364150338452  0.049945525833202664  0.7722659593086411  1.0000
  H   H110      1.0  0.319283260989044  0.07228108789681409  0.8018129279195727  1.0000
  H   H111      1.0  0.3404393637076304  0.9571624885085934  0.8451456765403259  1.0000
  H   H112      1.0  0.27428810528688335  0.9353152474284584  0.8171109154781915  1.0000
  C   C169      1.0  0.06329352803402566  0.8685175613400482  0.9056365553932036  1.0000
  C   C170      1.0  0.08519507753564914  0.8819017292702462  0.8746031375320896  1.0000
  C   C171      1.0  0.07215049186941291  0.9163626022145022  0.8567542825789825  1.0000
  C   C172      1.0  0.0366301265750022  0.9367766511709055  0.8695353964438239  1.0000
  C   C173      1.0  0.015432980748285363  0.9239373692744018  0.9010346381593045  1.0000
  C   C174      1.0  0.029292034765639352  0.89026068450608  0.9194832251625289  1.0000
  H   H113      1.0  0.1117226744608204  0.8652438370368448  0.8639833797517678  1.0000
  H   H114      1.0  0.08875781181642961  0.9264589556032347  0.8324871997268672  1.0000
  H   H115      1.0  0.988283066541126  0.9400750840295415  0.9112088214943537  1.0000
  H   H116      1.0  0.013286588656982401  0.880928234855289  0.9441620439449325  1.0000
  C   C175      1.0  0.11286394048839887  0.7230478387956975  0.07476948347456958  1.0000
  C   C176      1.0  0.13810981070521278  0.6916040230598636  0.08638958683477638  1.0000
  C   C177      1.0  0.18189708482983735  0.6921676951917166  0.08067547732335023  1.0000
  C   C178      1.0  0.20070354712206306  0.7243633241032239  0.06367315832141296  1.0000
  C   C179      1.0  0.17567926609207052  0.7564320497219575  0.053230558395124694  1.0000
  C   C180      1.0  0.13176222603771293  0.7556890755607761  0.058619283693548185  1.0000
  H   H117      1.0  0.12369240227952605  0.6662498069483997  0.09887778779896594  1.0000
  H   H118      1.0  0.2007811195960476  0.6671367473949932  0.08862104863355036  1.0000
  H   H119      1.0  0.19006264862289513  0.7814367750103381  0.040143380029840525  1.0000
  H   H120      1.0  0.11261408866318345  0.780181544839984  0.049843513893013114  1.0000
  C   C181      1.0  0.9207395192486938  0.6987062241801594  0.8404045240876952  1.0000
  C   C182      1.0  0.8794728307622948  0.70081870783887  0.8541760067629278  1.0000
  C   C183      1.0  0.8723886428296648  0.7086569283246797  0.8915690555184023  1.0000
  C   C184      1.0  0.9065012978170329  0.7150034980405858  0.9151343160475736  1.0000
  C   C185      1.0  0.9477529087980177  0.7122247323573959  0.9014084934976029  1.0000
  C   C186      1.0  0.9548726843534847  0.7034815583227848  0.8642352458990064  1.0000
  H   H121      1.0  0.852952905292619  0.6960410718003618  0.8361582864839068  1.0000
  H   H122      1.0  0.8404229283513719  0.7103670482746338  0.9021167212435544  1.0000
  H   H123      1.0  0.9742387189343381  0.716520640387216  0.9194205845522474  1.0000
  H   H124      1.0  0.986841139292077  0.7013888735492823  0.8537803832994717  1.0000
  C   C187      1.0  0.9394043624588175  0.879139729368565  0.10189920821357878  1.0000
  C   C188      1.0  0.9118810725392038  0.901187402606464  0.12383332356665822  1.0000
  C   C189      1.0  0.9098173613759568  0.8941575183190175  0.1618294150765851  1.0000
  C   C190      1.0  0.9359687941168949  0.8656893935695997  0.177956165991618  1.0000
  C   C191      1.0  0.9646206432390645  0.8446872097842147  0.15621961590156697  1.0000
  C   C192      1.0  0.9660449285042575  0.8511370103898759  0.11811753095783817  1.0000
  H   H125      1.0  0.8913112403322841  0.922909450026786  0.11134752159744576  1.0000
  H   H126      1.0  0.887697622952154  0.910528317927594  0.1785657133527434  1.0000
  H   H127      1.0  0.9847422349313534  0.8225441872546624  0.16860998894115986  1.0000
  H   H128      1.0  0.9875307980954577  0.8341448681183015  0.10131723504668666  1.0000
  C   C193      1.0  0.8021323559691371  0.8884876987291644  0.7734179661857897  1.0000
  C   C194      1.0  0.7690600683731004  0.8618476511416672  0.7719302042652947  1.0000
  C   C195      1.0  0.7271062018158908  0.8751193151305477  0.7708033314872382  1.0000
  C   C196      1.0  0.7180260700935167  0.915103251212269  0.7709355938497596  1.0000
  C   C197      1.0  0.7509236864747278  0.9418138872833987  0.7739930124620369  1.0000
  C   C198      1.0  0.7930430547916835  0.928494995682085  0.7752654184515887  1.0000
  H   H129      1.0  0.7756638926258452  0.8309058021216522  0.7710982357170085  1.0000
  H   H130      1.0  0.7017816628970408  0.8543046664840069  0.7687219513458033  1.0000
  H   H131      1.0  0.7440142341525974  0.9727383223079499  0.7748487599312995  1.0000
  H   H132      1.0  0.818526411396875  0.949205221020482  0.7766631150772175  1.0000
  C   C199      1.0  0.7689777791733815  0.21715239669468306  0.7056558600293419  1.0000
  C   C200      1.0  0.7336012479879852  0.1991628607545062  0.6905167918235776  1.0000
  C   C201      1.0  0.7320019495429683  0.15839283337781518  0.6882693201145319  1.0000
  C   C202      1.0  0.7660575924088574  0.13555424638506475  0.7006386410758938  1.0000
  C   C203      1.0  0.80179645408784  0.15357052455838888  0.715056495215413  1.0000
  C   C204      1.0  0.8030750147696292  0.19432766411714636  0.7179342677620777  1.0000
  H   H133      1.0  0.7076029871199391  0.21675745027428497  0.6802198596884828  1.0000
  H   H134      1.0  0.7049326245863516  0.14468582128701518  0.676060922076157  1.0000
  H   H135      1.0  0.8281256528370905  0.13596963921697228  0.7247530911684843  1.0000
  H   H136      1.0  0.8301903344976894  0.20796266933036972  0.7301545555204274  1.0000
  C   C205      1.0  0.9889927552140589  0.20701204812193413  0.7780886947471504  1.0000
  C   C206      1.0  0.9741411475573181  0.18982640735401315  0.7458756292434757  1.0000
  C   C207      1.0  0.9976135435794332  0.15991438746857095  0.729029819760964  1.0000
  C   C208      1.0  0.03570213340380701  0.1471248870333879  0.7446497189455376  1.0000
  C   C209      1.0  0.05032780897367384  0.16413101279275613  0.7768909028357345  1.0000
  C   C210      1.0  0.026970377867349127  0.1939450314518625  0.7936628384202881  1.0000
  H   H137      1.0  0.9442430513086695  0.1990138974557276  0.7343664770467164  1.0000
  H   H138      1.0  0.9859721769801928  0.14634004434768297  0.7043287860594925  1.0000
  H   H139      1.0  0.08003487954189459  0.1546038179165617  0.788630663397326  1.0000
  H   H140      1.0  0.03877720154823727  0.20709020598706185  0.8184099487069465  1.0000
  C   C211      1.0  0.7226102770835061  0.591486641837876  0.755092415840165  1.0000
  C   C212      1.0  0.7575272523346187  0.6112083552941607  0.7690099581421541  1.0000
  C   C213      1.0  0.7596753380841953  0.6520060750116423  0.7655379439957978  1.0000
  C   C214      1.0  0.7261440929212383  0.6728385053319648  0.7493115255119865  1.0000
  C   C215      1.0  0.6911427287810088  0.6531130798406959  0.7362105909569195  1.0000
  C   C216      1.0  0.6900899347820948  0.6125646214719921  0.7380347292979358  1.0000
  H   H141      1.0  0.7825933602648437  0.5950646659184674  0.7825239631874015  1.0000
  H   H142      1.0  0.7867385817736867  0.6674224083036503  0.7759522691488163  1.0000
  H   H143      1.0  0.6651921205814918  0.6691550998188669  0.7236876511776322  1.0000
  H   H144      1.0  0.6637605044729379  0.5979574053324064  0.7262078777830756  1.0000
  C   C217      1.0  0.4169166550224708  0.882249132089457  0.7333644394934593  1.0000
  C   C218      1.0  0.4293774046570433  0.8444069039609644  0.7434430110933867  1.0000
  C   C219      1.0  0.43569686051377726  0.8349306700389514  0.7806630800339353  1.0000
  C   C220      1.0  0.4291713645927499  0.8631413724398265  0.8078178989157363  1.0000
  C   C221      1.0  0.41620038116871133  0.9008321463069585  0.7976588758211194  1.0000
  C   C222      1.0  0.410664372110238  0.9105237907404045  0.7604641458933534  1.0000
  H   H145      1.0  0.43398153739024087  0.822322797647657  0.7226515594410017  1.0000
  H   H146      1.0  0.44560562232087725  0.8056935627806103  0.7884120042863569  1.0000
  H   H147      1.0  0.4097731022012358  0.9224110754152619  0.8184572785677448  1.0000
  H   H148      1.0  0.40041067146513964  0.9396739146957619  0.7528235125290266  1.0000
  C   C223      1.0  0.4508449552335213  0.9616803164202519  0.11634641943559765  1.0000
  C   C224      1.0  0.4620052898503495  0.9769656588243487  0.08189434621027547  1.0000
  C   C225      1.0  0.43936268130588535  0.9663199701048595  0.05040805116635072  1.0000
  C   C226      1.0  0.4046484932058456  0.9415502267821063  0.053613386660894324  1.0000
  C   C227      1.0  0.3926265714475326  0.9275563384432466  0.08829541839943289  1.0000
  C   C228      1.0  0.4161356625891942  0.937019836028096  0.11952643822981313  1.0000
  H   H149      1.0  0.4887520710263405  0.9961388520236165  0.07933560314303456  1.0000
  H   H150      1.0  0.4487342955477233  0.9772576059978858  0.023695202156655215  1.0000
  H   H151      1.0  0.3654179428437454  0.9089341330957773  0.09095278576286359  1.0000
  H   H152      1.0  0.4071683406107974  0.9254035221476409  0.14615371798990817  1.0000
  C   C229      1.0  0.5933150524684632  0.7785760844061241  0.14723618218961687  1.0000
  C   C230      1.0  0.628561350307695  0.756836690005022  0.1359073032659659  1.0000
  C   C231      1.0  0.6230955996205483  0.7218709706330615  0.11687732919696514  1.0000
  C   C232      1.0  0.5824165226149902  0.7088640579558844  0.10895270315006211  1.0000
  C   C233      1.0  0.547146264218051  0.7304645321523149  0.1205787937914733  1.0000
  C   C234      1.0  0.5525989228536602  0.7652790611472239  0.13987720723218167  1.0000
  H   H153      1.0  0.6600740606766656  0.7669198579585043  0.14187338159176233  1.0000
  H   H154      1.0  0.650387899811391  0.7051932006186462  0.10808014275793387  1.0000
  H   H155      1.0  0.5156654150701608  0.7203201735158618  0.11460782470135733  1.0000
  H   H156      1.0  0.5252881555141926  0.7818970454512044  0.1487541723231236  1.0000
  C   C235      1.0  0.3877814837166654  0.7567027654478776  0.1825080083367543  1.0000
  C   C236      1.0  0.3513728824830803  0.7344200741048416  0.17934783217004013  1.0000
  C   C237      1.0  0.35451463688974616  0.6947682766719436  0.17122265866074926  1.0000
  C   C238      1.0  0.3939977719836584  0.6770920210950555  0.16595635165369926  1.0000
  C   C239      1.0  0.43069422444674627  0.699128316749669  0.1699119010764618  1.0000
  C   C240      1.0  0.4275727857103091  0.7391033999811141  0.17799576060331534  1.0000
  H   H157      1.0  0.3205695840167375  0.7479343964932145  0.1826165034557108  1.0000
  H   H158      1.0  0.32618740597883145  0.6779529793941097  0.1693085049461185  1.0000
  H   H159      1.0  0.4613871217727722  0.6856885053589364  0.16570037569259055  1.0000
  H   H160      1.0  0.45584373081150564  0.7563029307733644  0.18006760488524165  1.0000
  C   C241      1.0  0.9291733106652225  0.4722460586310892  0.6332318768112046  1.0000
  C   C242      1.0  0.937433101608281  0.4520589256695788  0.6005721024769743  1.0000
  C   C243      1.0  0.9443694742502183  0.41161028412314904  0.6012396734454192  1.0000
  C   C244      1.0  0.9424148190246957  0.3911332789379193  0.6345450830953357  1.0000
  C   C245      1.0  0.9352236234706152  0.41155304910207763  0.6672403180364058  1.0000
  C   C246      1.0  0.9292650484251564  0.45204696994027577  0.6666813819515562  1.0000
  H   H161      1.0  0.9380863620851742  0.46739980487618993  0.5746170133051961  1.0000
  H   H162      1.0  0.949885988039188  0.3963099827401742  0.5758142449289287  1.0000
  H   H163      1.0  0.9339436195194404  0.3963625929481224  0.6931411015268619  1.0000
  H   H164      1.0  0.9236844228951945  0.46745281948377887  0.6921212689248086  1.0000
  C   C247      1.0  0.9431672535979307  0.4042849551435308  0.8933604351303295  1.0000
  C   C248      1.0  0.9200882695088486  0.4384620220091849  0.8856877680003686  1.0000
  C   C249      1.0  0.8980581278917994  0.44234882600077396  0.8523856007790994  1.0000
  C   C250      1.0  0.8989400082534477  0.41200911595548284  0.8268765431350225  1.0000
  C   C251      1.0  0.9217378041203317  0.37781139328096947  0.8348009735412011  1.0000
  C   C252      1.0  0.9441084448242669  0.3741460005680924  0.8677852562187769  1.0000
  H   H165      1.0  0.9185924664964724  0.461709671584554  0.9055358690771026  1.0000
  H   H166      1.0  0.879781161528645  0.46846499371834743  0.8466909035511745  1.0000
  H   H167      1.0  0.92212085640512  0.35398508789447525  0.8156339756822978  1.0000
  H   H168      1.0  0.9622156642980724  0.3480337332109678  0.8732993037749665  1.0000
  C   C253      1.0  0.8496787720991096  0.5867663265595782  0.9304592998919992  1.0000
  C   C254      1.0  0.8331754104101133  0.5654674547759987  0.9600577196965956  1.0000
  C   C255      1.0  0.7905666567937389  0.5700151375687186  0.9700209938475822  1.0000
  C   C256      1.0  0.7644241885608053  0.5956654609277777  0.9501922003079245  1.0000
  C   C257      1.0  0.7810984395301148  0.6173471049181897  0.9209486319892092  1.0000
  C   C258      1.0  0.823709843944736  0.6130889554896526  0.9112892947746071  1.0000
  H   H169      1.0  0.8529890016707476  0.5452818395645984  0.9751131771799868  1.0000
  H   H170      1.0  0.7776289327113036  0.5527456027868606  0.9922427869798862  1.0000
  H   H171      1.0  0.7612082052303615  0.6377977840143532  0.90599980141714  1.0000
  H   H172      1.0  0.8365915887882527  0.6303882307493819  0.8890476207847637  1.0000
  C   C259      1.0  0.12748576301826153  0.5394679770045269  0.0036965979104803814  1.0000
  C   C260      1.0  0.171161349822744  0.5336357387388588  0.003932253698818222  1.0000
  C   C261      1.0  0.1934588415954699  0.5355895020741983  0.03702086659534087  1.0000
  C   C262      1.0  0.17234068575859762  0.5442125313961566  0.06978392043671189  1.0000
  C   C263      1.0  0.12843875664883475  0.5494498940339912  0.06970715512951697  1.0000
  C   C264      1.0  0.1058724011882517  0.5465955263031395  0.036669873544713294  1.0000
  H   H173      1.0  0.18783171142698585  0.5280951006990768  0.9784410303726415  1.0000
  H   H174      1.0  0.22720657816585832  0.5308812931867921  0.03721535195541148  1.0000
  H   H175      1.0  0.1121173890957976  0.5569152619732196  0.09493165096322764  1.0000
  H   H176      1.0  0.07205443311913484  0.551408985934858  0.03656257343749303  1.0000
  C   C265      1.0  0.3462932607144217  0.22565726662249203  0.8323227046900006  1.0000
  C   C266      1.0  0.30846438086312483  0.23706781590998965  0.8492338138388376  1.0000
  C   C267      1.0  0.309124687029461  0.26179208878520854  0.8796566017548331  1.0000
  C   C268      1.0  0.3475933572326378  0.2753331914142343  0.8930265276316561  1.0000
  C   C269      1.0  0.3854710149611467  0.26405594653482745  0.8760656343632787  1.0000
  C   C270      1.0  0.3848013651706248  0.23938833993640582  0.8454889980405526  1.0000
  H   H177      1.0  0.278549928306748  0.22752944940372277  0.8384411965784675  1.0000
  H   H178      1.0  0.27979063595448594  0.27033703135537357  0.8927325790695518  1.0000
  H   H179      1.0  0.41525313789497137  0.2745819604512775  0.8863967942270334  1.0000
  H   H180      1.0  0.4141060127366911  0.23058756813751777  0.8323956240881929  1.0000
  C   C271      1.0  0.23834525412342045  0.38158673044229463  0.08042856522242836  1.0000
  C   C272      1.0  0.25884920789701027  0.3703093236235059  0.11292444679042024  1.0000
  C   C273      1.0  0.28454608965816847  0.39675094350186835  0.13148544977704124  1.0000
  C   C274      1.0  0.28808172710883295  0.43504766613632956  0.11850764432324068  1.0000
  C   C275      1.0  0.26695701097498187  0.4465732496707277  0.08634504472015059  1.0000
  C   C276      1.0  0.24300797816334993  0.4195535425923354  0.06676062225650359  1.0000
  H   H181      1.0  0.2552845132261035  0.340942580919454  0.12349802299625834  1.0000
  H   H182      1.0  0.30075205374098407  0.3877670353824208  0.1563548048000447  1.0000
  H   H183      1.0  0.26922680031964574  0.47635861219731407  0.07650333348780425  1.0000
  H   H184      1.0  0.22714835357801133  0.42846704097486304  0.04170315769961541  1.0000
  C   C277      1.0  0.5199333789694213  0.4171692239346622  0.7463552572549792  1.0000
  C   C278      1.0  0.4849358501770336  0.39502845998064406  0.7368363421168618  1.0000
  C   C279      1.0  0.4878196233437901  0.35430532179037977  0.736959523561107  1.0000
  C   C280      1.0  0.5252597075417542  0.3355103201490242  0.7475798743709329  1.0000
  C   C281      1.0  0.5601508108537999  0.3576125660081544  0.7578685484399459  1.0000
  C   C282      1.0  0.5575586511509778  0.39852667512071394  0.7570629976168977  1.0000
  H   H185      1.0  0.45604571669633137  0.4094775749903351  0.7281376501110012  1.0000
  H   H186      1.0  0.4612972275347858  0.33753158997297644  0.7280323346774302  1.0000
  H   H187      1.0  0.589173985427275  0.34320617647019175  0.7662257361654026  1.0000
  H   H188      1.0  0.5845083324864009  0.4156213099914418  0.7649428583993892  1.0000
  C   C283      1.0  0.4679450589503645  0.12940661907247591  0.6327544609076531  1.0000
  C   C284      1.0  0.496792832113835  0.12924331541977094  0.6618678954544464  1.0000
  C   C285      1.0  0.5276113139855486  0.09959691895087364  0.6645372133951296  1.0000
  C   C286      1.0  0.5300424696522872  0.07061536596704854  0.6376536044371106  1.0000
  C   C287      1.0  0.501443459776055  0.07114318981948964  0.6083923006052366  1.0000
  C   C288      1.0  0.4703491831240683  0.10035034250931218  0.6060522036160572  1.0000
  H   H189      1.0  0.49573744731891145  0.152180578802034  0.6819916224387095  1.0000
  H   H190      1.0  0.5495679803814397  0.09935358641557279  0.6871990206779207  1.0000
  H   H191      1.0  0.503448062076385  0.049267045845180484  0.5872159596117849  1.0000
  H   H192      1.0  0.448325934111612  0.10056990235906758  0.5833261585392971  1.0000
  N   N1        1.0  0.452631515268963  0.09133668675201756  0.1607979417247436  1.0000
  C   C289      1.0  0.4227880043027334  0.059964424146900175  0.15180181976223883  1.0000
  C   C290      1.0  0.45571580597360334  0.11875671790210718  0.1293604864210791  1.0000
  C   C291      1.0  0.4947893540256715  0.07411797550769084  0.16837775602910843  1.0000
  C   C292      1.0  0.4372493531172068  0.11253150503446241  0.1935788146922668  1.0000
  H   H193      1.0  0.4207909701346885  0.038040144292909917  0.17451289031399964  1.0000
  H   H194      1.0  0.4329658163487618  0.043902655414562064  0.12674181784560612  1.0000
  H   H195      1.0  0.39039747594013735  0.07163544078479034  0.14670615973274148  1.0000
  H   H196      1.0  0.47806104143357714  0.1428008195204804  0.13532148182353398  1.0000
  H   H197      1.0  0.4673391335370684  0.10375983301093705  0.10416280025050972  1.0000
  H   H198      1.0  0.42455306542448834  0.13242295346559274  0.12287051644694613  1.0000
  H   H199      1.0  0.5183154352986811  0.0970225273458254  0.17474981749454588  1.0000
  H   H200      1.0  0.5069221663054492  0.05731292895131057  0.1444070237100501  1.0000
  H   H201      1.0  0.49387698903468574  0.05334310134380282  0.1920914803994218  1.0000
  H   H202      1.0  0.4054295765397816  0.1256994697236098  0.18887037040306853  1.0000
  H   H203      1.0  0.4587721492398853  0.13676618761330683  0.20083939000695428  1.0000
  H   H204      1.0  0.4349481203574055  0.09280374653802892  0.21795576980332676  1.0000
  N   N2        1.0  0.9802462720938567  0.7369365480198421  0.5418012281271859  1.0000
  C   C293      1.0  0.011157465511164588  0.7369295423445  0.5112380208996875  1.0000
  C   C294      1.0  0.9865304335785553  0.701540887774271  0.5646667120584973  1.0000
  C   C295      1.0  0.9369427496842426  0.7372269064394487  0.5267148631569376  1.0000
  C   C296      1.0  0.9862309751796257  0.7719654693672516  0.564622562352685  1.0000
  H   H205      1.0  0.044201788823937216  0.7367942613874536  0.521636595417353  1.0000
  H   H206      1.0  0.007406845566723552  0.7633331817853287  0.49349724968784087  1.0000
  H   H207      1.0  0.007493030849785143  0.7108016281708388  0.49352080509200374  1.0000
  H   H208      1.0  0.9821404107779264  0.6745724538133971  0.5482191566499103  1.0000
  H   H209      1.0  0.018888176732041684  0.7002708808499927  0.5764964787339217  1.0000
  H   H210      1.0  0.9635033913838776  0.7006125433316737  0.5878950040554102  1.0000
  H   H211      1.0  0.9128828903222996  0.7363648445769192  0.5491172161545412  1.0000
  H   H212      1.0  0.931523857169558  0.7114694343608128  0.5089401225719641  1.0000
  H   H213      1.0  0.930805529058382  0.7637853457568745  0.5097282602270837  1.0000
  H   H214      1.0  0.018903700882763275  0.7731823361194908  0.5757601134622816  1.0000
  H   H215      1.0  0.963937647558711  0.7725129699486621  0.5883623957556402  1.0000
  H   H216      1.0  0.9809467524554698  0.7992634168124388  0.5484045018809621  1.0000
  N   N3        1.0  0.2184442738060115  0.5255047449372222  0.48721429046825043  1.0000
  C   C297      1.0  0.260965588351187  0.540850986170302  0.4790489253547381  1.0000
  C   C298      1.0  0.19072327048090276  0.5575602912574938  0.500252364282129  1.0000
  C   C299      1.0  0.22193243539002072  0.4950163326487679  0.5160343010606252  1.0000
  C   C300      1.0  0.20016186785780787  0.5084903711563322  0.45362107875022106  1.0000
  H   H217      1.0  0.2825063421455405  0.5176931246513072  0.4684159448118857  1.0000
  H   H218      1.0  0.27574258143654107  0.5536044588539798  0.5039190381238604  1.0000
  H   H219      1.0  0.25983258239743345  0.5644782836524486  0.4580700669516034  1.0000
  H   H220      1.0  0.15854478496434754  0.5470448710657555  0.5072391986096364  1.0000
  H   H221      1.0  0.20400416211260497  0.5718314796187443  0.5250433156312659  1.0000
  H   H222      1.0  0.18700993476115202  0.5807710132345341  0.47886264227674735  1.0000
  H   H223      1.0  0.24286438032741975  0.4705295290295638  0.506990653733131  1.0000
  H   H224      1.0  0.19057972452660144  0.482455615522121  0.522821624096126  1.0000
  H   H225      1.0  0.2354891015491769  0.5068524642131953  0.5418223148994276  1.0000
  H   H226      1.0  0.19653972188272006  0.5306732026100656  0.4313808030905999  1.0000
  H   H227      1.0  0.16828395836126364  0.49633679164483313  0.4590253185009779  1.0000
  H   H228      1.0  0.22044134804203086  0.48451459332152896  0.44269034819786407  1.0000
  N   N4        1.0  0.9961114973447305  0.8447842504211347  0.3249774431988346  1.0000
  C   C301      1.0  0.0032098445499177952  0.8081898768737257  0.34594176819067407  1.0000
  C   C302      1.0  0.9502607966812563  0.8529992480650246  0.3223174151061184  1.0000
  C   C303      1.0  0.013987001933287946  0.8406784380164705  0.28756338379195434  1.0000
  C   C304      1.0  0.016959831500989342  0.8772753443921146  0.3440251966965648  1.0000
  H   H229      1.0  0.0375188109933462  0.8008710508647603  0.34815045696950975  1.0000
  H   H230      1.0  0.987584216279967  0.7831029830135255  0.3324839635554188  1.0000
  H   H231      1.0  0.9904393725474359  0.8104268478223225  0.3744310853735059  1.0000
  H   H232      1.0  0.935618100405912  0.8572436627878643  0.3499166406240007  1.0000
  H   H233      1.0  0.943799657854892  0.8798849002865156  0.30579794024317825  1.0000
  H   H234      1.0  0.9334629224518206  0.828862579249975  0.30840317911389775  1.0000
  H   H235      1.0  0.9985377660974374  0.8166757332635909  0.2722595227122254  1.0000
  H   H236      1.0  0.04850822420895673  0.8343017669886896  0.28832506936679725  1.0000
  H   H237      1.0  0.008984260395162424  0.8677448897142518  0.2709078405213645  1.0000
  H   H238      1.0  0.012016287265286696  0.9054258510151109  0.32915433366054486  1.0000
  H   H239      1.0  0.05162665383975762  0.8722586372667176  0.34634898977087863  1.0000
  H   H240      1.0  0.004243649558069551  0.8811559470628764  0.37239292231079296  1.0000
  N   N5        1.0  0.2989480334702648  0.14897045394479907  0.40667924096751684  1.0000
  C   C305      1.0  0.2770515847531474  0.14069487601083353  0.44181362857158035  1.0000
  C   C306      1.0  0.29393948979872553  0.19077773297201578  0.39727859141033967  1.0000
  C   C307      1.0  0.28047213390748693  0.12527726742860026  0.37707587166149276  1.0000
  C   C308      1.0  0.3442756349432521  0.13912433979393068  0.4104757437732117  1.0000
  H   H241      1.0  0.2769050443624741  0.10883116448429297  0.44818039483613453  1.0000
  H   H242      1.0  0.24361223684508304  0.15076562173013924  0.44090920938489236  1.0000
  H   H243      1.0  0.29216477068419944  0.1557775691976611  0.46523638072603624  1.0000
  H   H244      1.0  0.3072416921698202  0.20964471081805014  0.41905922430526726  1.0000
  H   H245      1.0  0.31014830365182267  0.197916880250503  0.3708886865923135  1.0000
  H   H246      1.0  0.25991169993425234  0.19895386416470048  0.3940556898484553  1.0000
  H   H247      1.0  0.29771000015073024  0.12907645769820167  0.3505622414657637  1.0000
  H   H248      1.0  0.2468538220777401  0.13347734031823918  0.3721432037851835  1.0000
  H   H249      1.0  0.281679735681845  0.0935421571972892  0.3838695549188976  1.0000
  H   H250      1.0  0.35970343541008987  0.1569830845159471  0.4319213099361005  1.0000
  H   H251      1.0  0.3616883537503939  0.14405032142407445  0.38420077059394336  1.0000
  H   H252      1.0  0.3488227477174868  0.10793467866405448  0.41833899152945886  1.0000
  N   N6        1.0  0.6546407640154909  0.5937480086930979  0.8582072259103137  1.0000
  C   C309      1.0  0.634091673962659  0.5936732083843176  0.8217484996883925  1.0000
  C   C310      1.0  0.6486151334840917  0.6324267933504019  0.8753079915171312  1.0000
  C   C311      1.0  0.7002806998177361  0.5854736698250561  0.8538002730040275  1.0000
  C   C312      1.0  0.6356758233354836  0.5634097330254978  0.8819432343446287  1.0000
  H   H253      1.0  0.5993432857166732  0.5983665433993997  0.8240195853999949  1.0000
  H   H254      1.0  0.6395808356018745  0.5654908252657505  0.8073315429022335  1.0000
  H   H255      1.0  0.6466714325123915  0.6172065738509026  0.8037227882868291  1.0000
  H   H256      1.0  0.6639227939776322  0.633625765158608  0.9028000685325496  1.0000
  H   H257      1.0  0.6626619541866102  0.6559895385906961  0.8581179110933953  1.0000
  H   H258      1.0  0.614532866251174  0.6395254733125566  0.879269216567884  1.0000
  H   H259      1.0  0.7162429027044357  0.5830431216007509  0.880928826181321  1.0000
  H   H260      1.0  0.7161544785213954  0.6089157357884978  0.837831267588865  1.0000
  H   H261      1.0  0.7060365118582325  0.5574656508728262  0.8391911438561661  1.0000
  H   H262      1.0  0.6504935512286556  0.5628679286633529  0.9097515156722216  1.0000
  H   H263      1.0  0.6399841478027336  0.5338612511081325  0.8698936583564629  1.0000
  H   H264      1.0  0.6012173839615125  0.5686219937396774  0.8859263901306452  1.0000
  N   N7        1.0  0.5753458866415114  0.8951603417385762  0.8391103954364822  1.0000
  C   C313      1.0  0.569533044949578  0.8925876102530521  0.8794042715157363  1.0000
  C   C314      1.0  0.5373130725961079  0.8804490684039122  0.8205167881785858  1.0000
  C   C315      1.0  0.6123895321481784  0.8712680998597322  0.8281646088686915  1.0000
  C   C316      1.0  0.5820268417084572  0.9363173759227486  0.8283611401610846  1.0000
  H   H265      1.0  0.5971491377590004  0.9046055850187487  0.8943026923505685  1.0000
  H   H266      1.0  0.5648976497899596  0.8619513782592803  0.8887226034091128  1.0000
  H   H267      1.0  0.5412947176172337  0.909587658801748  0.8884344887162208  1.0000
  H   H268      1.0  0.5409434988472287  0.88092066413896  0.7900567608440543  1.0000
  H   H269      1.0  0.5302637760145893  0.8499117539365638  0.8289850022800722  1.0000
  H   H270      1.0  0.5090228009372235  0.8984560404301918  0.8272982465962638  1.0000
  H   H271      1.0  0.6165587956568851  0.871212622937359  0.7977480238807189  1.0000
  H   H272      1.0  0.6091116324540672  0.8403799710293356  0.8371816728799581  1.0000
  H   H273      1.0  0.6421319225407126  0.8827244393549857  0.8400814071038801  1.0000
  H   H274      1.0  0.5560414401084279  0.9555964348398654  0.8384618694809503  1.0000
  H   H275      1.0  0.5839067213889709  0.9397626880572711  0.7979597166236108  1.0000
  H   H276      1.0  0.6120316512594435  0.9476219107450393  0.8398853761439644  1.0000
  N   N8        1.0  0.7953451589373856  0.4634569696302444  0.6722186677239811  1.0000
  C   C317      1.0  0.8165613539867843  0.44508697380234913  0.6403495626136146  1.0000
  C   C318      1.0  0.7626421812743176  0.4370835918922357  0.6869133148679847  1.0000
  C   C319      1.0  0.7754116054942438  0.5006280376843961  0.6603934753030929  1.0000
  C   C320      1.0  0.8267418725662726  0.4712082457742617  0.7012137506591618  1.0000
  H   H277      1.0  0.8405263391259298  0.464775881278629  0.6279651850161111  1.0000
  H   H278      1.0  0.7935584326715402  0.4379306838716417  0.6183807006110206  1.0000
  H   H279      1.0  0.8332809849849886  0.4176146387025051  0.6483899303996071  1.0000
  H   H280      1.0  0.738554761797532  0.4303433705896518  0.6656675027320446  1.0000
  H   H281      1.0  0.7766964872826211  0.4088852741448793  0.6964717968684719  1.0000
  H   H282      1.0  0.7457422396258052  0.4503318570789709  0.7107644159860436  1.0000
  H   H283      1.0  0.7510249408199114  0.49573126889872554  0.6389206987387746  1.0000
  H   H284      1.0  0.7991918895938113  0.5208944705114058  0.6485280423457026  1.0000
  H   H285      1.0  0.7597693622136615  0.5156079986693941  0.6839615570735157  1.0000
  H   H286      1.0  0.8115519384277847  0.48384042554150647  0.7261795218645594  1.0000
  H   H287      1.0  0.8511190507186429  0.49199118532939595  0.6913426773118931  1.0000
  H   H288      1.0  0.8434210553158076  0.44392702800130357  0.7100324066822822  1.0000
  N   N9        1.0  0.5933503814253097  0.32138017352340603  0.22057227795060574  1.0000
  C   C321      1.0  0.5691236241741815  0.34073368557439465  0.25025690587658667  1.0000
  C   C322      1.0  0.5933537504559758  0.27871200666420204  0.2268748783141125  1.0000
  C   C323      1.0  0.6372729319582634  0.3356725262178202  0.22047019229645273  1.0000
  C   C324      1.0  0.5735223743900634  0.33043983479008876  0.1846912701551546  1.0000
  H   H289      1.0  0.5831416744400139  0.33421754544555504  0.2777212105745643  1.0000
  H   H290      1.0  0.53569462790974  0.33077970681413466  0.25089642896186376  1.0000
  H   H291      1.0  0.5685232612093443  0.3729967314936827  0.2465542771638368  1.0000
  H   H292      1.0  0.6085920667477849  0.2627048685584197  0.2037515906961497  1.0000
  H   H293      1.0  0.6105046614745087  0.27047570676923693  0.2525536183253416  1.0000
  H   H294      1.0  0.5607006505072869  0.267453926992547  0.2295110321473707  1.0000
  H   H295      1.0  0.6560622039546512  0.3229438598832315  0.19747970232413045  1.0000
  H   H296      1.0  0.6541107926022505  0.3278654081683141  0.24644245237001058  1.0000
  H   H297      1.0  0.6384318698274101  0.36793370390968194  0.217214438983768  1.0000
  H   H298      1.0  0.5400619685493768  0.3210041606616198  0.18405161831174688  1.0000
  H   H299      1.0  0.5903058009546225  0.3154555366878135  0.16173351934265745  1.0000
  H   H300      1.0  0.5738759162661902  0.362259917222992  0.17860059797209848  1.0000
  N   N10       1.0  0.03210959212385789  0.45103140100256683  0.3546848993522998  1.0000
  C   C325      1.0  0.003525279699012396  0.42359378397971204  0.3361731069160279  1.0000
  C   C326      1.0  0.032402248139957956  0.44281368724150477  0.39468822701844974  1.0000
  C   C327      1.0  0.01733252584924605  0.4915307924693168  0.3480155017955086  1.0000
  C   C328      1.0  0.07533636245115471  0.44617627839059515  0.33984190227386835  1.0000
  H   H301      1.0  0.971009221570752  0.4255023499174135  0.3476344211211635  1.0000
  H   H302      1.0  0.014519062280621498  0.3928175246829854  0.33951143619172275  1.0000
  H   H303      1.0  0.0011592441520016372  0.429722619051476  0.30612981052507743  1.0000
  H   H304      1.0  0.00028643853963172816  0.4461223871790424  0.4069252402710054  1.0000
  H   H305      1.0  0.04343100574666292  0.4124565721104766  0.4007182376408883  1.0000
  H   H306      1.0  0.053596405117987134  0.46301111132302014  0.409524169639125  1.0000
  H   H307      1.0  0.03934914500562514  0.5131345136994314  0.3599773743788725  1.0000
  H   H308      1.0  0.9856824185651955  0.49687397692326146  0.36043222446236256  1.0000
  H   H309      1.0  0.014819435939422698  0.4981844627971084  0.3180870262194782  1.0000
  H   H310      1.0  0.07618170673352287  0.4518236967846167  0.3096562647678024  1.0000
  H   H311      1.0  0.08764301916668393  0.4160224048531136  0.3447740235237413  1.0000
  H   H312      1.0  0.09759809856881296  0.46681410341197654  0.3529864300473099  1.0000
  N   N11       1.0  0.45115011637981056  0.5807751212779189  0.5839304000639121  1.0000
  C   C329      1.0  0.47932756711797825  0.5656260415141039  0.5547773788120548  1.0000
  C   C330      1.0  0.4519275389749199  0.6238450677850258  0.5834005118436186  1.0000
  C   C331      1.0  0.46590152189369755  0.5659670045924697  0.6200159600385987  1.0000
  C   C332      1.0  0.40755333834493035  0.5675893230706425  0.5774179780598367  1.0000
  H   H313      1.0  0.4806064177899678  0.5331882917514348  0.5553978879039675  1.0000
  H   H314      1.0  0.5122707926839334  0.576007367387266  0.5583400437667645  1.0000
  H   H315      1.0  0.46847908151133755  0.5751259107422937  0.5269330764523391  1.0000
  H   H316      1.0  0.4844687896565165  0.6347171095224436  0.5877697020776298  1.0000
  H   H317      1.0  0.4406553827250283  0.6358237606605621  0.5565759741574653  1.0000
  H   H318      1.0  0.43146811281915565  0.6364369715759518  0.6054150907247343  1.0000
  H   H319      1.0  0.4640772700545071  0.5335514027376381  0.6217236112678735  1.0000
  H   H320      1.0  0.4466267874408002  0.5781376879696193  0.6429716918763634  1.0000
  H   H321      1.0  0.4994185995670631  0.5738138057187091  0.6249299278776899  1.0000
  H   H322      1.0  0.3854953781988461  0.5789621693225059  0.5988014150338067  1.0000
  H   H323      1.0  0.4057627552247172  0.5351768582815518  0.5781091994579599  1.0000
  H   H324      1.0  0.39572974370110015  0.5777450404699882  0.5500852710862797  1.0000
  N   N12       1.0  0.895464082124702  0.571157237298123  0.8026698467206909  1.0000
  C   C333      1.0  0.8602111708485529  0.5586017253371376  0.8265708464623176  1.0000
  C   C334      1.0  0.927730788393584  0.5906209888758011  0.8251941227689441  1.0000
  C   C335      1.0  0.8794454838335003  0.5988420870524206  0.7744829342317553  1.0000
  C   C336      1.0  0.9144858056246009  0.5366670366597555  0.784562899919832  1.0000
  H   H325      1.0  0.8716485222986244  0.5395622943987326  0.8495055946736085  1.0000
  H   H326      1.0  0.8361186689203363  0.5421229836167377  0.8109566202365702  1.0000
  H   H327      1.0  0.8440752010251275  0.584030476634301  0.8394667654117425  1.0000
  H   H328      1.0  0.9536338135641057  0.6027079885431804  0.8079434146342593  1.0000
  H   H329      1.0  0.9137763288445223  0.615410151187476  0.8409300762243535  1.0000
  H   H330      1.0  0.9420422176237263  0.570242324986685  0.8457322110564508  1.0000
  H   H331      1.0  0.9054011136914515  0.6094165660149218  0.7563474049759108  1.0000
  H   H332      1.0  0.8649756388511186  0.6252040468929428  0.787406836414538  1.0000
  H   H333      1.0  0.8552413246215913  0.5852478245436522  0.7567059159342234  1.0000
  H   H334      1.0  0.941173006089635  0.5450462651958976  0.7662496579714079  1.0000
  H   H335      1.0  0.8909449753890869  0.5210707189008181  0.767523416262075  1.0000
  H   H336      1.0  0.926807275578402  0.5152334131595224  0.8051827068807652  1.0000
  N   N13       1.0  0.3919353308924527  0.4449758543296333  0.03028895916023555  1.0000
  C   C337      1.0  0.39096641569908946  0.4104102128584245  0.054728439675041596  1.0000
  C   C338      1.0  0.38137243051417535  0.4802088965586193  0.05175468150361384  1.0000
  C   C339      1.0  0.360739917812854  0.44036350014129627  0.0005449915903608105  1.0000
  C   C340      1.0  0.4346108914341186  0.44898428553284075  0.014203826077401782  1.0000
  H   H337      1.0  0.41536179862798994  0.412442226016651  0.0765370019675744  1.0000
  H   H338      1.0  0.39743049449398504  0.3830374241247125  0.039318353131231554  1.0000
  H   H339      1.0  0.3596203372999512  0.4074113654640694  0.0684656840366038  1.0000
  H   H340      1.0  0.3819705216423663  0.5069477263151799  0.034238054084002156  1.0000
  H   H341      1.0  0.3492058926289231  0.4783637827523595  0.0640154305680889  1.0000
  H   H342      1.0  0.40386887277074807  0.48434221717033193  0.07481658569492056  1.0000
  H   H343      1.0  0.3619180338770743  0.46519380199862004  0.9807055748231724  1.0000
  H   H344      1.0  0.32799766351859483  0.4391725503624132  0.011784659682296583  1.0000
  H   H345      1.0  0.36651771843079745  0.41310467037816057  0.9847629485466618  1.0000
  H   H346      1.0  0.4362993080694403  0.47486433961013524  0.9955763104475785  1.0000
  H   H347      1.0  0.443787911887862  0.4227196008587538  0.9981058142342005  1.0000
  H   H348      1.0  0.4588898945622256  0.4527053703582466  0.0359939551073698  1.0000
  N   N14       1.0  0.3674878004933231  0.7954779944592084  0.07132805073338622  1.0000
  C   C341      1.0  0.37206526773196635  0.7525442155497892  0.0703731424209848  1.0000
  C   C342      1.0  0.3307142520982095  0.806131934854752  0.09445764657729838  1.0000
  C   C343      1.0  0.3608203715354031  0.8107187556744666  0.03361142625674618  1.0000
  C   C344      1.0  0.4062153502590313  0.8124744795572094  0.0868626621297337  1.0000
  H   H349      1.0  0.3435039837504865  0.7388190577751214  0.05854193415003306  1.0000
  H   H350      1.0  0.37650854005757595  0.740054363545942  0.0984885139246241  1.0000
  H   H351      1.0  0.39963063530069715  0.7432833775710338  0.0533833699359596  1.0000
  H   H352      1.0  0.32634489928897725  0.8383310659107429  0.09594446991774452  1.0000
  H   H353      1.0  0.3009961391331511  0.7935330355567436  0.08351361293072501  1.0000
  H   H354      1.0  0.33452480609783447  0.7950725423114761  0.12308754396502342  1.0000
  H   H355      1.0  0.3573671233669689  0.8431287008535149  0.03338393070473278  1.0000
  H   H356      1.0  0.3316950948973287  0.7985149787510252  0.021187330212870226  1.0000
  H   H357      1.0  0.38781943769600413  0.8031967820587386  0.015229013059744556  1.0000
  H   H358      1.0  0.4037372876273405  0.8447965693649323  0.08842398316030686  1.0000
  H   H359      1.0  0.434486743324303  0.8052486776050645  0.06988690323000135  1.0000
  H   H360      1.0  0.4122868421293519  0.8013818881742766  0.11521266948705744  1.0000
  N   N15       1.0  0.2844535091026848  0.8665737479504946  0.7409277150199075  1.0000
  C   C345      1.0  0.26234096370455245  0.8579176707689882  0.706210270886089  1.0000
  C   C346      1.0  0.3188173647440433  0.837698239225064  0.746859496103984  1.0000
  C   C347      1.0  0.2543006530280432  0.8646866878094656  0.7719954929103082  1.0000
  C   C348      1.0  0.3024386218385302  0.9061006375708027  0.7385915137972598  1.0000
  H   H361      1.0  0.23613888514849163  0.879197879656605  0.7010842322464552  1.0000
  H   H362      1.0  0.24867702497446612  0.8281436309870177  0.7067323078386696  1.0000
  H   H363      1.0  0.28431280497265365  0.8593774857165473  0.6822309483953068  1.0000
  H   H364      1.0  0.30655540254948577  0.8074722358726031  0.7489426617200304  1.0000
  H   H365      1.0  0.3419602782987769  0.8382970368647507  0.7238251367358627  1.0000
  H   H366      1.0  0.3366879503840655  0.8437165670559426  0.7725555376255908  1.0000
  H   H367      1.0  0.27046749411817667  0.8694706358774485  0.7987195562652708  1.0000
  H   H368      1.0  0.238803280565305  0.8357626502040871  0.7736818573834682  1.0000
  H   H369      1.0  0.22899895224327987  0.8874271453351654  0.7693541845488163  1.0000
  H   H370      1.0  0.32074436199537315  0.9131141781108193  0.7637062044595007  1.0000
  H   H371      1.0  0.27733506388045887  0.9288415648379992  0.7353273873660225  1.0000
  H   H372      1.0  0.3242066238391306  0.9090100688632207  0.7147207619845924  1.0000
  N   N16       1.0  0.8052387207978998  0.45764531843468786  0.13048134094290287  1.0000
  C   C349      1.0  0.7689369183385898  0.44013919019811054  0.14996084012018107  1.0000
  C   C350      1.0  0.7896198652870305  0.48272133318763616  0.10008029405127239  1.0000
  C   C351      1.0  0.8326807087521808  0.4263834492040447  0.11545129045949842  1.0000
  C   C352      1.0  0.8296773770068041  0.4815654387557049  0.15637502316834273  1.0000
  H   H373      1.0  0.7481110503222457  0.4629439984732651  0.16233910359904447  1.0000
  H   H374      1.0  0.7794092758847808  0.42027669819903674  0.17254715632748274  1.0000
  H   H375      1.0  0.7489944368586523  0.42291853658436696  0.1309810236595741  1.0000
  H   H376      1.0  0.8161555008909155  0.49570906595666975  0.08418107143162556  1.0000
  H   H377      1.0  0.7697361383851413  0.4660755402052723  0.08059063467317817  1.0000
  H   H378      1.0  0.7697109378743511  0.5071521943411225  0.11070430329003078  1.0000
  H   H379      1.0  0.8602182131424723  0.43861962148957273  0.10035982436506496  1.0000
  H   H380      1.0  0.8151778940393704  0.40754921910169517  0.09604817522112663  1.0000
  H   H381      1.0  0.845553396507239  0.4071369207375754  0.1376693088608838  1.0000
  H   H382      1.0  0.8434201428978507  0.4634577956641921  0.17900283628535818  1.0000
  H   H383      1.0  0.8095349333138041  0.5045894320376988  0.169211782767829  1.0000
  H   H384      1.0  0.8562357470131439  0.49646752658070586  0.14213162874606522  1.0000
  N   N17       1.0  0.019643590699015556  0.017277326073240173  0.6632064601519919  1.0000
  C   C353      1.0  0.9941211663421252  0.01884565372674296  0.6292228982839355  1.0000
  C   C354      1.0  0.059914539427836644  0.037792070932639366  0.657004707831258  1.0000
  C   C355      1.0  0.028541813520148507  0.9761183872918099  0.6730788975227932  1.0000
  C   C356      1.0  0.996075885460914  0.0363184871988087  0.6934569700923394  1.0000
  H   H385      1.0  0.986010489486607  0.04946344324068663  0.6214319695451199  1.0000
  H   H386      1.0  0.9639918867999983  0.0026335009401761145  0.6324175871258454  1.0000
  H   H387      1.0  0.011567314206000878  0.005624848316394093  0.6056947485982324  1.0000
  H   H388      1.0  0.054490047841563305  0.0688688164106337  0.6490046734788799  1.0000
  H   H389      1.0  0.07971937509202065  0.037748698054210994  0.6822634025299026  1.0000
  H   H390      1.0  0.078933050470537  0.0239249649619675  0.6348011411430249  1.0000
  H   H391      1.0  0.04769715221796256  0.9738466050436385  0.6986676990669088  1.0000
  H   H392      1.0  0.04643540048021766  0.9610367504593409  0.6508031716303977  1.0000
  H   H393      1.0  0.9988222416906919  0.9596959064717274  0.6777552938339054  1.0000
  H   H394      1.0  0.989732900186429  0.06769374076372969  0.687238670719204  1.0000
  H   H395      1.0  0.01432023291000295  0.03536947690969461  0.7196262870608127  1.0000
  H   H396      1.0  0.9652273471537021  0.02202200880427574  0.6986536124120784  1.0000
  N   N18       1.0  0.08963270743515772  0.0023064119336495548  0.9614424092364043  1.0000
  C   C357      1.0  0.11779246760828155  0.9733190018383178  0.943663043406176  1.0000
  C   C358      1.0  0.11510290315369565  0.028764905287827602  0.9841715593417214  1.0000
  C   C359      1.0  0.05860922086038878  0.9818362120760215  0.9849238734591  1.0000
  C   C360      1.0  0.06709325046222947  0.025363328827280984  0.9329599243168077  1.0000
  H   H397      1.0  0.14252846998417534  0.987717009945969  0.9267283974984952  1.0000
  H   H398      1.0  0.099879149071741  0.9537532339655789  0.9252068777400541  1.0000
  H   H399      1.0  0.13415966813492908  0.9544372714055233  0.9643197394568895  1.0000
  H   H400      1.0  0.09481756013965881  0.050747526445634294  0.998352215099644  1.0000
  H   H401      1.0  0.13316032395255162  0.012375235941075813  0.005617918048457904  1.0000
  H   H402      1.0  0.1382588888826446  0.045152675781133134  0.9669804955547581  1.0000
  H   H403      1.0  0.039061984304516795  0.9615189112891105  0.9685338896686367  1.0000
  H   H404      1.0  0.03658297215868389  0.0026857365597170446  0.9986696397587117  1.0000
  H   H405      1.0  0.07445149402190276  0.9641407201981651  0.006795855135390161  1.0000
  H   H406      1.0  0.0455637394051962  0.04753260805892423  0.9453514847027837  1.0000
  H   H407      1.0  0.04754484468602871  0.006466525610677731  0.9152068477686305  1.0000
  H   H408      1.0  0.08949114804777714  0.04120170266084178  0.9146890325179718  1.0000
  N   N19       1.0  0.28559348141127855  0.1236816667669024  0.8859976449772083  1.0000
  C   C361      1.0  0.33112892452232473  0.12716225087978086  0.8776174200915308  1.0000
  C   C362      1.0  0.2739999513267061  0.15156557877378146  0.9152479196917509  1.0000
  C   C363      1.0  0.2765526638375234  0.08355770157508857  0.8986705882583517  1.0000
  C   C364      1.0  0.26058642922541786  0.13249589586258778  0.8525834864040984  1.0000
  H   H409      1.0  0.34015552877444977  0.10998475896112579  0.8530041027348056  1.0000
  H   H410      1.0  0.35112175310212396  0.11662884049258083  0.9008532044836668  1.0000
  H   H411      1.0  0.33986980814938605  0.15784803413502388  0.8717094859453666  1.0000
  H   H412      1.0  0.24033777980042018  0.1484692319926655  0.9233658988408853  1.0000
  H   H413      1.0  0.293551823856976  0.14688522578658808  0.9403128122077888  1.0000
  H   H414      1.0  0.2784311910208189  0.18228258071463643  0.9059866863071873  1.0000
  H   H415      1.0  0.24229079488928718  0.07977121972010881  0.9044826880375231  1.0000
  H   H416      1.0  0.29437479348903217  0.07600006300779572  0.9241244157980202  1.0000
  H   H417      1.0  0.28567711394936984  0.06170967971056629  0.877570209543363  1.0000
  H   H418      1.0  0.2690640128879326  0.16116151855597693  0.8404631381402458  1.0000
  H   H419      1.0  0.2261283811017766  0.13309340208919124  0.8585423097773135  1.0000
  H   H420      1.0  0.26597525187452503  0.11036497684120737  0.8308865156464046  1.0000
  N   N20       1.0  0.8873772885808199  0.6380721561720516  0.04089529812685133  1.0000
  C   C365      1.0  0.9236405979540864  0.6251382865079197  0.06362045582616704  1.0000
  C   C366      1.0  0.8985643018866288  0.6354262842275523  0.001523331087256663  1.0000
  C   C367      1.0  0.8764465186147544  0.6788998757047681  0.04974032372451531  1.0000
  C   C368      1.0  0.850751608566997  0.6129289439894947  0.04861447413122266  1.0000
  H   H421      1.0  0.9520932298633576  0.6431282710263422  0.05814421490046762  1.0000
  H   H422      1.0  0.9322802396759541  0.5942030429451556  0.05810571003541099  1.0000
  H   H423      1.0  0.9162945058073998  0.6271846913145969  0.09352306864136617  1.0000
  H   H424      1.0  0.9269435291676101  0.6529477984940353  0.9946848621517846  1.0000
  H   H425      1.0  0.9052651152294512  0.6048709401302574  0.9934487320240961  1.0000
  H   H426      1.0  0.8724318692328751  0.6463998270758108  0.9836181850647657  1.0000
  H   H427      1.0  0.8686381177875784  0.682178349347001  0.0794326961021179  1.0000
  H   H428      1.0  0.8486330681578638  0.6892336422004305  0.03352986295116178  1.0000
  H   H429      1.0  0.9030948781833051  0.6986351041227403  0.0431294750702329  1.0000
  H   H430      1.0  0.8578624703438548  0.581908011124485  0.04194476715664219  1.0000
  H   H431      1.0  0.8227329087128129  0.6221914223668741  0.032112858304945036  1.0000
  H   H432      1.0  0.8415087969778472  0.6141182219938641  0.07815613573204971  1.0000
  N   N21       1.0  0.9572946589456817  0.31360099678119235  0.5130308384878466  1.0000
  C   C369      1.0  0.9619516735816825  0.2800516020084152  0.48793980794526826  1.0000
  C   C370      1.0  0.996869172282872  0.3185227837385715  0.5338714739748269  1.0000
  C   C371      1.0  0.9220695969856425  0.30652171537503803  0.5389251639088588  1.0000
  C   C372      1.0  0.9484264705391339  0.3493967974310911  0.4913928681559822  1.0000
  H   H433      1.0  0.9677330026423155  0.2523561339873435  0.5033879514200302  1.0000
  H   H434      1.0  0.9890998631572218  0.2840000501535577  0.4688571181035809  1.0000
  H   H435      1.0  0.9333178221387493  0.2763258147385662  0.47064054628089136  1.0000
  H   H436      1.0  0.9938255608443612  0.342328293619061  0.5544152619805706  1.0000
  H   H437      1.0  0.005807698949159779  0.29132107558987286  0.5489481823439499  1.0000
  H   H438      1.0  0.023479621982065435  0.326146514670933  0.5151294058864135  1.0000
  H   H439      1.0  0.9282644167006872  0.2803685004372282  0.5564914457217166  1.0000
  H   H440      1.0  0.8918487866358354  0.30196904580137873  0.524066494411143  1.0000
  H   H441      1.0  0.9171637569577127  0.33167107358326947  0.5577722287144049  1.0000
  H   H442      1.0  0.9448848883851427  0.3753206857957271  0.5094507226473298  1.0000
  H   H443      1.0  0.9188613663401485  0.34696558019066304  0.4751450002548689  1.0000
  H   H444      1.0  0.9744209922743111  0.3558286747529987  0.4716392410422816  1.0000
  N   N22       1.0  0.19150680537550746  0.8920158932023364  0.5296406279018846  1.0000
  C   C373      1.0  0.1843016958269626  0.8563257922440255  0.5517105286417877  1.0000
  C   C374      1.0  0.23727615425290227  0.8998965718772112  0.5280174052410975  1.0000
  C   C375      1.0  0.16911617142423416  0.9253417719360064  0.5468375079752716  1.0000
  C   C376      1.0  0.17533507973215973  0.8864532900927654  0.4919480118827153  1.0000
  H   H445      1.0  0.19770248178402802  0.8588384832711534  0.5798304164249103  1.0000
  H   H446      1.0  0.19940966342825517  0.8303773389560544  0.5388220824484158  1.0000
  H   H447      1.0  0.1500715992307202  0.8500876277150666  0.554526185894081  1.0000
  H   H448      1.0  0.2508797075304323  0.9032796832032192  0.555978963564153  1.0000
  H   H449      1.0  0.2549285346673542  0.8756223036221126  0.5144843633436024  1.0000
  H   H450      1.0  0.24374324953945448  0.9271585002612442  0.5123088813206917  1.0000
  H   H451      1.0  0.18108166212697993  0.9310572224801124  0.574983187207459  1.0000
  H   H452      1.0  0.13456117053939962  0.9200791998511478  0.5489355691213947  1.0000
  H   H453      1.0  0.17304490915407497  0.9526862449530223  0.5304850708435688  1.0000
  H   H454      1.0  0.14090679374102888  0.880521762504735  0.4922065102950646  1.0000
  H   H455      1.0  0.1912370079647673  0.8613930176143528  0.47812030480463  1.0000
  H   H456      1.0  0.18032955261829894  0.9129132094291601  0.4745534155100837  1.0000
  N   N23       1.0  0.3730894341878469  0.7582615993877506  0.456305702102897  1.0000
  C   C377      1.0  0.37088809683191604  0.7522318284503958  0.4161503799835259  1.0000
  C   C378      1.0  0.4168562359187168  0.7679620808281843  0.4667012182356877  1.0000
  C   C379      1.0  0.36014590710141786  0.7221433176755105  0.4755481244972487  1.0000
  C   C380      1.0  0.34441254747541095  0.7907246392673078  0.46667399835364126  1.0000
  H   H457      1.0  0.3924655871957775  0.7282560255910857  0.4072796400618881  1.0000
  H   H458      1.0  0.3800273659118928  0.778993754034604  0.4007491401295746  1.0000
  H   H459      1.0  0.33835373865607876  0.7444953670349462  0.40751613666707315  1.0000
  H   H460      1.0  0.41980008550989023  0.7724781934779679  0.49688990319182536  1.0000
  H   H461      1.0  0.43947546395415404  0.744261720454152  0.4591100296643557  1.0000
  H   H462      1.0  0.427530928568618  0.7952633326876782  0.45286899821230375  1.0000
  H   H463      1.0  0.36069091286817917  0.725741780032178  0.5059465016324346  1.0000
  H   H464      1.0  0.3812871108732152  0.6970292775884511  0.4686117843379166  1.0000
  H   H465      1.0  0.3274551596522682  0.7136992540198913  0.4679346706214058  1.0000
  H   H466      1.0  0.31112332813368654  0.7844619312984028  0.45915044441246816  1.0000
  H   H467      1.0  0.3531722113250287  0.8184236706439765  0.4525072878168249  1.0000
  H   H468      1.0  0.34515656294659935  0.7960983438124988  0.4968498898403774  1.0000
  N   N24       1.0  0.49475357790092206  0.9391125891683721  0.6092465005233498  1.0000
  C   C381      1.0  0.5020524793327384  0.8975403146894587  0.6183874259570247  1.0000
  C   C382      1.0  0.5302173513221263  0.9534373826185486  0.586536085945788  1.0000
  C   C383      1.0  0.49188684136951455  0.9618488925669944  0.6435657084464226  1.0000
  C   C384      1.0  0.45481557856012395  0.9435297337056358  0.5885825048217587  1.0000
  H   H469      1.0  0.47599642686970894  0.885872483881181  0.635638235768946  1.0000
  H   H470      1.0  0.5319750716044711  0.8931084715672477  0.6339181348651921  1.0000
  H   H471      1.0  0.5040640111751766  0.8793961101144635  0.5931436497519481  1.0000
  H   H472      1.0  0.5255615650347194  0.9845342967368111  0.5785607544925617  1.0000
  H   H473      1.0  0.5606955351629079  0.9515076504301748  0.6016943968573538  1.0000
  H   H474      1.0  0.5336805833913865  0.9364123373222173  0.5607591364661026  1.0000
  H   H475      1.0  0.48548588927344904  0.9932140961453766  0.6376492621750038  1.0000
  H   H476      1.0  0.5218684758173106  0.9599949741911659  0.659456988015378  1.0000
  H   H477      1.0  0.46606773849611277  0.9511421157109112  0.6616926273149079  1.0000
  H   H478      1.0  0.455136458705346  0.9254841626180328  0.5632993553165727  1.0000
  H   H479      1.0  0.4491922374680362  0.9743290137319854  0.5798110747589044  1.0000
  H   H480      1.0  0.4272586782587826  0.9342925082996911  0.6054993376474649  1.0000
  N   N25       1.0  0.6237864122222182  0.8012922905708065  0.2853872830453037  1.0000
  C   C385      1.0  0.610334466305789  0.8397689489636362  0.27096533575567283  1.0000
  C   C386      1.0  0.5890558686637152  0.7841665366486527  0.3071997449689492  1.0000
  C   C387      1.0  0.6612757405199468  0.8060358389345077  0.3089904247603528  1.0000
  C   C388      1.0  0.6343266419307292  0.7754312794866918  0.2542028227667429  1.0000
  H   H481      1.0  0.635853794169258  0.8537338070916521  0.25452521159062025  1.0000
  H   H482      1.0  0.6009303513385782  0.8599943431087698  0.29345865250844133  1.0000
  H   H483      1.0  0.5828689005279152  0.8366675508932426  0.25246753528248866  1.0000
  H   H484      1.0  0.579852543711267  0.8033014848707364  0.3306200879942472  1.0000
  H   H485      1.0  0.5602061856526419  0.7804089777222747  0.2901785620311812  1.0000
  H   H486      1.0  0.5981958478211283  0.7550816599292146  0.31856503907473727  1.0000
  H   H487      1.0  0.6736570759768558  0.7773828837508824  0.31903930666023467  1.0000
  H   H488      1.0  0.6540896743170869  0.8245409930695775  0.33328167432494477  1.0000
  H   H489      1.0  0.6874515172286423  0.820103692053848  0.2935698515231707  1.0000
  H   H490      1.0  0.6061966874251336  0.7696783461609483  0.23681660224774853  1.0000
  H   H491      1.0  0.6474443710483127  0.7468990664122647  0.26377914485444554  1.0000
  H   H492      1.0  0.6584014532769693  0.7888132847886896  0.23574850996927849  1.0000
  N   N26       1.0  0.7701978339307363  0.4981042452306529  0.41177827722414534  1.0000
  C   C389      1.0  0.7264685930708992  0.5044766041973728  0.4250054988424332  1.0000
  C   C390      1.0  0.7896287285764889  0.536130601461231  0.4032134246316405  1.0000
  C   C391      1.0  0.7697169948262389  0.473849954771233  0.37829866166863  1.0000
  C   C392      1.0  0.7950621726994979  0.47802712634300243  0.4407285438572857  1.0000
  H   H493      1.0  0.7067939135975119  0.5197941480852616  0.4039641850690125  1.0000
  H   H494      1.0  0.72577829745062  0.522610417557536  0.45032662208286856  1.0000
  H   H495      1.0  0.7108570732408491  0.4764118381315166  0.43188224240614875  1.0000
  H   H496      1.0  0.8229845472423393  0.5324248150677016  0.39391046800095036  1.0000
  H   H497      1.0  0.7721989360053868  0.5519019398560135  0.38100922540915505  1.0000
  H   H498      1.0  0.7897985652669082  0.5553881005682019  0.42782040783338066  1.0000
  H   H499      1.0  0.8021666252240063  0.46896240562552005  0.36729475729330335  1.0000
  H   H500      1.0  0.7509639383262849  0.4879322962870469  0.3559104208005486  1.0000
  H   H501      1.0  0.7560112105081453  0.44463797527254  0.3838801653305538  1.0000
  H   H502      1.0  0.7806901506210968  0.4497990090748023  0.4489299728383544  1.0000
  H   H503      1.0  0.7974275509768252  0.4963128468579757  0.4657691806024307  1.0000
  H   H504      1.0  0.8278228345723958  0.4716854173095186  0.4313257891681929  1.0000
  N   N27       1.0  0.7327847612767208  0.656980300893837  0.6271342466323018  1.0000
  C   C393      1.0  0.7538829777473821  0.6336345787698933  0.6562121966203952  1.0000
  C   C394      1.0  0.6968719124820402  0.6789519599860196  0.6432378954970535  1.0000
  C   C395      1.0  0.7169965202881967  0.6306918003938358  0.5982788287530071  1.0000
  C   C396      1.0  0.7633252647763091  0.6845986700636096  0.6109359378772931  1.0000
  H   H505      1.0  0.7815012871178966  0.6170951108268311  0.6451404977506293  1.0000
  H   H506      1.0  0.7318357068972033  0.6122213550457554  0.6687362154119402  1.0000
  H   H507      1.0  0.7654631739300614  0.6525602343343054  0.6787658338223502  1.0000
  H   H508      1.0  0.6798590024127894  0.6966438426420973  0.6220854856663455  1.0000
  H   H509      1.0  0.6732966106896062  0.6589703452958271  0.6558234404896924  1.0000
  H   H510      1.0  0.7074712468002662  0.6991595732700755  0.6651728277806398  1.0000
  H   H511      1.0  0.7011013027766007  0.6473059136398449  0.5757325420158684  1.0000
  H   H512      1.0  0.6933549454291477  0.609904661645572  0.6096147066596497  1.0000
  H   H513      1.0  0.7430635201208803  0.6132152905719388  0.585617472086099  1.0000
  H   H514      1.0  0.7484405147746324  0.7029404924415673  0.589055646598661  1.0000
  H   H515      1.0  0.7907675221179957  0.6690145184505871  0.5983381415562105  1.0000
  H   H516      1.0  0.7760313601966875  0.7046932841511925  0.6321192671965448  1.0000
  N   N28       1.0  0.26963120057888396  0.7678268550264307  0.3001914841546034  1.0000
  C   C397      1.0  0.23163330618796854  0.7431874749837641  0.2990547590054542  1.0000
  C   C398      1.0  0.29695106104012853  0.7590381596737102  0.2681521724179112  1.0000
  C   C399      1.0  0.29309250464636954  0.7595668892933736  0.334502780696013  1.0000
  C   C400      1.0  0.25670675774387186  0.8093993831947962  0.2992460675629207  1.0000
  H   H517      1.0  0.21045448321444013  0.7489545126822637  0.32299781764252433  1.0000
  H   H518      1.0  0.24022354102864796  0.7115956517731623  0.29970561368087356  1.0000
  H   H519      1.0  0.2128875305060418  0.7486802566945815  0.2736560285766152  1.0000
  H   H520      1.0  0.2801058915206961  0.764590028751811  0.24176849857759342  1.0000
  H   H521      1.0  0.32578338253172845  0.7774072172627805  0.2677985927791018  1.0000
  H   H522      1.0  0.3076006209955027  0.7279396707796539  0.2683464516468057  1.0000
  H   H523      1.0  0.32273639675015336  0.776480887802728  0.3357269165611838  1.0000
  H   H524      1.0  0.30181002065938867  0.7281045681323784  0.33687456069883814  1.0000
  H   H525      1.0  0.2740203850672676  0.7676923475933547  0.3591317106933749  1.0000
  H   H526      1.0  0.28451697787233915  0.8289322758770372  0.3003387581402812  1.0000
  H   H527      1.0  0.23624035677494992  0.8169463324690077  0.323234827570692  1.0000
  H   H528      1.0  0.23885675516650715  0.8167382275378527  0.2737579906121588  1.0000
  N   N29       1.0  0.08713370748839688  0.42534297216948597  0.8802029817461468  1.0000
  C   C401      1.0  0.053952500430509476  0.4431640185980937  0.8567747524929854  1.0000
  C   C402      1.0  0.08612465287351267  0.44385541660874334  0.9167900154015278  1.0000
  C   C403      1.0  0.12903649956338992  0.4313254563916278  0.863171295634069  1.0000
  C   C404      1.0  0.07933577687556204  0.38310581774144636  0.8841502775974268  1.0000
  H   H529      1.0  0.05896240020956656  0.47504039228028455  0.853078829544458  1.0000
  H   H530      1.0  0.022046405311286987  0.43941873444521945  0.8692643350353204  1.0000
  H   H531      1.0  0.053292897317904986  0.42963645918158266  0.8290499243997866  1.0000
  H   H532      1.0  0.0899855271332688  0.4759794468354435  0.9144856453843527  1.0000
  H   H533      1.0  0.055820234339797103  0.4382711342131007  0.9313467908112764  1.0000
  H   H534      1.0  0.11210683504341667  0.43298289323923694  0.9347017793369667  1.0000
  H   H535      1.0  0.1305889133466438  0.4192504744593542  0.834884120033431  1.0000
  H   H536      1.0  0.1544446304268574  0.4167191910960736  0.879503601791744  1.0000
  H   H537      1.0  0.13711199216473302  0.4628567987876455  0.861652111483488  1.0000
  H   H538      1.0  0.10308594525294246  0.3688247379094183  0.9023941725838198  1.0000
  H   H539      1.0  0.08096375463257521  0.36805247665413265  0.8571503550187403  1.0000
  H   H540      1.0  0.04767616146739151  0.37756564708871015  0.8963039671584907  1.0000
  N   N30       1.0  0.13220404544774977  0.6615915435634981  0.9689412412372694  1.0000
  C   C405      1.0  0.1281258868933126  0.6449134565371122  0.9317652982105816  1.0000
  C   C406      1.0  0.09490624006432502  0.6511598905897541  0.9913730519688675  1.0000
  C   C407      1.0  0.13511868160592821  0.7044934144058576  0.966043234816377  1.0000
  C   C408      1.0  0.1707718914045664  0.645748312275533  0.9866144638056557  1.0000
  H   H541      1.0  0.12662432766174958  0.6125091532576727  0.9329722623332695  1.0000
  H   H542      1.0  0.1555997291685658  0.652558749250899  0.914082820400763  1.0000
  H   H543      1.0  0.09890582785783852  0.6556341726992041  0.9178734343475929  1.0000
  H   H544      1.0  0.09706347210079569  0.6631229973390874  0.01971203418403844  1.0000
  H   H545      1.0  0.06516801162926456  0.6626721251325449  0.9790131030518323  1.0000
  H   H546      1.0  0.091801757672892  0.6189928176241914  0.9941021913650709  1.0000
  H   H547      1.0  0.1373397482085683  0.7179160765638777  0.9936532361140001  1.0000
  H   H548      1.0  0.10693463576994033  0.717533939617917  0.9522357027139348  1.0000
  H   H549      1.0  0.16358691140879866  0.7135100186992535  0.9502579401302967  1.0000
  H   H550      1.0  0.16986168991967543  0.6134170009844784  0.9889299130213243  1.0000
  H   H551      1.0  0.1745056839054302  0.6571987632576474  0.01490463221673366  1.0000
  H   H552      1.0  0.19976823482261286  0.6534545237387925  0.9709266919303964  1.0000
  N   N31       1.0  0.3547287146330705  0.37851567161042887  0.8221251480607309  1.0000
  C   C409      1.0  0.3245120950861737  0.41125011000670536  0.816758536137576  1.0000
  C   C410      1.0  0.33349287570118524  0.34128089558942226  0.8143715069840977  1.0000
  C   C411      1.0  0.3697434593613498  0.3783250449611468  0.8605977519201409  1.0000
  C   C412      1.0  0.39110595288351124  0.38314313054288696  0.7968797296849726  1.0000
  H   H553      1.0  0.339469938466145  0.43982608174980603  0.8224560845840061  1.0000
  H   H554      1.0  0.29677583137939756  0.4087071831219307  0.8355919048658675  1.0000
  H   H555      1.0  0.31237313108152565  0.41227434539350966  0.7880446326338331  1.0000
  H   H556      1.0  0.35541117252008886  0.3160066523236052  0.8181460777963874  1.0000
  H   H557      1.0  0.3062264869233158  0.3364989016644769  0.8331905085573099  1.0000
  H   H558      1.0  0.3215783245367694  0.34030436108139056  0.7855990785225502  1.0000
  H   H559      1.0  0.3866184993984158  0.40565104828491033  0.8673104916407227  1.0000
  H   H560      1.0  0.3917337150347809  0.35336697241914206  0.8660557883449037  1.0000
  H   H561      1.0  0.34296933117009104  0.37552488423090075  0.880370573628164  1.0000
  H   H562      1.0  0.4076654944675555  0.4111815846790181  0.801505874416833  1.0000
  H   H563      1.0  0.38103213937185776  0.38270886975831203  0.7675340159606487  1.0000
  H   H564      1.0  0.4148317621845204  0.3592160798824764  0.8007072399050624  1.0000
  N   N32       1.0  0.5591201993608471  0.37513322305388724  0.6294169726522106  1.0000
  C   C413      1.0  0.5453076747861396  0.4110869593251443  0.6099751027694282  1.0000
  C   C414      1.0  0.5876561821834237  0.35238777478194305  0.6052790790324315  1.0000
  C   C415      1.0  0.5219242891149544  0.3514730034993891  0.6391981863259749  1.0000
  C   C416      1.0  0.581703870711237  0.38565875678870565  0.6633766341955352  1.0000
  H   H565      1.0  0.527289623916506  0.4044383425319116  0.5845452751652189  1.0000
  H   H566      1.0  0.5727573330207619  0.42932753805965246  0.6018474104724986  1.0000
  H   H567      1.0  0.5243093462064948  0.42942538244449735  0.6275332212433262  1.0000
  H   H568      1.0  0.5992075488504761  0.32533138046985893  0.6192419328291376  1.0000
  H   H569      1.0  0.5714656532613466  0.34378807963525215  0.5794755511781454  1.0000
  H   H570      1.0  0.615941725133985  0.36965664686522826  0.5972892761546769  1.0000
  H   H571      1.0  0.5313444621095887  0.3233774681505568  0.6525662537293884  1.0000
  H   H572      1.0  0.5025113739124432  0.34476543178573166  0.614594454084198  1.0000
  H   H573      1.0  0.5011791751898026  0.36702746731044433  0.6590901931691915  1.0000
  H   H574      1.0  0.5899832354978821  0.3594286492213924  0.6801816844681666  1.0000
  H   H575      1.0  0.562132959582197  0.40539732648694826  0.6807387286564845  1.0000
  H   H576      1.0  0.6114953943057821  0.4011584056846467  0.6571797210971804  1.0000
  N   N33       1.0  0.9490590856846709  0.8286348745176507  0.842941110628728  1.0000
  C   C417      1.0  0.9529707623168475  0.8148280344993758  0.8047266793738437  1.0000
  C   C418      1.0  0.9489472747546392  0.8717542436869998  0.8432405319344499  1.0000
  C   C419      1.0  0.9851926412305269  0.8134746606830981  0.8645229150452596  1.0000
  C   C420      1.0  0.9091078991733543  0.8144122009040416  0.8590550172804676  1.0000
  H   H577      1.0  0.9519963466977114  0.7823611970551052  0.8033901260745442  1.0000
  H   H578      1.0  0.9830655107267097  0.8244294040620235  0.791859769400166  1.0000
  H   H579      1.0  0.9268055456513581  0.8266310861217129  0.7875380462136102  1.0000
  H   H580      1.0  0.9453731517040587  0.8831603409109609  0.8716658007692125  1.0000
  H   H581      1.0  0.9787915804006431  0.8836415235061587  0.8316711895402156  1.0000
  H   H582      1.0  0.9223811267563207  0.8841051664511663  0.8266143204993698  1.0000
  H   H583      1.0  0.9837477903482195  0.823607180839448  0.8933770524459302  1.0000
  H   H584      1.0  0.015852365595582674  0.8233867434106139  0.8529146045425788  1.0000
  H   H585      1.0  0.9859567849495509  0.7810650670236824  0.8652122770305263  1.0000
  H   H586      1.0  0.9054694124370277  0.8235811927322795  0.8882220920596321  1.0000
  H   H587      1.0  0.9077053592811207  0.7820343635094728  0.8586428273055728  1.0000
  H   H588      1.0  0.8812158384673627  0.8257472509409174  0.8434704801976913  1.0000
  N   N34       1.0  0.6070735256013641  0.9300661797435401  0.10680677959980867  1.0000
  C   C421      1.0  0.5769370071256821  0.9505347910078547  0.08216269511842156  1.0000
  C   C422      1.0  0.6125287225327533  0.8891992424222717  0.094791706432646  1.0000
  C   C423      1.0  0.5903136885964095  0.9305303519560622  0.14471420466110207  1.0000
  C   C424      1.0  0.6483006094814319  0.9498712720884861  0.10585171380874403  1.0000
  H   H589      1.0  0.5714051683570853  0.981180248423295  0.09106549529560959  1.0000
  H   H590      1.0  0.5456123979304579  0.9359867064622477  0.08223401186332047  1.0000
  H   H591      1.0  0.5885430335511848  0.9512536005054063  0.05322688450782964  1.0000
  H   H592      1.0  0.5822771022040748  0.872956156739842  0.0966130465446875  1.0000
  H   H593      1.0  0.6240338635281776  0.8875294881355885  0.06590873099948369  1.0000
  H   H594      1.0  0.6356451263404054  0.8731517879228522  0.11252626172416291  1.0000
  H   H595      1.0  0.6113943692977144  0.914109345823934  0.16395821161355095  1.0000
  H   H596      1.0  0.558670994594155  0.9169034714836014  0.14599530862338628  1.0000
  H   H597      1.0  0.5865787545653154  0.9607764210771942  0.15535023465114595  1.0000
  H   H598      1.0  0.6618997097947181  0.9503294039383468  0.07760763469513399  1.0000
  H   H599      1.0  0.6716621428933938  0.934965789035947  0.12421944706623211  1.0000
  H   H600      1.0  0.6453760059228363  0.9805958847873743  0.11533337051003167  1.0000
  N   N35       1.0  0.6402554299672626  0.21383404291145436  0.7720141920579848  1.0000
  C   C425      1.0  0.6745337279140913  0.18631629617548254  0.782508208925147  1.0000
  C   C426      1.0  0.611342875140949  0.21945511465767564  0.8035946314990795  1.0000
  C   C427      1.0  0.6164554137010974  0.19781840212530222  0.7407259804061448  1.0000
  C   C428      1.0  0.6585081916004039  0.2517623128957216  0.761238728214901  1.0000
  H   H601      1.0  0.6969824026699198  0.1813544051557972  0.7593656469463707  1.0000
  H   H602      1.0  0.6618185105015026  0.1573559949235533  0.7907040137843097  1.0000
  H   H603      1.0  0.6931680646649375  0.19744153777653736  0.8060436948438833  1.0000
  H   H604      1.0  0.5969990434014422  0.19138498454566735  0.8124530542598111  1.0000
  H   H605      1.0  0.628123007272025  0.2315863763334655  0.8277265165757012  1.0000
  H   H606      1.0  0.5849150264838764  0.23986212431341367  0.7965235667494374  1.0000
  H   H607      1.0  0.6373862111739523  0.19268180088557188  0.7165379587437407  1.0000
  H   H608      1.0  0.5905310513283275  0.21803053409043024  0.7319407447487124  1.0000
  H   H609      1.0  0.6017288116578005  0.16949067294455847  0.7481849593418112  1.0000
  H   H610      1.0  0.6333883739415112  0.273159932942247  0.7531855322081611  1.0000
  H   H611      1.0  0.6805541899388199  0.24868413913266355  0.7374953739172467  1.0000
  H   H612      1.0  0.6768883527591241  0.26465535280442976  0.7841107560638363  1.0000
  N   N36       1.0  0.11156953288160976  0.4338555110321811  0.10095856522688317  1.0000
  C   C429      1.0  0.07397591534475834  0.40972792887799975  0.09417338625446492  1.0000
  C   C430      1.0  0.09847326632052589  0.4704226107437344  0.11923888723659015  1.0000
  C   C431      1.0  0.13243969730321914  0.44312537713469075  0.06557771520675182  1.0000
  C   C432      1.0  0.1415348956784015  0.41220246531279425  0.12486023142459524  1.0000
  H   H613      1.0  0.08275046387876062  0.3819539103364247  0.08023849175522701  1.0000
  H   H614      1.0  0.05061504953129381  0.4253711205055029  0.07642270168227694  1.0000
  H   H615      1.0  0.05747031637762512  0.40203037110121237  0.12030716283602948  1.0000
  H   H616      1.0  0.12625479806780926  0.48909099599523614  0.12515727672587884  1.0000
  H   H617      1.0  0.07625258541676505  0.4877688540370899  0.10173170903257978  1.0000
  H   H618      1.0  0.08212353740064371  0.46455320028530317  0.14580324133751676  1.0000
  H   H619      1.0  0.16090190147430894  0.46134954175409715  0.06982784714978174  1.0000
  H   H620      1.0  0.1109783190345599  0.45962154729490096  0.0467546313450653  1.0000
  H   H621      1.0  0.14310116456819744  0.41616580644506324  0.05118810253585271  1.0000
  H   H622      1.0  0.17098992570789595  0.4290711383834845  0.1293536601716354  1.0000
  H   H623      1.0  0.15114144042246402  0.38389832336610336  0.11236897670276358  1.0000
  H   H624      1.0  0.12743150928059133  0.40564389209060553  0.1522285282127588  1.0000
  N   N37       1.0  0.038573010974757516  0.0831706055967838  0.43993595444278916  1.0000
  C   C433      1.0  0.014593934979397538  0.05567870596079416  0.4171253344619212  1.0000
  C   C434      1.0  0.06144760836706764  0.11072928259434556  0.41587509244407866  1.0000
  C   C435      1.0  0.06916256682613797  0.06118086862498573  0.462954075256665  1.0000
  C   C436      1.0  0.009100923374420589  0.10518124351278679  0.46384636247868133  1.0000
  H   H625      1.0  0.03599161107080029  0.03732700097065633  0.39987444104950687  1.0000
  H   H626      1.0  0.992248708793948  0.07116160292547202  0.3983365775849663  1.0000
  H   H627      1.0  0.9956661883460198  0.03546461740167928  0.4344844490770037  1.0000
  H   H628      1.0  0.03953269079019983  0.12757624719126692  0.39772330827323166  1.0000
  H   H629      1.0  0.07928986666299642  0.1322091527262712  0.4323545991970717  1.0000
  H   H630      1.0  0.08468553180060368  0.09534301189866601  0.3978830145088739  1.0000
  H   H631      1.0  0.05337360398771018  0.038818979071667314  0.4802704940178559  1.0000
  H   H632      1.0  0.08621333605248571  0.08078563243350456  0.4819414878504183  1.0000
  H   H633      1.0  0.09329336171228264  0.0457088669225485  0.4459194401256135  1.0000
  H   H634      1.0  0.026211513866441605  0.12675665137215297  0.4809095242985053  1.0000
  H   H635      1.0  0.991936557104718  0.08536074687597606  0.4829628423249606  1.0000
  H   H636      1.0  0.9851460747324781  0.12158784291153957  0.4473570071461845  1.0000
  N   N38       1.0  0.3299709701008446  0.23629147475381945  0.5814047695881834  1.0000
  C   C437      1.0  0.29565769181464785  0.2575371504154485  0.6006683037140061  1.0000
  C   C438      1.0  0.32331672151191815  0.23868855371138942  0.5412425179913984  1.0000
  C   C439      1.0  0.3300430615538151  0.19490183540015787  0.5930618888620569  1.0000
  C   C440      1.0  0.3709117815529913  0.25400308516064185  0.590610534020506  1.0000
  H   H637      1.0  0.2996206721808599  0.25608305756732397  0.6310696583793091  1.0000
  H   H638      1.0  0.26411215242995895  0.24553428809703062  0.5939548585649292  1.0000
  H   H639      1.0  0.29497788447973594  0.2890284210131966  0.5929150899508422  1.0000
  H   H640      1.0  0.34871745279437183  0.22294806125080033  0.5260151588822999  1.0000
  H   H641      1.0  0.29241653813735724  0.22600904640719735  0.5333918146829475  1.0000
  H   H642      1.0  0.3229770411873187  0.26949236843554997  0.5314676212910922  1.0000
  H   H643      1.0  0.35570864336369423  0.17799707712081184  0.5792241302136882  1.0000
  H   H644      1.0  0.29947540096646597  0.180763414408761  0.586725779545314  1.0000
  H   H645      1.0  0.33543874118199124  0.19181962935752955  0.6231554247802226  1.0000
  H   H646      1.0  0.37639984314798436  0.253290414356555  0.6207224159304779  1.0000
  H   H647      1.0  0.37196993928633454  0.28521290003877603  0.5819536911269072  1.0000
  H   H648      1.0  0.3978222679948806  0.23813945508826895  0.5775039279492243  1.0000
  N   N39       1.0  0.7521429498544369  0.03813223975528324  0.28788289744240786  1.0000
  C   C441      1.0  0.7738553811368154  0.07598846786236235  0.2903086296423695  1.0000
  C   C442      1.0  0.7060961875041353  0.045047413362704125  0.28481637724247455  1.0000
  C   C443      1.0  0.7611891148682147  0.014637188845067595  0.32126924799228673  1.0000
  C   C444      1.0  0.7674277346532781  0.016848987344737942  0.2551463250438402  1.0000
  H   H649      1.0  0.8087095440180073  0.07210110596589137  0.29225907325293615  1.0000
  H   H650      1.0  0.7632021778539471  0.09271955971190526  0.3148841819477268  1.0000
  H   H651      1.0  0.767022249343936  0.09481196107012502  0.2658688968533416  1.0000
  H   H652      1.0  0.6885587994437389  0.017181601818437642  0.28273060908167424  1.0000
  H   H653      1.0  0.6936163820250525  0.061252090429854134  0.3090479012494132  1.0000
  H   H654      1.0  0.6982275242734552  0.06296965927132825  0.26003693561910546  1.0000
  H   H655      1.0  0.7452796338707519  0.9858316549555312  0.32042185384853605  1.0000
  H   H656      1.0  0.7502682821173996  0.029771578608692728  0.3466121117792034  1.0000
  H   H657      1.0  0.7956552367959281  0.00855750502481345  0.32434439860880604  1.0000
  H   H658      1.0  0.7525752944335321  0.9876708038093657  0.2531540383990045  1.0000
  H   H659      1.0  0.8022204367768281  0.011997380748147712  0.2560456561207928  1.0000
  H   H660      1.0  0.7600494493407403  0.033053502101895615  0.22926193095656894  1.0000
  N   N40       1.0  0.035765978586233205  0.2509473333221159  0.6584910481410678  1.0000
  C   C445      1.0  0.030859066987269257  0.2724901366231923  0.6933628757143608  1.0000
  C   C446      1.0  0.05092098349938512  0.2778257283614784  0.6294714656323285  1.0000
  C   C447      1.0  0.9945086448713516  0.23488232062976047  0.6476584586383948  1.0000
  C   C448      1.0  0.06670843034822527  0.21871040263737443  0.6633994235774399  1.0000
  H   H661      1.0  0.01915700899809103  0.25326367669980593  0.7158827316654117  1.0000
  H   H662      1.0  0.007809423262844728  0.29709260237896806  0.6903581704949391  1.0000
  H   H663      1.0  0.06135133343184651  0.2848696497328284  0.7025773107803144  1.0000
  H   H664      1.0  0.08192752993496577  0.29057613320247794  0.6367958104453564  1.0000
  H   H665      1.0  0.05507063484635033  0.26252255415073017  0.6028004078299737  1.0000
  H   H666      1.0  0.028250701651788335  0.30244021994891696  0.6249610646084773  1.0000
  H   H667      1.0  0.9969875905459009  0.2181262907534993  0.6216438568237785  1.0000
  H   H668      1.0  0.970511079870259  0.2584183883863675  0.6433824767448337  1.0000
  H   H669      1.0  0.9819531279346078  0.21481358406039092  0.6690918648937262  1.0000
  H   H670      1.0  0.0565673610234243  0.19798701589271062  0.6852577454605824  1.0000
  H   H671      1.0  0.09830535858244382  0.2297089729968973  0.6713185499071153  1.0000
  H   H672      1.0  0.07071030109770793  0.20158304095543894  0.6376552537873524  1.0000
  N   N41       1.0  0.8265961183259113  0.8073494692561439  0.09251649201112833  1.0000
  C   C449      1.0  0.8606321920055814  0.8056836075301664  0.1202505143607353  1.0000
  C   C450      1.0  0.7855527493141604  0.8141043549750067  0.1110613351958496  1.0000
  C   C451      1.0  0.8254774204452114  0.7700699169242625  0.07242855411608828  1.0000
  C   C452      1.0  0.8348840428992254  0.8395384029933551  0.06630536254041619  1.0000
  H   H673      1.0  0.8921805020959673  0.8012368789621457  0.1072671417026636  1.0000
  H   H674      1.0  0.8558295512980542  0.7817181855798954  0.14049210810787094  1.0000
  H   H675      1.0  0.8620050933710903  0.833175401208131  0.13613243685815535  1.0000
  H   H676      1.0  0.7589401426759091  0.8140514411518441  0.09114313036356014  1.0000
  H   H677      1.0  0.7790830049841204  0.7910457827518569  0.13204681343913283  1.0000
  H   H678      1.0  0.7847915627584635  0.8427105265179404  0.12538037499459542  1.0000
  H   H679      1.0  0.7999078176123753  0.7700669549315895  0.05146902072577397  1.0000
  H   H680      1.0  0.8196322606059842  0.7451772129425522  0.09149180368871002  1.0000
  H   H681      1.0  0.8558309723800157  0.7643130656272702  0.05783709290729022  1.0000
  H   H682      1.0  0.809408605517974  0.8424295012315731  0.04543450026170648  1.0000
  H   H683      1.0  0.8651741240089661  0.8347686525508204  0.05124252964284248  1.0000
  H   H684      1.0  0.8375692548404361  0.8680066652882  0.08067753210053996  1.0000
  N   N42       1.0  0.7860682421825322  0.9451342033765613  0.6587726288789805  1.0000
  C   C453      1.0  0.744216911119488  0.939477100844967  0.6418192452582496  1.0000
  C   C454      1.0  0.8173062796685787  0.9542857795227546  0.6298352189066426  1.0000
  C   C455      1.0  0.7990024672380919  0.9090180800321291  0.6783734183034036  1.0000
  C   C456      1.0  0.7836877537289578  0.977849474145959  0.6849767387698871  1.0000
  H   H685      1.0  0.733217666545456  0.9663406336968199  0.6271620715826322  1.0000
  H   H686      1.0  0.7199626761124974  0.9321897473428598  0.6629944749193247  1.0000
  H   H687      1.0  0.7450724071485475  0.9152491960959709  0.6215919333209537  1.0000
  H   H688      1.0  0.8492507088889177  0.9586594251971944  0.641723411581576  1.0000
  H   H689      1.0  0.8200443308214548  0.9303679143117466  0.6093748033882562  1.0000
  H   H690      1.0  0.8086688425201742  0.9814250367146518  0.6145140538047287  1.0000
  H   H691      1.0  0.8295608458337405  0.9125985877212908  0.6930322575508141  1.0000
  H   H692      1.0  0.8029405919191867  0.8840846449809241  0.6591585402775267  1.0000
  H   H693      1.0  0.7750943914794428  0.9004328707652917  0.6993171204134829  1.0000
  H   H694      1.0  0.8142253388009639  0.9821075769693277  0.6994295734954099  1.0000
  H   H695      1.0  0.7591841213161342  0.972832894920887  0.7063096824319833  1.0000
  H   H696      1.0  0.7754629497189072  0.005839486418585115  0.6708612498255025  1.0000
  N   N43       1.0  0.45712651898745726  0.06440248114041514  0.7629047568290904  1.0000
  C   C457      1.0  0.4152808309855665  0.08270599641756826  0.7693852503220172  1.0000
  C   C458      1.0  0.46579695495789  0.03510364490182982  0.7920448300833648  1.0000
  C   C459      1.0  0.48997691118875286  0.09463843478910183  0.7636018394762184  1.0000
  C   C460      1.0  0.45751848558632885  0.04522970733468279  0.7265767153004025  1.0000
  H   H697      1.0  0.40782246785283816  0.10544325494774887  0.7482782651197253  1.0000
  H   H698      1.0  0.41369456185953846  0.09697843640086101  0.7968238577972183  1.0000
  H   H699      1.0  0.3897512922300073  0.06067748081872759  0.7687790152735139  1.0000
  H   H700      1.0  0.4418650788963258  0.01152109541986035  0.7920855118958139  1.0000
  H   H701      1.0  0.4976150071845209  0.02142877475852445  0.7887018167297549  1.0000
  H   H702      1.0  0.4647007831697618  0.04849842193877563  0.8198751946255771  1.0000
  H   H703      1.0  0.4845153487110726  0.1171647737234307  0.741997102967337  1.0000
  H   H704      1.0  0.5219453767815186  0.08186609014978319  0.7587649304650461  1.0000
  H   H705      1.0  0.4907855091201882  0.10978341799413593  0.7905761581116508  1.0000
  H   H706      1.0  0.4890046912428295  0.03190554538710355  0.7204701333007435  1.0000
  H   H707      1.0  0.4504216194784872  0.06650486954683066  0.7040441810265318  1.0000
  H   H708      1.0  0.43356562530821297  0.021748783019956752  0.7252453276122132  1.0000
  N   N44       1.0  0.38468622912655664  0.3847202215144533  0.34397261398068263  1.0000
  C   C461      1.0  0.42522847213404213  0.3641419450057146  0.3372204401615296  1.0000
  C   C462      1.0  0.35250798993720933  0.37053447490809654  0.3180558862662967  1.0000
  C   C463      1.0  0.39035332360426506  0.4270724377549583  0.3384387356467995  1.0000
  C   C464      1.0  0.37076378856378256  0.3772669149350814  0.38221670122365387  1.0000
  H   H709      1.0  0.44947601436408324  0.3722707935093738  0.35782481190489956  1.0000
  H   H710      1.0  0.4381515359244107  0.37130629104667084  0.3094969178289324  1.0000
  H   H711      1.0  0.42162713363289367  0.3319196554801032  0.3385821566170146  1.0000
  H   H712      1.0  0.32137708453592884  0.38511141960089024  0.32261452109294  1.0000
  H   H713      1.0  0.36204532705964293  0.37608439577906605  0.2890056580756633  1.0000
  H   H714      1.0  0.348045384629728  0.33849749240989835  0.32088116948915224  1.0000
  H   H715      1.0  0.3604253183827147  0.44361985816028227  0.34319088618224747  1.0000
  H   H716      1.0  0.4018091806252465  0.43392486240742867  0.3101781675647029  1.0000
  H   H717      1.0  0.41412887493122724  0.4385590316187201  0.3578035473675993  1.0000
  H   H718      1.0  0.3403057396332789  0.39247311252533734  0.3883855168915577  1.0000
  H   H719      1.0  0.3944162402927879  0.3878907735039021  0.402375842654137  1.0000
  H   H720      1.0  0.3663278321358313  0.34559957832673155  0.38752973576117156  1.0000
  N   N45       1.0  0.49273146196744055  0.9853358041034016  0.3388050402739832  1.0000
  C   C465      1.0  0.4596032386658891  0.9629542207644328  0.31999310267797365  1.0000
  C   C466      1.0  0.49569169671031776  0.024279650177701617  0.3214553660902192  1.0000
  C   C467      1.0  0.5338405562687917  0.9648218864542056  0.3354161666056504  1.0000
  C   C468      1.0  0.4818036478607877  0.9893128672406228  0.37819481455068693  1.0000
  H   H721      1.0  0.4681186640692325  0.9572256311225552  0.2907772565307388  1.0000
  H   H722      1.0  0.42869763961477  0.9787922403805871  0.32022080638086653  1.0000
  H   H723      1.0  0.4545249819121982  0.9343695632150912  0.3336602593058134  1.0000
  H   H724      1.0  0.4646297540496423  0.03951919287769945  0.321350147464101  1.0000
  H   H725      1.0  0.5184763597825657  0.043180605667556105  0.3360767762347927  1.0000
  H   H726      1.0  0.505963202309171  0.02208363933469104  0.2922760855784525  1.0000
  H   H727      1.0  0.5599114368508593  0.9823959842917378  0.3469887734512017  1.0000
  H   H728      1.0  0.5417999697621827  0.9587773783180692  0.3061184683860291  1.0000
  H   H729      1.0  0.5335849452033828  0.9363416710614774  0.35022652808606686  1.0000
  H   H730      1.0  0.505352110312984  0.00708241315354341  0.3931222182773986  1.0000
  H   H731      1.0  0.48004183169403525  0.9603697761837927  0.39223150175372545  1.0000
  H   H732      1.0  0.45048860888182285  0.0035229870928301654  0.3819415099654432  1.0000
  N   N46       1.0  0.00623880986635572  0.2572110347470296  0.9083737019291405  1.0000
  C   C469      1.0  0.024617770486122126  0.2783201067720429  0.8766768983671017  1.0000
  C   C470      1.0  0.9775944385644211  0.22671035770236594  0.8948874038298122  1.0000
  C   C471      1.0  0.9822316735752347  0.28488045627543673  0.9317080759124736  1.0000
  C   C472      1.0  0.040602607546466045  0.23891492350790222  0.930140554496321  1.0000
  H   H733      1.0  0.9996475679365772  0.2906123706332167  0.8583447417630308  1.0000
  H   H734      1.0  0.0447289450379631  0.25875854310475077  0.8595904752458376  1.0000
  H   H735      1.0  0.04502933534953524  0.3025385101912119  0.8857974319667637  1.0000
  H   H736      1.0  0.9636651301978386  0.20964790467097194  0.9179508947478533  1.0000
  H   H737      1.0  0.9510007477457415  0.23962209431549927  0.8786723070029191  1.0000
  H   H738      1.0  0.9943797412896748  0.2059384836575013  0.8763321859159383  1.0000
  H   H739      1.0  0.9691575696484375  0.27023430142148736  0.9565900272143089  1.0000
  H   H740      1.0  0.955042423364613  0.2981015587608011  0.9165869381578545  1.0000
  H   H741      1.0  0.002368743139394613  0.30928985510002305  0.9411760113075984  1.0000
  H   H742      1.0  0.028204888198700706  0.22368828080369157  0.9549635894123156  1.0000
  H   H743      1.0  0.06376305352016276  0.2609944285570063  0.93946520808646  1.0000
  H   H744      1.0  0.05845003963263083  0.2169766003550905  0.9136282180026359  1.0000
  N   N47       1.0  0.3331161913897657  0.5619092078459239  0.23013852872150048  1.0000
  C   C473      1.0  0.2972931508294245  0.5377676672778319  0.21819642974929535  1.0000
  C   C474      1.0  0.3232794313298862  0.6034620190349914  0.22279663791253046  1.0000
  C   C475      1.0  0.371419946832642  0.5502961862475981  0.20946176603727032  1.0000
  C   C476      1.0  0.3405776617115933  0.5561844892890095  0.2699666309371923  1.0000
  H   H745      1.0  0.30389069278589526  0.506134765716366  0.2226635246111699  1.0000
  H   H746      1.0  0.2908887053005229  0.5416337485069141  0.18818518130680342  1.0000
  H   H747      1.0  0.2677466097312268  0.5455561213189505  0.2331995520826094  1.0000
  H   H748      1.0  0.29506887748217275  0.6134823544429208  0.23863049824163676  1.0000
  H   H749      1.0  0.350105591205804  0.6224729627330392  0.23052342312783813  1.0000
  H   H750      1.0  0.3168868184871809  0.6086636498585389  0.19308548680276674  1.0000
  H   H751      1.0  0.39884627537090056  0.5687349543736901  0.21678486636621624  1.0000
  H   H752      1.0  0.36641143942725  0.5529798636406409  0.1792116577342224  1.0000
  H   H753      1.0  0.38051155980350665  0.5195125502084726  0.21533404125218733  1.0000
  H   H754      1.0  0.312332204548387  0.5647901675265374  0.2864898885894279  1.0000
  H   H755      1.0  0.36734017695495114  0.5742695155864241  0.2796666560990876  1.0000
  H   H756      1.0  0.34853131626639905  0.5252443855751964  0.2765600319947762  1.0000
  N   N48       1.0  0.5188308563304045  0.5776850557527322  0.14155971584571847  1.0000
  C   C477      1.0  0.49106703602722246  0.5769652206557094  0.17429309172901186  1.0000
  C   C478      1.0  0.4983116480267631  0.6008628201468504  0.11202925760668214  1.0000
  C   C479      1.0  0.526430718786475  0.5374706761391767  0.1285999866731946  1.0000
  C   C480      1.0  0.5596301103333072  0.5953637943675786  0.15131418422641957  1.0000
  H   H757      1.0  0.460231386034609  0.5633084295681275  0.16801194839742872  1.0000
  H   H758      1.0  0.4841184022485914  0.6069883854546027  0.18430463114143414  1.0000
  H   H759      1.0  0.505659968990698  0.5601441504180539  0.19737743122277618  1.0000
  H   H760      1.0  0.5177824540320517  0.6010657604621056  0.08648257322228002  1.0000
  H   H761      1.0  0.4666699454897896  0.5892413045636848  0.10499901716658244  1.0000
  H   H762      1.0  0.4935435926053586  0.6318201056402318  0.1203437591763341  1.0000
  H   H763      1.0  0.5489495980164969  0.5368662942182904  0.10500694177428338  1.0000
  H   H764      1.0  0.4967647007646119  0.5237258678819985  0.11920169764550302  1.0000
  H   H765      1.0  0.5400762549017311  0.5187753905326216  0.15080233715700975  1.0000
  H   H766      1.0  0.5816995202211246  0.5952961255088168  0.12744200527099192  1.0000
  H   H767      1.0  0.5755063472768596  0.5791181978731296  0.1740966171433383  1.0000
  H   H768      1.0  0.5554654128391583  0.6263033523085668  0.1598826808766901  1.0000
