data_image0
_chemical_formula_structural       FeS2FeS2FeSFeS3FeS2FeS2FeSFeS3FeS2FeS2FeSFeS3FeS2FeS2FeSFeS3FeS2FeS2FeSFeS3FeS2FeS2FeSFeS3FeS2FeS2FeSFeS3FeS2FeS2FeSFeS3FeS2FeS2FeSFeS3C6H4C6H4C6H4C6H4C6H4C6H4C6H4C6H4C6H4C6H4C6H4C6H4C6H4C6H4C6H4C6H4C6H4C6H4NC4H12NC4H12NC4H12NC4H12NC4H12NC4H12NC4H12NC4H12NC4H12NC4H12NC4H12NC4H12NC4H12NC4H12NC4H12NC4H12NC4H12NC4H12
_chemical_formula_sum              "Fe36 S72 C180 H288 N18"
_cell_length_a       35.70603807548564
_cell_length_b       37.27269157582396
_cell_length_c       30.635686889635792
_cell_angle_alpha    93.67456993559051
_cell_angle_beta     85.20438578557139
_cell_angle_gamma    116.64061093636394

_space_group_name_H-M_alt    "P 1"
_space_group_IT_number       1

loop_
  _space_group_symop_operation_xyz
  'x, y, z'

loop_
  _atom_site_type_symbol
  _atom_site_label
  _atom_site_symmetry_multiplicity
  _atom_site_fract_x
  _atom_site_fract_y
  _atom_site_fract_z
  _atom_site_occupancy
  Fe  Fe1       1.0  0.6200881381111683  0.8651643838915466  0.2728197407152265  1.0000
  S   S1        1.0  0.60365697551219  0.8809678102274897  0.3411418861739412  1.0000
  S   S2        1.0  0.6770716547207649  0.9138936704063546  0.23934321554428614  1.0000
  Fe  Fe2       1.0  0.5393618495987604  0.7872384694150929  0.2704506705679475  1.0000
  S   S3        1.0  0.516028372032858  0.79728326093988  0.3381492980946564  1.0000
  S   S4        1.0  0.4966649215482044  0.7355390579364364  0.22914962768828384  1.0000
  Fe  Fe3       1.0  0.5394870817447535  0.8606123894559109  0.31749129658367187  1.0000
  S   S5        1.0  0.5056385029298789  0.8984194506553284  0.3321916877327457  1.0000
  Fe  Fe4       1.0  0.5825186771530436  0.8163812544273068  0.35457027177696787  1.0000
  S   S6        1.0  0.5996853446523003  0.7994954563515246  0.4162234842823133  1.0000
  S   S7        1.0  0.5571620019088194  0.8491512308478606  0.24827795091019403  1.0000
  S   S8        1.0  0.6046056646052759  0.801579813209268  0.28796542661564944  1.0000
  Fe  Fe5       1.0  0.6088032808513353  0.8304485356188671  0.7114262964130748  1.0000
  S   S9        1.0  0.5917172069716795  0.8814130409258079  0.710474269016985  1.0000
  S   S10       1.0  0.6681734671867621  0.8346049990398614  0.7365590467469487  1.0000
  Fe  Fe6       1.0  0.5256461370616476  0.7694696151486571  0.6769245693426963  1.0000
  S   S11       1.0  0.5013240830422679  0.8150809993318024  0.6738546936729839  1.0000
  S   S12       1.0  0.4878569668817701  0.7067877671324483  0.6509226077985601  1.0000
  Fe  Fe7       1.0  0.5659514501157686  0.8543950539031794  0.645452971448657  1.0000
  S   S13       1.0  0.5688237931505529  0.8890953283755828  0.5868256095752089  1.0000
  Fe  Fe8       1.0  0.5290707033466683  0.8372169549741827  0.7387777741055173  1.0000
  S   S14       1.0  0.49941861796066167  0.8571265466053308  0.7966009192165705  1.0000
  S   S15       1.0  0.5884397209134719  0.807021627282082  0.6437233598841002  1.0000
  S   S16       1.0  0.5478001424121006  0.7879235191894024  0.7446585366358566  1.0000
  Fe  Fe9       1.0  0.31200554540026104  0.5523045442888133  0.3252415048403819  1.0000
  S   S17       1.0  0.2599340722694368  0.5643850550308626  0.3571707105703707  1.0000
  S   S18       1.0  0.378797693747724  0.5872269685270521  0.3444458588037579  1.0000
  Fe  Fe10      1.0  0.2543436630937905  0.4828620805781575  0.2677448954756725  1.0000
  S   S19       1.0  0.19640737197333943  0.4887801776026221  0.2936360026101681  1.0000
  S   S20       1.0  0.26745927427930954  0.4432422908822851  0.215905016514878  1.0000
  Fe  Fe11      1.0  0.23686176481882715  0.5553533542540805  0.28967448332770185  1.0000
  S   S21       1.0  0.22047800293559444  0.5998139124298209  0.26049838887862165  1.0000
  Fe  Fe12      1.0  0.2234695162811126  0.4973777216193932  0.35953225152601587  1.0000
  S   S22       1.0  0.18304573897624463  0.4693982351469116  0.42001382551429756  1.0000
  S   S23       1.0  0.29200769484799294  0.5488021445673233  0.25735505142564225  1.0000
  S   S24       1.0  0.27786414900975753  0.48587389558814753  0.33425768961930863  1.0000
  Fe  Fe13      1.0  0.27567224645654126  0.5626268418076877  0.7285278651861269  1.0000
  S   S25       1.0  0.2076937327860405  0.5452602268315337  0.7466133217750337  1.0000
  S   S26       1.0  0.32483970738285856  0.6083708410174149  0.770163743238776  1.0000
  Fe  Fe14      1.0  0.25731084001604937  0.511179253443913  0.6451652848738526  1.0000
  S   S27       1.0  0.18787976215166255  0.489359019839905  0.6561622840487082  1.0000
  S   S28       1.0  0.2873257875974991  0.4941590893681037  0.5853324468995501  1.0000
  Fe  Fe15      1.0  0.2040409495441664  0.553310749374392  0.675416235793955  1.0000
  S   S29       1.0  0.1695176523911983  0.5855385852200135  0.6520570269475356  1.0000
  Fe  Fe16      1.0  0.19823472534716197  0.4829866568273912  0.7261279793172465  1.0000
  S   S30       1.0  0.15201179521095062  0.4269962013382454  0.7608324888863812  1.0000
  S   S31       1.0  0.27283547200088304  0.57580332576914  0.659008027389438  1.0000
  S   S32       1.0  0.2668948199118272  0.4997541650072222  0.7133976649639556  1.0000
  Fe  Fe17      1.0  0.28744658278796437  0.8793994480256544  0.3769922014613506  1.0000
  S   S33       1.0  0.287446070072616  0.8979807820414958  0.30874927003612823  1.0000
  S   S34       1.0  0.32922079508370994  0.9206824763139705  0.4278125449820872  1.0000
  Fe  Fe18      1.0  0.2302789263879238  0.7912218092098793  0.3581719447706399  1.0000
  S   S35       1.0  0.22434475322747466  0.8019190685636858  0.2883433138488288  1.0000
  S   S36       1.0  0.20680045220883017  0.732060674460744  0.3914419611490666  1.0000
  Fe  Fe19      1.0  0.2934052733273482  0.8419844187774612  0.28773175029875847  1.0000
  S   S37       1.0  0.3380820427352301  0.8370877436153598  0.23454519482243577  1.0000
  Fe  Fe20      1.0  0.2183804639594873  0.8566012790910654  0.31513435517170596  1.0000
  S   S38       1.0  0.16899476688737705  0.8707215926714577  0.290628250891582  1.0000
  S   S39       1.0  0.2998444161846511  0.8270856143346218  0.35530050936428603  1.0000
  S   S40       1.0  0.21763172711263193  0.8423146551640903  0.3854343694387796  1.0000
  Fe  Fe21      1.0  0.3287970937934632  0.8911609422372877  0.7119709769103518  1.0000
  S   S41       1.0  0.2991517591019611  0.8278869298718816  0.7340726982824409  1.0000
  S   S42       1.0  0.38875331235710847  0.9365243168460278  0.7391835436511235  1.0000
  Fe  Fe22      1.0  0.25738625366464  0.8768424911621598  0.6557312418835186  1.0000
  S   S43       1.0  0.2210763644249276  0.8121144489413004  0.6733133528932072  1.0000
  S   S44       1.0  0.22959440237625803  0.9017706623339399  0.6103194033924639  1.0000
  Fe  Fe23      1.0  0.23979222984967014  0.8349829555113724  0.7416067452801914  1.0000
  S   S45       1.0  0.20052661010299946  0.8141975435302083  0.8044881647006265  1.0000
  Fe  Fe24      1.0  0.28367476686354753  0.8114706800612471  0.6639636587860679  1.0000
  S   S46       1.0  0.29886590835009763  0.7663926939290954  0.6243884381053031  1.0000
  S   S47       1.0  0.2708273335305401  0.899847996886259  0.72468976229284  1.0000
  S   S48       1.0  0.3187987403685996  0.8744928000690129  0.6410472334145993  1.0000
  Fe  Fe25      1.0  0.7904312712532479  0.9628909725107154  0.929191808051066  1.0000
  S   S49       1.0  0.7783509884174988  0.9759597115711013  0.00038106694765671634  1.0000
  S   S50       1.0  0.7584023815201347  0.9746224628697538  0.875079251220714  1.0000
  Fe  Fe26      1.0  0.8555380187453581  0.9356918594238303  0.9480506113999525  1.0000
  S   S51       1.0  0.8484102115721669  0.9449428697263685  0.020507120401964007  1.0000
  S   S52       1.0  0.9035600679230967  0.9190441155345233  0.9132957087805544  1.0000
  Fe  Fe27      1.0  0.7793547113263374  0.9174714435253576  0.011252325008046515  1.0000
  S   S53       1.0  0.7301382345667253  0.8671180612448601  0.05074272891740818  1.0000
  Fe  Fe28      1.0  0.8485441034387653  0.0025521309778524515  0.0034670068414115462  1.0000
  S   S54       1.0  0.8909205205996644  0.05552782183047506  0.04410777411468203  1.0000
  S   S55       1.0  0.7865220189353914  0.9024657366171887  0.9400773553237329  1.0000
  S   S56       1.0  0.8605407827391186  0.9951810823839502  0.931354404587625  1.0000
  Fe  Fe29      1.0  0.13677515150418332  0.29010740719493294  0.0423302501253191  1.0000
  S   S57       1.0  0.2001329285374738  0.30370413431018006  0.009916070263629617  1.0000
  S   S58       1.0  0.11999236318206043  0.31217585736413106  0.10799600382770111  1.0000
  Fe  Fe30      1.0  0.09036977147591521  0.2389324442783137  0.9659782290628616  1.0000
  S   S59       1.0  0.1492560072944547  0.2485761498218162  0.9259607609212953  1.0000
  S   S60       1.0  0.027761175071499222  0.20182197146603217  0.937484707834135  1.0000
  Fe  Fe31      1.0  0.17136594579501938  0.23878356107829934  0.9882973714879669  1.0000
  S   S61       1.0  0.2079132585859431  0.2026696989894581  0.9784766330877813  1.0000
  Fe  Fe32      1.0  0.1743982096762413  0.3127090566544662  0.9493019265547257  1.0000
  S   S62       1.0  0.22067030545532898  0.36215357626064115  0.9060742308969205  1.0000
  S   S63       1.0  0.11026216684478261  0.22367753325545653  0.0267697769040105  1.0000
  S   S64       1.0  0.11312564463640028  0.30453589178216434  0.9833180490805206  1.0000
  Fe  Fe33      1.0  0.13369352474740998  0.9912841286569777  0.05331563218151958  1.0000
  S   S65       1.0  0.09245767697372803  0.9637854053842505  0.9975404014727434  1.0000
  S   S66       1.0  0.13630536516191036  0.046406310637518315  0.09006458569592213  1.0000
  Fe  Fe34      1.0  0.15393546038684022  0.9205570789400551  0.05763602472210762  1.0000
  S   S67       1.0  0.11246303511662446  0.8856443564150335  0.0034959591076078045  1.0000
  S   S68       1.0  0.1975817111186371  0.901845069783399  0.08795702373776229  1.0000
  Fe  Fe35      1.0  0.14158349086970934  0.9448737023593073  0.9702880962260232  1.0000
  S   S69       1.0  0.1644464587480178  0.9524350267739303  0.8991176637225081  1.0000
  Fe  Fe36      1.0  0.06706414313693813  0.9073445937606348  0.03529919332245779  1.0000
  S   S70       1.0  0.9974132247478813  0.8730928125118026  0.04875480640825918  1.0000
  S   S71       1.0  0.18594497621349199  0.9787262481486866  0.02252846218493132  1.0000
  S   S72       1.0  0.10545654861548637  0.9360260037912717  0.09307345662208863  1.0000
  C   C1        1.0  0.1860516100017074  0.15854584654764675  0.008519015219059733  1.0000
  C   C2        1.0  0.19279978869283357  0.12555706486740473  0.993108114766738  1.0000
  C   C3        1.0  0.17653413299724202  0.09048944114050486  0.017409684282510884  1.0000
  C   C4        1.0  0.1545362927551358  0.08885444139902199  0.05777327733345894  1.0000
  C   C5        1.0  0.14760013777108072  0.12172829116488743  0.07309669668650143  1.0000
  C   C6        1.0  0.16290406761143994  0.15637201775807677  0.048247557879456116  1.0000
  H   H1        1.0  0.21061816954657298  0.12710796242325048  0.9623352520427834  1.0000
  H   H2        1.0  0.18191305328650711  0.06514725370505875  0.0053821320940901085  1.0000
  H   H3        1.0  0.13063412326671436  0.1205576398274808  0.10435814290470498  1.0000
  H   H4        1.0  0.15802663137480935  0.18189621134815323  0.06055647969679427  1.0000
  C   C7        1.0  0.9285088718363586  0.9038869450006638  0.9499301683719762  1.0000
  C   C8        1.0  0.9682856574940842  0.9063463692568589  0.9381791590455915  1.0000
  C   C9        1.0  0.9894594157668942  0.896461232066075  0.96828309753422  1.0000
  C   C10       1.0  0.9706787271204504  0.8837449849297463  0.010001543910130417  1.0000
  C   C11       1.0  0.9305074781784214  0.8804212253140936  0.021356857760417958  1.0000
  C   C12       1.0  0.9094741696222027  0.8905595299302694  0.9913685755464738  1.0000
  H   H5        1.0  0.9829309147825395  0.9161574394971137  0.9059402053222012  1.0000
  H   H6        1.0  0.020005358755334157  0.8979773973558931  0.9588988273736213  1.0000
  H   H7        1.0  0.916022740678526  0.8704202493995685  0.0535149431020312  1.0000
  H   H8        1.0  0.8783034366819249  0.8874531467154276  0.9999590530110863  1.0000
  C   C13       1.0  0.9291522408479708  0.09549115879202408  0.013899970729329025  1.0000
  C   C14       1.0  0.9236470968818438  0.10063850952907051  0.9705029003863472  1.0000
  C   C15       1.0  0.9543096950352375  0.13318668802301384  0.9471801947854326  1.0000
  C   C16       1.0  0.9908273584547056  0.16038377690133296  0.9669308069655076  1.0000
  C   C17       1.0  0.9964842936904308  0.15493568251408413  0.010201265493693823  1.0000
  C   C18       1.0  0.9655334028605601  0.1227938698248453  0.03378466142869052  1.0000
  H   H9        1.0  0.8952064127499182  0.08031381457201395  0.9552825597843587  1.0000
  H   H10       1.0  0.9495553708632062  0.13748441061046013  0.9138482669903519  1.0000
  H   H11       1.0  0.02425817214755588  0.17579520421630812  0.025798812022088224  1.0000
  H   H12       1.0  0.9697789052258083  0.11901212616127323  0.06745793808572476  1.0000
  C   C19       1.0  0.18603449068239217  0.8501990093928206  0.829983043552724  1.0000
  C   C20       1.0  0.17725590335304842  0.8498665588276625  0.8754133519132332  1.0000
  C   C21       1.0  0.16964360794146133  0.8806443024376288  0.8968281036545028  1.0000
  C   C22       1.0  0.17047507874635545  0.9117591439446802  0.8728615546407963  1.0000
  C   C23       1.0  0.17867780131936684  0.911730271414425  0.8273431556978549  1.0000
  C   C24       1.0  0.18626215451767603  0.880960768475604  0.8059407436349911  1.0000
  H   H13       1.0  0.17721322696837388  0.8262466450061005  0.8942206745347052  1.0000
  H   H14       1.0  0.16433269231984313  0.8807881460242827  0.9319598945276053  1.0000
  H   H15       1.0  0.17911060087296224  0.9355489960079818  0.8085571014339341  1.0000
  H   H16       1.0  0.19174186290412767  0.8808334910354876  0.7707422148951044  1.0000
  C   C25       1.0  0.17741437413727618  0.8812284351017335  0.23481549246593303  1.0000
  C   C26       1.0  0.21642984737509188  0.8901405009340272  0.21307065005206277  1.0000
  C   C27       1.0  0.2224946676215501  0.8971495620365527  0.16805724837690264  1.0000
  C   C28       1.0  0.18951288205110453  0.894996993798431  0.14459912948977752  1.0000
  C   C29       1.0  0.15062448296518252  0.8866144967369002  0.16637475254153633  1.0000
  C   C30       1.0  0.1446467930434247  0.8799250298196546  0.2115546720916025  1.0000
  H   H17       1.0  0.241895327416401  0.8914650808384874  0.23089966890581648  1.0000
  H   H18       1.0  0.2527466788540611  0.9039951201278797  0.15132024370390315  1.0000
  H   H19       1.0  0.12483431524027014  0.8842186827759324  0.1482738559725878  1.0000
  H   H20       1.0  0.11433502519491258  0.8727700043512368  0.2283219654590418  1.0000
  C   C31       1.0  0.3023924956915151  0.9212150061613864  0.4781545000568883  1.0000
  C   C32       1.0  0.32399162802897175  0.9311203395977053  0.5166070283481439  1.0000
  C   C33       1.0  0.3020446967002012  0.9274555689685828  0.5575235029856823  1.0000
  C   C34       1.0  0.2585365345336917  0.9139450299002604  0.5599190611832902  1.0000
  C   C35       1.0  0.23743334175858552  0.9066224367296685  0.5214417771420536  1.0000
  C   C36       1.0  0.25933820426063137  0.9100753034887649  0.4805483308532417  1.0000
  H   H21       1.0  0.3574742108087116  0.9405808560417227  0.514729634523533  1.0000
  H   H22       1.0  0.3186629902902613  0.9346580223632381  0.5871770977095073  1.0000
  H   H23       1.0  0.20387921867205241  0.896870105255484  0.5232440861109469  1.0000
  H   H24       1.0  0.2428846026286934  0.9041112861712371  0.45094030509748295  1.0000
  C   C37       1.0  0.17082841847853683  0.4102310690501139  0.8026585223708734  1.0000
  C   C38       1.0  0.1435850644300564  0.37539379769537573  0.8249719315754575  1.0000
  C   C39       1.0  0.1583552705519638  0.360621704040265  0.8572867331381727  1.0000
  C   C40       1.0  0.20059053759023543  0.3804593833446253  0.8670049095636166  1.0000
  C   C41       1.0  0.2278389535313519  0.4151233718419304  0.8445074596166466  1.0000
  C   C42       1.0  0.21295711413625043  0.43015750135352726  0.8126705684388951  1.0000
  H   H25       1.0  0.11093995217600836  0.35987527938173564  0.8173854424180307  1.0000
  H   H26       1.0  0.1371374434552878  0.33383816448114545  0.874490321708271  1.0000
  H   H27       1.0  0.26046702432276125  0.4307421085433306  0.852135976558725  1.0000
  H   H28       1.0  0.23409655860284162  0.45728400861617846  0.7961265600713776  1.0000
  C   C43       1.0  0.2038995311887152  0.6357879016305256  0.6414308460861288  1.0000
  C   C44       1.0  0.19254727523990223  0.6662515948964195  0.655451771482904  1.0000
  C   C45       1.0  0.22114555957586027  0.7066594843084115  0.6493963524090978  1.0000
  C   C46       1.0  0.26066954206527126  0.7164444073343924  0.6283451291981559  1.0000
  C   C47       1.0  0.27100770869818286  0.6858973321914423  0.6121245317537616  1.0000
  C   C48       1.0  0.24291332204437754  0.6456948290966136  0.6192126094122058  1.0000
  H   H29       1.0  0.16222366800541801  0.6586567373001817  0.6724263035567386  1.0000
  H   H30       1.0  0.21285743965676956  0.7300629696386293  0.6619849815639163  1.0000
  H   H31       1.0  0.3015105179971973  0.6933491807399281  0.5956841037762363  1.0000
  H   H32       1.0  0.2516148786648624  0.6224239120152262  0.6075727762502255  1.0000
  C   C49       1.0  0.22600727655664124  0.40773191208949483  0.1857752035740456  1.0000
  C   C50       1.0  0.18410518959510305  0.3984805906347222  0.19790237768517208  1.0000
  C   C51       1.0  0.1517744665960863  0.3691035084493887  0.17382051259661954  1.0000
  C   C52       1.0  0.1612080399531422  0.34927289182018917  0.13721310575308432  1.0000
  C   C53       1.0  0.2031335779966353  0.35883156964715185  0.1249301012023255  1.0000
  C   C54       1.0  0.2353915810798038  0.3877888448763507  0.14929715020279077  1.0000
  H   H33       1.0  0.17657578424132558  0.4135800194527972  0.2260946669309664  1.0000
  H   H34       1.0  0.11941445914069404  0.3617866361092995  0.18360856629252756  1.0000
  H   H35       1.0  0.2107432018349948  0.34357445593127794  0.09704567758483376  1.0000
  H   H36       1.0  0.26771964370738893  0.39475369531319193  0.13980142653468197  1.0000
  C   C55       1.0  0.21475215087983587  0.6350619473654481  0.297644690479894  1.0000
  C   C56       1.0  0.21875412611434975  0.6709285878957862  0.28154129605124034  1.0000
  C   C57       1.0  0.21642996433430478  0.7006328652222265  0.31035576448618235  1.0000
  C   C58       1.0  0.20913375041354143  0.694410010698127  0.3553734961531041  1.0000
  C   C59       1.0  0.20439728213558417  0.6581930127830484  0.371607428012727  1.0000
  C   C60       1.0  0.20746910849886122  0.6285876520573427  0.3427471466018084  1.0000
  H   H37       1.0  0.2241712979481403  0.675925680150833  0.2466879096467516  1.0000
  H   H38       1.0  0.21998397370891312  0.7281801822504874  0.29753383511636045  1.0000
  H   H39       1.0  0.19843143774842165  0.6531028492514993  0.40638791675503455  1.0000
  H   H40       1.0  0.20334274900461285  0.6005128224250146  0.35518671132294105  1.0000
  C   C61       1.0  0.21248011593910182  0.47365414317567067  0.4647912068823365  1.0000
  C   C62       1.0  0.25631438820699337  0.49447759715886785  0.4614551418108182  1.0000
  C   C63       1.0  0.2792586668515935  0.4998139027362003  0.4983811131397429  1.0000
  C   C64       1.0  0.258379607753639  0.48534456435855405  0.5389376233264342  1.0000
  C   C65       1.0  0.214549453128274  0.4643077679865181  0.542189745650119  1.0000
  C   C66       1.0  0.1916806911712229  0.45802972688175125  0.5050422600045591  1.0000
  H   H41       1.0  0.272591024170063  0.5067978209595378  0.43057033535818984  1.0000
  H   H42       1.0  0.3131717215162479  0.5159878445512414  0.49572074606943667  1.0000
  H   H43       1.0  0.19822877617353413  0.4524945556736231  0.5731361442601379  1.0000
  H   H44       1.0  0.15779201456303374  0.44163491346538253  0.5076294278500321  1.0000
  C   C67       1.0  0.6947749715328023  0.8745802967502744  0.7732176101275184  1.0000
  C   C68       1.0  0.6933823912105587  0.911361034675709  0.7714599529888899  1.0000
  C   C69       1.0  0.7140724965353277  0.9423674338905207  0.8021409861064517  1.0000
  C   C70       1.0  0.7353789994436916  0.9363836380837047  0.8351897172582774  1.0000
  C   C71       1.0  0.7370490263289097  0.8997280795844731  0.8364926036277313  1.0000
  C   C72       1.0  0.7172064233496308  0.8690914033695202  0.8053579318226952  1.0000
  H   H45       1.0  0.6767904412338698  0.916070316426484  0.7461878841600575  1.0000
  H   H46       1.0  0.7130250771193759  0.9708383750356817  0.8006281142851221  1.0000
  H   H47       1.0  0.7532712195170476  0.8946796222278556  0.8615560042882697  1.0000
  H   H48       1.0  0.7183045478853919  0.8406333030412025  0.8068174888629938  1.0000
  C   C73       1.0  0.443826712848502  0.6788127381760729  0.6853613304640446  1.0000
  C   C74       1.0  0.4378856924739672  0.6937939458675396  0.7270458031916481  1.0000
  C   C75       1.0  0.40216194951544276  0.6711416438816968  0.7539645697207192  1.0000
  C   C76       1.0  0.3718310077767585  0.6340418770081578  0.7386983100486844  1.0000
  C   C77       1.0  0.3779842532085391  0.6189951912138484  0.6971706546115852  1.0000
  C   C78       1.0  0.41406417064642353  0.6412682918971901  0.6706155651721101  1.0000
  H   H49       1.0  0.46086638259926005  0.7226856557128485  0.7386331567093148  1.0000
  H   H50       1.0  0.39773257736029216  0.6826712358796467  0.7862623918764098  1.0000
  H   H51       1.0  0.3551340447813113  0.590002633090186  0.685591309713638  1.0000
  H   H52       1.0  0.41872645708595674  0.6294509558269935  0.6385393178750124  1.0000
  C   C79       1.0  0.4683035300933017  0.878537846200216  0.7801435226121229  1.0000
  C   C80       1.0  0.4387450346947938  0.8591032073138498  0.7487146650320049  1.0000
  C   C81       1.0  0.41342288206485744  0.8763375443595695  0.7366841983608945  1.0000
  C   C82       1.0  0.41874467096106804  0.9136260053161465  0.7549998652621184  1.0000
  C   C83       1.0  0.4487236526755544  0.9332209041079278  0.7858738192678143  1.0000
  C   C84       1.0  0.47293768315342005  0.9153585886273169  0.7990084858986406  1.0000
  H   H53       1.0  0.43496746154303406  0.8305017927036966  0.7343157191044025  1.0000
  H   H54       1.0  0.39046704030654394  0.8611739153272503  0.7126090737759809  1.0000
  H   H55       1.0  0.4530469601500801  0.9621019445622228  0.799922007303585  1.0000
  H   H56       1.0  0.4958225237900864  0.9304400879527706  0.823236848528651  1.0000
  C   C85       1.0  0.7140407534167278  0.8812777182379598  0.10189123164491565  1.0000
  C   C86       1.0  0.7361049687525639  0.9200793212303061  0.11954244733027823  1.0000
  C   C87       1.0  0.7244285733043087  0.9299238188130291  0.16180677287876646  1.0000
  C   C88       1.0  0.6906322195493972  0.9010799805016393  0.18634619379281953  1.0000
  C   C89       1.0  0.6682612213164669  0.8624420960051826  0.1684630548872973  1.0000
  C   C90       1.0  0.6800588558712884  0.8525391819013839  0.12631199877872915  1.0000
  H   H57       1.0  0.7624570946099525  0.9423601156959097  0.10091244954239266  1.0000
  H   H58       1.0  0.7417880438317345  0.9598516224672545  0.17562807989261128  1.0000
  H   H59       1.0  0.6421015627660018  0.8400840039264613  0.18724895734189698  1.0000
  H   H60       1.0  0.6629539006233736  0.8224624702935195  0.11273767316159031  1.0000
  C   C91       1.0  0.4602975089526123  0.8824703135053436  0.30309481936281873  1.0000
  C   C92       1.0  0.4530215667634697  0.8555871423292521  0.2670582877051083  1.0000
  C   C93       1.0  0.41666261604231797  0.8435164986120006  0.24407417034762996  1.0000
  C   C94       1.0  0.3867577736834014  0.8570618220173102  0.25821663353092034  1.0000
  C   C95       1.0  0.3942361828573536  0.8840700670055266  0.2940365833874634  1.0000
  C   C96       1.0  0.4311472880302135  0.8971257315667638  0.31606686070552137  1.0000
  H   H61       1.0  0.4751877442070951  0.8439231310980954  0.2569204941268132  1.0000
  H   H62       1.0  0.41112922174289057  0.8227202479797453  0.2163091905961773  1.0000
  H   H63       1.0  0.3714826857752733  0.8949049303608435  0.3050853463115079  1.0000
  H   H64       1.0  0.4365508927801182  0.9178909155057938  0.3439045239974449  1.0000
  C   C97       1.0  0.4648548662397358  0.6940601589840699  0.26092817469613616  1.0000
  C   C98       1.0  0.4270955427915695  0.6651874018884323  0.24508092021235584  1.0000
  C   C99       1.0  0.40021099545184263  0.6328072297763311  0.27090666307118144  1.0000
  C   C100      1.0  0.4114092509066076  0.6284760927618289  0.3122035492354402  1.0000
  C   C101      1.0  0.4495577401753212  0.6570980020002196  0.3277948101333076  1.0000
  C   C102      1.0  0.47606014888208736  0.6901377334445693  0.30240470010949033  1.0000
  H   H65       1.0  0.4183425014644844  0.6682498060712437  0.2130435206404583  1.0000
  H   H66       1.0  0.37095727208672385  0.6113353784053072  0.25853171048226137  1.0000
  H   H67       1.0  0.4585470806766312  0.6538700694633426  0.3596247817511194  1.0000
  H   H68       1.0  0.5054461385798386  0.7122403171518952  0.31462379408170094  1.0000
  C   C103      1.0  0.594829703413398  0.8286278640993185  0.4616202016295278  1.0000
  C   C104      1.0  0.5683185693066823  0.8471492674841007  0.4615829063592883  1.0000
  C   C105      1.0  0.5615486169978131  0.867009553757141  0.49972690679099  1.0000
  C   C106      1.0  0.581003637053259  0.8680684391289653  0.5379967946542434  1.0000
  C   C107      1.0  0.6087013574036034  0.8508558317162489  0.5374325119881378  1.0000
  C   C108      1.0  0.6157045385018515  0.8312841876758286  0.49926029819789286  1.0000
  H   H69       1.0  0.5523081106677074  0.845417463317708  0.43248423128055874  1.0000
  H   H70       1.0  0.5404285743813333  0.8806279456681461  0.4998001823608976  1.0000
  H   H71       1.0  0.6250019053604137  0.8528400174708295  0.5663205981394399  1.0000
  H   H72       1.0  0.6368171990009058  0.8176198521461209  0.49913629906585877  1.0000
  N   N1        1.0  0.31439466293279117  0.9481667285840245  0.8504177462721472  1.0000
  C   C109      1.0  0.28864940931545674  0.9491201587922535  0.8904572205814425  1.0000
  C   C110      1.0  0.359425594793329  0.9703466495165173  0.8587758070599572  1.0000
  C   C111      1.0  0.30507229584834117  0.9670853975303595  0.814565854359347  1.0000
  C   C112      1.0  0.30437245142189706  0.9060498138039705  0.8377213002640083  1.0000
  H   H73       1.0  0.29499578421193245  0.9803728621116229  0.900928146312405  1.0000
  H   H74       1.0  0.2944103294664596  0.9348175195460843  0.9182563862130555  1.0000
  H   H75       1.0  0.25458566928920207  0.9326714112879729  0.8849034963366206  1.0000
  H   H76       1.0  0.3795074416835716  0.9700541925569397  0.8289648410819909  1.0000
  H   H77       1.0  0.3681745013887926  0.002292810416784752  0.8683248214432551  1.0000
  H   H78       1.0  0.3675951042002271  0.9567374256693577  0.8854933038647723  1.0000
  H   H79       1.0  0.3116429525188515  0.9987107009630225  0.8232277401477938  1.0000
  H   H80       1.0  0.27137477414085415  0.9507552733651696  0.8070635437700884  1.0000
  H   H81       1.0  0.3242753896470829  0.9672566460813575  0.7838906731506626  1.0000
  H   H82       1.0  0.3234796124027619  0.9041199921395597  0.807896211942827  1.0000
  H   H83       1.0  0.2709040239316515  0.8886670583360184  0.830275199816739  1.0000
  H   H84       1.0  0.3101067977085875  0.890459755875472  0.8642702186016897  1.0000
  N   N2        1.0  0.39456832587510676  0.5033395751059058  0.24565972686487933  1.0000
  C   C113      1.0  0.36746974975869506  0.48123557268074124  0.2835778356031232  1.0000
  C   C114      1.0  0.4376592510473645  0.5282796171621368  0.2594585689419457  1.0000
  C   C115      1.0  0.3781430075996859  0.5296012475922837  0.2293556961046792  1.0000
  C   C116      1.0  0.3947127124129385  0.4744156654920131  0.21039651236143878  1.0000
  H   H85       1.0  0.3345388276272034  0.4624981145203863  0.2744401341710453  1.0000
  H   H86       1.0  0.36670765340616646  0.5022329942262173  0.31086098552439884  1.0000
  H   H87       1.0  0.378623020238765  0.46081128054365733  0.2966411026828985  1.0000
  H   H88       1.0  0.45902871838427317  0.5454896076742031  0.23170447270378627  1.0000
  H   H89       1.0  0.4380977007209715  0.5505981650464449  0.2858025805097229  1.0000
  H   H90       1.0  0.4510442898861151  0.5096078116566317  0.27247432475724365  1.0000
  H   H91       1.0  0.39867188996543956  0.5481895559842965  0.20197270881148968  1.0000
  H   H92       1.0  0.37575117813825504  0.5503260945392378  0.2558541714067375  1.0000
  H   H93       1.0  0.346236185122882  0.5118452273588604  0.21716936694417407  1.0000
  H   H94       1.0  0.4143690837143601  0.49008312844641744  0.18100930113096944  1.0000
  H   H95       1.0  0.36227404013173525  0.455242506248255  0.19978276505117232  1.0000
  H   H96       1.0  0.40695790393887454  0.454041112552848  0.22141606356283683  1.0000
  N   N3        1.0  0.29253621000588304  0.2987628523626028  0.8986655357648227  1.0000
  C   C117      1.0  0.3144487966081686  0.2732393847691299  0.8986524785123069  1.0000
  C   C118      1.0  0.25109799603131944  0.27528389284546484  0.8803836637252557  1.0000
  C   C119      1.0  0.3174257105115197  0.33427185907416124  0.8717199883182217  1.0000
  C   C120      1.0  0.2869140260767929  0.31220129103459915  0.9440914809321057  1.0000
  H   H97       1.0  0.3458235503549972  0.2898680590342559  0.9123509343570578  1.0000
  H   H98       1.0  0.3190095666374009  0.26224447006043516  0.8649549224320894  1.0000
  H   H99       1.0  0.2960212426088033  0.24632599981729356  0.9190197555152986  1.0000
  H   H100      1.0  0.23348978355352265  0.2934786275528458  0.880194569492209  1.0000
  H   H101      1.0  0.2540658221328505  0.26471616431794864  0.8461011910797918  1.0000
  H   H102      1.0  0.23140627490061538  0.24827648310968825  0.8999640156334614  1.0000
  H   H103      1.0  0.30119943148428774  0.3538399233934056  0.8713770000868876  1.0000
  H   H104      1.0  0.3222868398668416  0.32540916682622323  0.837144696493154  1.0000
  H   H105      1.0  0.34879310439725525  0.3529568336925867  0.8847365178942588  1.0000
  H   H106      1.0  0.2709103509257645  0.3319430871855876  0.9452792477042876  1.0000
  H   H107      1.0  0.31746389667049685  0.32959468728052416  0.9591886187784734  1.0000
  H   H108      1.0  0.2676021256596016  0.2862240715587219  0.9652592212897735  1.0000
  N   N4        1.0  0.5957383271796508  0.8761848700663026  0.8766324140760812  1.0000
  C   C121      1.0  0.5571342045617458  0.8645409992810681  0.9056104999402635  1.0000
  C   C122      1.0  0.5899185348301607  0.8433382785746895  0.8441364455536834  1.0000
  C   C123      1.0  0.6315473503346901  0.8838019525600871  0.9030049594537329  1.0000
  C   C124      1.0  0.6041851206405797  0.9129746132488393  0.8536102565719456  1.0000
  H   H109      1.0  0.5603549362314162  0.8886022929420655  0.930597527358482  1.0000
  H   H110      1.0  0.549575144278632  0.8366548607905749  0.9231960446234672  1.0000
  H   H111      1.0  0.5295973156251618  0.858678596315282  0.8864792318060686  1.0000
  H   H112      1.0  0.6179157948107763  0.851293485274203  0.8208606377534945  1.0000
  H   H113      1.0  0.5842374128018424  0.8152002210811851  0.860071267115696  1.0000
  H   H114      1.0  0.5626502822233732  0.8364525721260111  0.8243717230461486  1.0000
  H   H115      1.0  0.6375564232823121  0.9089982290845907  0.927317131850483  1.0000
  H   H116      1.0  0.6609022642096917  0.8920058430165873  0.8819040111637332  1.0000
  H   H117      1.0  0.6261336144803935  0.8568038315564  0.9211745538769647  1.0000
  H   H118      1.0  0.6093328598653096  0.9386090476204899  0.8770023502950635  1.0000
  H   H119      1.0  0.5776637176601744  0.9083352138470885  0.8335835056058835  1.0000
  H   H120      1.0  0.6325975182965988  0.9221857632870838  0.8308634922607551  1.0000
  N   N5        1.0  0.8641862445912026  0.9374785108273397  0.795179553486717  1.0000
  C   C125      1.0  0.8714317685842408  0.9241203403209916  0.7501634341278663  1.0000
  C   C126      1.0  0.8402964538587782  0.9019824829855746  0.8224017646413418  1.0000
  C   C127      1.0  0.8400217842302443  0.9608527825807707  0.7941137199376813  1.0000
  C   C128      1.0  0.904944589762687  0.9628679337113913  0.8141339872987127  1.0000
  H   H121      1.0  0.8895943385432092  0.9063759795797239  0.7498824980470619  1.0000
  H   H122      1.0  0.8893043471148253  0.950121001548452  0.7286165757534251  1.0000
  H   H123      1.0  0.8411949247397402  0.9047635949128094  0.7350482103418012  1.0000
  H   H124      1.0  0.8341715760091437  0.9110522518172697  0.8564743463282095  1.0000
  H   H125      1.0  0.8094380791329469  0.8818827976740944  0.8090149998009784  1.0000
  H   H126      1.0  0.8579414199858234  0.8840276295613128  0.8247382325186633  1.0000
  H   H127      1.0  0.8330370622328186  0.9705407037663144  0.8277221427845922  1.0000
  H   H128      1.0  0.8093949354408291  0.9428925749732214  0.7791950130944827  1.0000
  H   H129      1.0  0.8574478488559556  0.9884116591366159  0.7747530146040306  1.0000
  H   H130      1.0  0.9004747795152293  0.9737677582216785  0.8479434160764451  1.0000
  H   H131      1.0  0.9242367964172258  0.9896758210510604  0.7941817588664094  1.0000
  H   H132      1.0  0.9235388371551811  0.9458322547669871  0.8166258219827418  1.0000
  N   N6        1.0  0.18166799427672364  0.5679425879385156  0.5080623975294513  1.0000
  C   C129      1.0  0.17185791844265053  0.6004976295588447  0.5268938320867135  1.0000
  C   C130      1.0  0.1982326953403044  0.5765014103605043  0.46205140794732547  1.0000
  C   C131      1.0  0.14306315557487959  0.5294425822932602  0.5095974417667343  1.0000
  C   C132      1.0  0.2134618725356383  0.5652140338858791  0.5338107374177796  1.0000
  H   H133      1.0  0.20053856234507816  0.6297538851679295  0.527929662100273  1.0000
  H   H134      1.0  0.15801820481381923  0.5941263802978609  0.5611581969248939  1.0000
  H   H135      1.0  0.14884239546038103  0.6042078045268741  0.5075740200052075  1.0000
  H   H136      1.0  0.22714803820515073  0.6055026812237617  0.4594764328728138  1.0000
  H   H137      1.0  0.20638964362415102  0.5526188362244853  0.4472192411066485  1.0000
  H   H138      1.0  0.17474947555218856  0.5778830648828033  0.4413500770765857  1.0000
  H   H139      1.0  0.13051254919561317  0.5213306391132623  0.5439807444481829  1.0000
  H   H140      1.0  0.14902570506884083  0.5044427276911887  0.4943169791031478  1.0000
  H   H141      1.0  0.11798124633028939  0.5307091016350395  0.4914485860418054  1.0000
  H   H142      1.0  0.22201768096164742  0.5413670997457288  0.5202341404460856  1.0000
  H   H143      1.0  0.20177190244221932  0.5580699899737996  0.5685898770408301  1.0000
  H   H144      1.0  0.24293853649918407  0.5937632935254388  0.5336470980850785  1.0000
  N   N7        1.0  0.306604019501361  0.7128695449256568  0.752556816813046  1.0000
  C   C133      1.0  0.31526500464541724  0.6927458285783463  0.7125874042178161  1.0000
  C   C134      1.0  0.29989592501768136  0.6880432498817913  0.7908572601463318  1.0000
  C   C135      1.0  0.2684910814077545  0.7180556930294437  0.7477450575747708  1.0000
  C   C136      1.0  0.34275614306153906  0.7525983772019476  0.7588867155680907  1.0000
  H   H145      1.0  0.3434941431372272  0.6879017581107443  0.7152119904018523  1.0000
  H   H146      1.0  0.3211416984841423  0.7110016002523454  0.6832163460187083  1.0000
  H   H147      1.0  0.2885822076018496  0.6627302045969161  0.7064461002306216  1.0000
  H   H148      1.0  0.3285714593183001  0.6847614665332682  0.7964901428155646  1.0000
  H   H149      1.0  0.29154655987653627  0.7013667852848992  0.8213718114344332  1.0000
  H   H150      1.0  0.27424305924649583  0.6571041776060288  0.7860894708814917  1.0000
  H   H151      1.0  0.24087230049778494  0.6886760242371223  0.7416286635453078  1.0000
  H   H152      1.0  0.27288185965571704  0.737415460718286  0.7197762339955894  1.0000
  H   H153      1.0  0.26036483231597896  0.7324362086763371  0.7775874019882376  1.0000
  H   H154      1.0  0.3486052632545586  0.7719907003388389  0.7304213723752352  1.0000
  H   H155      1.0  0.3720683636532613  0.7496566082081959  0.762461061327677  1.0000
  H   H156      1.0  0.33739134387828007  0.7687621216172555  0.7887167971188016  1.0000
  N   N8        1.0  0.0165612671684523  0.031240034401853967  0.004295510654257928  1.0000
  C   C137      1.0  0.03789744167960585  0.024486578127695058  0.9633971986655802  1.0000
  C   C138      1.0  0.0364646241262363  0.07448946854615679  0.016750040192117455  1.0000
  C   C139      1.0  0.02030401640721502  0.00798863496011104  0.03960884159863931  1.0000
  C   C140      1.0  0.9716851497047524  0.017977768835774288  0.9974049567093193  1.0000
  H   H157      1.0  0.03558056938386889  0.04139340862034224  0.9359267648688869  1.0000
  H   H158      1.0  0.02387210805229034  0.9920850653607676  0.9532259278782584  1.0000
  H   H159      1.0  0.07187892941061635  0.03431085897641162  0.9674937351031034  1.0000
  H   H160      1.0  0.07044094691805758  0.08557895021993511  0.022003941074441258  1.0000
  H   H161      1.0  0.03404579901325411  0.09294825058739242  0.9909064219227056  1.0000
  H   H162      1.0  0.021251247506081095  0.0806523379939652  0.04759675800931262  1.0000
  H   H163      1.0  0.05379741562788931  0.017672969583823805  0.04607909482245898  1.0000
  H   H164      1.0  0.006256455072025435  0.9752341060022536  0.030949723271958884  1.0000
  H   H165      1.0  0.0041753516511591204  0.01192288562241517  0.07089753830367118  1.0000
  H   H166      1.0  0.9676121851814412  0.03524434053179748  0.9713691743524323  1.0000
  H   H167      1.0  0.9545099325247928  0.022343146872219943  0.027749614035465164  1.0000
  H   H168      1.0  0.9557642804367462  0.9855812025258042  0.9874502767892315  1.0000
  N   N9        1.0  0.1956207052837768  0.3711695236129568  0.6617511154370361  1.0000
  C   C141      1.0  0.22539276103923836  0.40079429019621815  0.6304030723113845  1.0000
  C   C142      1.0  0.21241234618122048  0.3810652866558301  0.7057550437242027  1.0000
  C   C143      1.0  0.1899714653245886  0.33051185253336507  0.6475646074057786  1.0000
  C   C144      1.0  0.1547263195513163  0.37244226064010366  0.663311487040309  1.0000
  H   H169      1.0  0.21398625219371004  0.3946246255922604  0.5967227821627745  1.0000
  H   H170      1.0  0.2568880772680789  0.4012954107575572  0.6284911106382943  1.0000
  H   H171      1.0  0.23013386256482038  0.43170120219824104  0.6403071590847824  1.0000
  H   H172      1.0  0.21785935680128954  0.4118897537127344  0.7169192826656392  1.0000
  H   H173      1.0  0.190165418469997  0.3603158555233945  0.7308111056326365  1.0000
  H   H174      1.0  0.2429337977312529  0.37984974928565735  0.7061427977227842  1.0000
  H   H175      1.0  0.16756125012553896  0.3075324374359853  0.67061185333738  1.0000
  H   H176      1.0  0.22026245069093384  0.3285500872654395  0.6460463986856477  1.0000
  H   H177      1.0  0.17745664906335315  0.3221892658813029  0.6143847183071028  1.0000
  H   H178      1.0  0.1320274655240381  0.3520856356469004  0.6883748608345821  1.0000
  H   H179      1.0  0.14040550130462587  0.3639163490281608  0.6310563519619343  1.0000
  H   H180      1.0  0.158150087320303  0.40308764727225777  0.6723503940107601  1.0000
  N   N10       1.0  0.3501647943157683  0.7225833817710964  0.29363430247954764  1.0000
  C   C145      1.0  0.33067867642343507  0.7116983841419391  0.3383535375192116  1.0000
  C   C146      1.0  0.3375606862753705  0.7514135545635438  0.2764138077640512  1.0000
  C   C147      1.0  0.3358440884748127  0.6860611377170429  0.2649283846707839  1.0000
  C   C148      1.0  0.3964151966624989  0.7411566472786479  0.2949108467999318  1.0000
  H   H181      1.0  0.33960312538304643  0.690010243512899  0.35246291695867155  1.0000
  H   H182      1.0  0.29580069709498324  0.6973591105123738  0.3383433543026693  1.0000
  H   H183      1.0  0.3403941733232643  0.7386519065422812  0.3607525850664801  1.0000
  H   H184      1.0  0.3029010489980898  0.738751363472307  0.2754621790826328  1.0000
  H   H185      1.0  0.34809364401439785  0.7794909941463732  0.2971061933652525  1.0000
  H   H186      1.0  0.3511893196579575  0.7599687169243278  0.24249382934888242  1.0000
  H   H187      1.0  0.3421344885459287  0.6625356126958499  0.278608775559921  1.0000
  H   H188      1.0  0.3518074098786468  0.6926014374112452  0.23156993148323898  1.0000
  H   H189      1.0  0.3014488328689244  0.6726181135845685  0.26111692604720577  1.0000
  H   H190      1.0  0.4069927801920428  0.7205419343449102  0.3086863887043333  1.0000
  H   H191      1.0  0.40845849155332203  0.7694472978882054  0.31531352142959673  1.0000
  H   H192      1.0  0.4122430859397721  0.7488860329225793  0.2615347135296343  1.0000
  N   N11       1.0  0.24101946370222468  0.7885711554361775  0.5180196291494912  1.0000
  C   C149      1.0  0.27960359450027344  0.8230842573933027  0.5322422806259581  1.0000
  C   C150      1.0  0.22257222895736192  0.8015716552310169  0.48458778328891733  1.0000
  C   C151      1.0  0.21054382416061745  0.7734015512700919  0.5560926459830036  1.0000
  C   C152      1.0  0.25144240318756333  0.7564416683083106  0.49908832821811117  1.0000
  H   H193      1.0  0.2958633691221728  0.8140280627653776  0.5555184749178951  1.0000
  H   H194      1.0  0.27220880991541696  0.8465375385741448  0.5492461908460664  1.0000
  H   H195      1.0  0.3021672126757267  0.837335275427044  0.5039257441088973  1.0000
  H   H196      1.0  0.2452611595147674  0.8140559384903316  0.4559394899540861  1.0000
  H   H197      1.0  0.19392429320185423  0.7761634877580176  0.4720887152864323  1.0000
  H   H198      1.0  0.21359827200852058  0.8252934467798922  0.49793014975009114  1.0000
  H   H199      1.0  0.22365121891698114  0.7636366629371991  0.5820942856055195  1.0000
  H   H200      1.0  0.18100668465592012  0.747337881756009  0.546548442665557  1.0000
  H   H201      1.0  0.20204669829506022  0.7970776887679953  0.5710182906729099  1.0000
  H   H202      1.0  0.22300655387773533  0.7301094622371901  0.4875793557305713  1.0000
  H   H203      1.0  0.265474795794651  0.7459373936732476  0.5235411487042553  1.0000
  H   H204      1.0  0.2742111484685179  0.7670850504859037  0.47011850407535066  1.0000
  N   N12       1.0  0.2062492294888982  0.780044804842843  0.14913853193810211  1.0000
  C   C153      1.0  0.2042153150298264  0.7982323617026194  0.10842939794670446  1.0000
  C   C154      1.0  0.24727752097101427  0.8045766657355873  0.16801111342508987  1.0000
  C   C155      1.0  0.2014384404783069  0.738914141197664  0.13911514444491216  1.0000
  C   C156      1.0  0.17200960778199395  0.7783274050024479  0.18096634546450288  1.0000
  H   H205      1.0  0.17348935983706273  0.7808789739490565  0.09353560601517391  1.0000
  H   H206      1.0  0.22937786486245954  0.7998523039526453  0.08347309753929989  1.0000
  H   H207      1.0  0.20803194380301626  0.8293759069127803  0.11471288529559502  1.0000
  H   H208      1.0  0.2507640717254237  0.790852788934632  0.19766060867619037  1.0000
  H   H209      1.0  0.27396674291381795  0.8079337316055486  0.14434886478302897  1.0000
  H   H210      1.0  0.25139005592386804  0.8353128912277246  0.17791093876312017  1.0000
  H   H211      1.0  0.20253450201653822  0.7242317852692507  0.16924293898591594  1.0000
  H   H212      1.0  0.22692650895126004  0.7390632694929197  0.11544273783588496  1.0000
  H   H213      1.0  0.17092112172859455  0.7195773920683342  0.12459555645467432  1.0000
  H   H214      1.0  0.1747308215252295  0.8088081859475884  0.1896323433706944  1.0000
  H   H215      1.0  0.17227595470981952  0.7645040212409552  0.21200325662099417  1.0000
  H   H216      1.0  0.1406310302090614  0.7604431311850418  0.16762274979764166  1.0000
  N   N13       1.0  0.5986584830988257  0.9734069150392969  0.2374002498376197  1.0000
  C   C157      1.0  0.5525198149780687  0.9531114796531847  0.23488181360982602  1.0000
  C   C158      1.0  0.6184902359020213  0.959361992310754  0.20030066282800527  1.0000
  C   C159      1.0  0.6096560573050888  0.9637947106517535  0.27906513596973176  1.0000
  C   C160      1.0  0.6140223498136128  0.01729755003413791  0.2356017311415421  1.0000
  H   H217      1.0  0.5364819991942318  0.9623286431251165  0.26298219481565327  1.0000
  H   H218      1.0  0.5399482275809102  0.9199136054584361  0.23618854390685431  1.0000
  H   H219      1.0  0.5427780084325193  0.9597677573272049  0.20407469340516435  1.0000
  H   H220      1.0  0.6077137458967693  0.9263281256726171  0.2008540731546243  1.0000
  H   H221      1.0  0.611113223609089  0.9661240562632265  0.16818599555664823  1.0000
  H   H222      1.0  0.6532998490063914  0.9735225182214841  0.2016661198078522  1.0000
  H   H223      1.0  0.6442474831845546  0.977905484213224  0.2820821945982721  1.0000
  H   H224      1.0  0.5983682137352908  0.9310204386363136  0.2812334984856019  1.0000
  H   H225      1.0  0.5949221298537228  0.9733801066089918  0.30801610464130985  1.0000
  H   H226      1.0  0.6487314257321765  0.033373757125475675  0.237631678746206  1.0000
  H   H227      1.0  0.5996703183374952  0.028706061018159312  0.26332723382767365  1.0000
  H   H228      1.0  0.6062838913776794  0.02570521255302149  0.20456866125082288  1.0000
  N   N14       1.0  0.8096373629312947  0.8401947682930903  0.11772333663468272  1.0000
  C   C161      1.0  0.8254077551570884  0.8842086245974521  0.11648226170980584  1.0000
  C   C162      1.0  0.767782755187526  0.822428751856296  0.14130922876947297  1.0000
  C   C163      1.0  0.8390495354709054  0.8310380267782168  0.1406107310507233  1.0000
  C   C164      1.0  0.8062747586068022  0.8231262807479288  0.07246401252800812  1.0000
  H   H229      1.0  0.8567419483031106  0.8986212631439099  0.0985000061062221  1.0000
  H   H230      1.0  0.8283243470733918  0.898170019999224  0.15003906796538308  1.0000
  H   H231      1.0  0.8037283876427176  0.8921339203677445  0.09978896861756066  1.0000
  H   H232      1.0  0.7554701388016888  0.7894347583830014  0.1443751483320209  1.0000
  H   H233      1.0  0.7684999394527212  0.8360187511416842  0.17487304018843225  1.0000
  H   H234      1.0  0.7444907419602589  0.8272964620350415  0.1237318413707355  1.0000
  H   H235      1.0  0.8710719373024564  0.8443473203660898  0.12387506350997451  1.0000
  H   H236      1.0  0.8283905260971838  0.7980706751686981  0.14171651519715986  1.0000
  H   H237      1.0  0.841983254551843  0.8431701635957516  0.17499906525603165  1.0000
  H   H238      1.0  0.8373396912948544  0.8351302144823785  0.05389973457237796  1.0000
  H   H239      1.0  0.7851321648869087  0.8303842424325458  0.05388449969511347  1.0000
  H   H240      1.0  0.7933908312807538  0.7898461271048363  0.07210354208016165  1.0000
  N   N15       1.0  0.47118567348562235  0.9171754571229973  0.6138137986200698  1.0000
  C   C165      1.0  0.45453781700764523  0.8729689928571331  0.6114992440137641  1.0000
  C   C166      1.0  0.43612174361872796  0.927926002961859  0.6232306503930289  1.0000
  C   C167      1.0  0.49324033687310925  0.9339022246862847  0.5714288311080122  1.0000
  C   C168      1.0  0.5008306952440061  0.9339080471909874  0.6490617897530283  1.0000
  H   H241      1.0  0.4384763468173782  0.8594048495781199  0.6432174298958785  1.0000
  H   H242      1.0  0.480164064454129  0.8638701581483982  0.603671924047129  1.0000
  H   H243      1.0  0.4315466195123922  0.8592184919865512  0.5857411344999929  1.0000
  H   H244      1.0  0.4475369268815334  0.961047114657045  0.6262722323195785  1.0000
  H   H245      1.0  0.4134731273520063  0.9163940688764304  0.5969495282186033  1.0000
  H   H246      1.0  0.41834599735054073  0.9152189636802983  0.6545658258510361  1.0000
  H   H247      1.0  0.47196068818975956  0.9216212153652488  0.5439798787975444  1.0000
  H   H248      1.0  0.5201131977605236  0.9266171737311515  0.5633863877806414  1.0000
  H   H249      1.0  0.5061085333801808  0.9671876871228756  0.5719325372662313  1.0000
  H   H250      1.0  0.5141730472272725  0.9672052887448083  0.6516918856915536  1.0000
  H   H251      1.0  0.5275981371477556  0.9261876887618591  0.6430925311163631  1.0000
  H   H252      1.0  0.4853069533504572  0.9220195417447453  0.6815296600865701  1.0000
  N   N16       1.0  0.5069677249838022  0.712915601429211  0.5175873229806192  1.0000
  C   C169      1.0  0.5140424599763797  0.6795051006105364  0.5321499426744944  1.0000
  C   C170      1.0  0.5164653656758379  0.717154481737213  0.46973912905762233  1.0000
  C   C171      1.0  0.5347892387465146  0.7505870359582977  0.5402577147304948  1.0000
  C   C172      1.0  0.46274848773424015  0.7046020181287855  0.5283229816798398  1.0000
  H   H253      1.0  0.5073606701561726  0.6757206136783861  0.5682087176514292  1.0000
  H   H254      1.0  0.5472051175211678  0.6849749810151301  0.5247835880024491  1.0000
  H   H255      1.0  0.49345412992023924  0.6505139579536162  0.5158341671958042  1.0000
  H   H256      1.0  0.5124471647436604  0.7427616419878046  0.4577685636960997  1.0000
  H   H257      1.0  0.5496388585313546  0.72332437978415  0.4606235512614144  1.0000
  H   H258      1.0  0.4958446504968335  0.6895497602045445  0.4512445519790625  1.0000
  H   H259      1.0  0.5307734260334152  0.7765829142684967  0.5296387030575159  1.0000
  H   H260      1.0  0.5683622129500071  0.7573057795156187  0.5337241408123307  1.0000
  H   H261      1.0  0.5282612299997063  0.7489722095714637  0.5763210328958449  1.0000
  H   H262      1.0  0.4407938805337787  0.6763208689360747  0.5118094063436083  1.0000
  H   H263      1.0  0.4565071327392068  0.7294267525926474  0.5180648852068225  1.0000
  H   H264      1.0  0.4547770923598469  0.7012814332653924  0.5642988912725739  1.0000
  N   N17       1.0  0.19148109856388015  0.011997516170185739  0.18600610938719428  1.0000
  C   C173      1.0  0.20391070462145106  0.05536011561142503  0.19325057284504527  1.0000
  C   C174      1.0  0.20532428104917053  0.004803649901872208  0.1408804951098622  1.0000
  C   C175      1.0  0.14531655321306464  0.9893457925505372  0.19211509737405455  1.0000
  C   C176      1.0  0.2112716740415938  0.9984765055670831  0.21761534187421688  1.0000
  H   H265      1.0  0.1939959456992951  0.06200443525417835  0.226970672385231  1.0000
  H   H266      1.0  0.18921560375716648  0.06624405979363916  0.16980861539363698  1.0000
  H   H267      1.0  0.23852055542613643  0.07346969594197768  0.1885326624774029  1.0000
  H   H268      1.0  0.19535265124235082  0.9723022396568534  0.13366653160281539  1.0000
  H   H269      1.0  0.1918042661487579  0.015561805280570827  0.11622563081211666  1.0000
  H   H270      1.0  0.24006666603636923  0.02050967337083387  0.13532771439675673  1.0000
  H   H271      1.0  0.13476364735923313  0.9564777370541532  0.1868700341116299  1.0000
  H   H272      1.0  0.1293783348427138  0.998729227137667  0.16862658457113042  1.0000
  H   H273      1.0  0.13374184603729988  0.9941188758816966  0.22578721699895785  1.0000
  H   H274      1.0  0.20108578487081608  0.0028266149988473988  0.25207051337516106  1.0000
  H   H275      1.0  0.24612186504652234  0.015029951947025168  0.2141934157680933  1.0000
  H   H276      1.0  0.20275928503179816  0.9659477348667409  0.21254636224092904  1.0000
  N   N18       1.0  0.9985858552958936  0.2656339117247138  0.06853233706884831  1.0000
  C   C177      1.0  0.9905001987941129  0.253548742666427  0.0220162778653592  1.0000
  C   C178      1.0  0.017734921026725026  0.24234690694170152  0.08657931706965327  1.0000
  C   C179      1.0  0.9585956427672154  0.2575925400404377  0.09365113161752807  1.0000
  C   C180      1.0  0.027545263017219268  0.3089717037695756  0.07195282884190406  1.0000
  H   H277      1.0  0.9691405613067158  0.22090634892331631  0.018050289372989466  1.0000
  H   H278      1.0  0.020049821030379222  0.25920712970704757  0.0021244410913510148  1.0000
  H   H279      1.0  0.9760852208622482  0.27043999765598314  0.007105761883321238  1.0000
  H   H280      1.0  0.02590319235437022  0.25175708145966685  0.12114159647584678  1.0000
  H   H281      1.0  0.9964177265042458  0.20957064708922404  0.08565709242438681  1.0000
  H   H282      1.0  0.04743832536473924  0.24705341208048495  0.06765601969709992  1.0000
  H   H283      1.0  0.963686638343604  0.26621180231322733  0.1289359150032992  1.0000
  H   H284      1.0  0.9360485183729184  0.2251225570858907  0.0916159241636096  1.0000
  H   H285      1.0  0.9433271271260277  0.274786233398583  0.08098669143601628  1.0000
  H   H286      1.0  0.03527180518891826  0.31894424870441457  0.10652033458366056  1.0000
  H   H287      1.0  0.014158781134128606  0.3276687278356258  0.059032706334926556  1.0000
  H   H288      1.0  0.05797939073409508  0.31609890493829895  0.05319136591280422  1.0000
