data_image0
_chemical_formula_structural       FeS2FeS2FeSFeS3FeS2FeS2FeSFeS3FeS2FeS2FeSFeS3FeS2FeS2FeSFeS3FeS2FeS2FeSFeS3FeS2FeS2FeSFeS3FeS2FeS2FeSFeS3FeS2FeS2FeSFeS3FeS2FeS2FeSFeS3FeS2FeS2FeSFeS3FeS2FeS2FeSFeS3FeS2FeS2FeSFeS3FeS2FeS2FeSFeS3FeS2FeS2FeSFeS3FeS2FeS2FeSFeS3FeS2FeS2FeSFeS3FeS2FeS2FeSFeS3FeS2FeS2FeSFeS3C6H4C6H4C6H4C6H4C6H4C6H4C6H4C6H4C6H4C6H4C6H4C6H4C6H4C6H4C6H4C6H4C6H4C6H4C6H4C6H4C6H4C6H4C6H4C6H4C6H4C6H4C6H4C6H4C6H4C6H4C6H4C6H4C6H4C6H4C6H4C6H4NC4H12NC4H12NC4H12NC4H12NC4H12NC4H12NC4H12NC4H12NC4H12NC4H12NC4H12NC4H12NC4H12NC4H12NC4H12NC4H12NC4H12NC4H12NC4H12NC4H12NC4H12NC4H12NC4H12NC4H12NC4H12NC4H12NC4H12NC4H12NC4H12NC4H12NC4H12NC4H12NC4H12NC4H12NC4H12NC4H12
_chemical_formula_sum              "Fe72 S144 C360 H576 N36"
_cell_length_a       36.3607140206651
_cell_length_b       36.78746600528011
_cell_length_c       53.77515319196863
_cell_angle_alpha    89.24166129097102
_cell_angle_beta     89.84332361064935
_cell_angle_gamma    120.01182014414503

_space_group_name_H-M_alt    "P 1"
_space_group_IT_number       1

loop_
  _space_group_symop_operation_xyz
  'x, y, z'

loop_
  _atom_site_type_symbol
  _atom_site_label
  _atom_site_symmetry_multiplicity
  _atom_site_fract_x
  _atom_site_fract_y
  _atom_site_fract_z
  _atom_site_occupancy
  Fe  Fe1       1.0  0.08795622177343043  0.8278508190079238  0.7657226714920621  1.0000
  S   S1        1.0  0.10669657494835169  0.8357686437166133  0.806042719290459  1.0000
  S   S2        1.0  0.10846221172992765  0.791769901016171  0.7409890794627286  1.0000
  Fe  Fe2       1.0  0.04183633896228334  0.876702614694881  0.7707385445995796  1.0000
  S   S3        1.0  0.05457258003653778  0.8870500333120275  0.8114071296482156  1.0000
  S   S4        1.0  0.013456359760631864  0.9081097898817151  0.7483074579192045  1.0000
  Fe  Fe3       1.0  0.1203046518751556  0.9019280495257577  0.8010171373593048  1.0000
  S   S5        1.0  0.17180943642844357  0.9568535113652711  0.8212282661846474  1.0000
  Fe  Fe4       1.0  0.03964798144214793  0.8200374252325067  0.8132449722138764  1.0000
  S   S6        1.0  1.641439455224436e-05  0.776793688012383  0.8448004331647108  1.0000
  S   S7        1.0  0.10878405444948513  0.8959703094687805  0.7599815438446076  1.0000
  S   S8        1.0  0.019645651763940286  0.8077870466233273  0.7732488205391844  1.0000
  Fe  Fe5       1.0  0.8492888370942262  0.9680347002922356  0.7828956731308404  1.0000
  S   S9        1.0  0.862421001364017  0.9903324889235127  0.743133630777468  1.0000
  S   S10       1.0  0.8633014589579262  0.9199614426214783  0.799990092763509  1.0000
  Fe  Fe6       1.0  0.8232762380623171  0.03220172875389671  0.7970188543996286  1.0000
  S   S11       1.0  0.8348368050808375  0.05960257886240266  0.7580909717819337  1.0000
  S   S12       1.0  0.8085001082246485  0.06490041114644703  0.8276730191626056  1.0000
  Fe  Fe7       1.0  0.8020411315450324  0.9925447581911899  0.7458732177101547  1.0000
  S   S13       1.0  0.755573340512081  0.962611292362085  0.7144191087839633  1.0000
  Fe  Fe8       1.0  0.8940687088204228  0.0547846649764974  0.7589687225592778  1.0000
  S   S14       1.0  0.9568356835217805  0.10607557713746346  0.743217513477674  1.0000
  S   S15       1.0  0.786025358627699  0.9651522893524623  0.7848417590083296  1.0000
  S   S16       1.0  0.88478317543413  0.03241794698850464  0.7986259968117371  1.0000
  Fe  Fe9       1.0  0.2375124098113317  0.17864809057383196  0.7740555713807592  1.0000
  S   S17       1.0  0.22424170144053007  0.18684652426208903  0.8137365987463913  1.0000
  S   S18       1.0  0.2380208143410951  0.12353304430466967  0.7569332234993439  1.0000
  Fe  Fe10      1.0  0.2431700841150303  0.2600354223483557  0.7562262112087875  1.0000
  S   S19       1.0  0.2277788366455005  0.27408880262989355  0.7942154900114833  1.0000
  S   S20       1.0  0.2595742361702174  0.3073835767204439  0.7247335650373661  1.0000
  Fe  Fe11      1.0  0.2738017743233929  0.2548493424280276  0.8080585557813236  1.0000
  S   S21       1.0  0.3271708381011929  0.3008047505064847  0.8325648978991601  1.0000
  Fe  Fe12      1.0  0.17955956223848052  0.20542290588170067  0.7966972723792289  1.0000
  S   S22       1.0  0.1147868279580447  0.17612149711928393  0.8145849299605386  1.0000
  S   S23       1.0  0.29185192702343254  0.24451164509933795  0.7698029983064684  1.0000
  S   S24       1.0  0.18985256399941072  0.19321804992471814  0.7573198066141728  1.0000
  Fe  Fe13      1.0  0.7542523768836026  0.7016188416003146  0.09619778060852059  1.0000
  S   S25       1.0  0.7748187345306327  0.747295687689687  0.0638886844044771  1.0000
  S   S26       1.0  0.7929113882483705  0.7134659567661482  0.1312976779764178  1.0000
  Fe  Fe14      1.0  0.6841682121590118  0.6301416818566928  0.06619196138752433  1.0000
  S   S27       1.0  0.7003264236070075  0.6700125255387063  0.03156269287144305  1.0000
  S   S28       1.0  0.6282642124691671  0.563932787774022  0.07179044760365617  1.0000
  Fe  Fe15      1.0  0.7685643966997904  0.6935537785178758  0.04134148049095182  1.0000
  S   S29       1.0  0.8208356464041424  0.7106887308474267  0.012893826888467741  1.0000
  Fe  Fe16      1.0  0.7051960022412161  0.7203632276904188  0.05686227648398904  1.0000
  S   S30       1.0  0.670275502285081  0.7530871103177831  0.042848969850527545  1.0000
  S   S31       1.0  0.7522838934812156  0.6493293603786994  0.07388930311529143  1.0000
  S   S32       1.0  0.6847411441635223  0.6789788704240922  0.09122287876564356  1.0000
  Fe  Fe17      1.0  0.006421143949420838  0.6648966658682913  0.005038043897852784  1.0000
  S   S33       1.0  0.030366445392539854  0.6380622786094001  0.9758524453865899  1.0000
  S   S34       1.0  0.9381109213040117  0.6285586890038584  0.018570643921401064  1.0000
  Fe  Fe18      1.0  0.09530200744518402  0.7350112186671338  0.017382577966563284  1.0000
  S   S35       1.0  0.12543793540777923  0.7138524501209543  0.9891832982008407  1.0000
  S   S36       1.0  0.13255974946696028  0.7858551209546433  0.045174241222325495  1.0000
  Fe  Fe19      1.0  0.07263310050311866  0.7055160659113827  0.9641233082108487  1.0000
  S   S37       1.0  0.0949466190870305  0.725852632366651  0.9244493476333088  1.0000
  Fe  Fe20      1.0  0.08093858808339038  0.6487086399540625  0.003378082623122225  1.0000
  S   S38       1.0  0.10993003942174928  0.6073594748433475  0.009671876545313207  1.0000
  S   S39       1.0  0.04531468982537912  0.7319828949226025  0.9914431367795884  1.0000
  S   S40       1.0  0.05398632023532146  0.6701733456554213  0.03335017179271116  1.0000
  Fe  Fe21      1.0  0.7421275550654514  0.0022286168750877966  0.9676572221467536  1.0000
  S   S41       1.0  0.7918204364053275  0.027871961320799388  0.9972072616744808  1.0000
  S   S42       1.0  0.7551638817534834  0.9743659522094789  0.9337429640217983  1.0000
  Fe  Fe22      1.0  0.6779469915373064  0.011923921842606378  0.00027007364633502284  1.0000
  S   S43       1.0  0.7226455319033908  0.037255768323054994  0.0324754840510193  1.0000
  S   S44       1.0  0.6153149003556384  0.011205803536543879  0.9969806815321174  1.0000
  Fe  Fe23      1.0  0.7717943201842647  0.07559358921763115  0.0033572683177187645  1.0000
  S   S45       1.0  0.8149078534493752  0.14587931131678386  0.004614855682269381  1.0000
  Fe  Fe24      1.0  0.7383038919517184  0.986714023775967  0.023418477829588058  1.0000
  S   S46       1.0  0.7535884356343863  0.9505813640093314  0.05190431155813857  1.0000
  S   S47       1.0  0.7263636651389251  0.05342196846544225  0.9714829688883536  1.0000
  S   S48       1.0  0.6894453343729394  0.9579870643411611  0.9935663602196173  1.0000
  Fe  Fe25      1.0  0.0793763844878308  0.35814422975908  0.10995816017442468  1.0000
  S   S49       1.0  0.06001382747504369  0.29919919125365463  0.08919130058469421  1.0000
  S   S50       1.0  0.12205802018190526  0.36786244181037725  0.14247418724618785  1.0000
  Fe  Fe26      1.0  0.034683006433056995  0.3871186107740674  0.07404351381840257  1.0000
  S   S51       1.0  0.011661518740357035  0.32998131397191544  0.05010402093141621  1.0000
  S   S52       1.0  0.012164727036831469  0.4343335161505929  0.06940232442097899  1.0000
  Fe  Fe27      1.0  0.9960987346064772  0.2937379476713283  0.08621041386918513  1.0000
  S   S53       1.0  0.940171546638821  0.2290499327388578  0.09452696289380352  1.0000
  Fe  Fe28      1.0  0.07742957981265428  0.3396670993531505  0.054942488616984066  1.0000
  S   S54       1.0  0.10998927591662032  0.3222157304219418  0.025343531525219287  1.0000
  S   S55       1.0  0.013932464222575103  0.3495832254484736  0.11001432523586088  1.0000
  S   S56       1.0  0.1021027506795036  0.39993408198901487  0.07583133344245044  1.0000
  Fe  Fe29      1.0  0.34892547638607174  0.32267119602137223  0.9795823117001461  1.0000
  S   S57       1.0  0.3195636641095468  0.3025824446301374  0.01789039883987109  1.0000
  S   S58       1.0  0.3036948752812048  0.2807460803900125  0.9500794314314825  1.0000
  Fe  Fe30      1.0  0.4296704186191058  0.39763956531205064  0.9998026698921124  1.0000
  S   S59       1.0  0.40568019440278263  0.3829384352557326  0.03905618059710312  1.0000
  S   S60       1.0  0.49416940355358996  0.453829638384242  0.9897704601049208  1.0000
  Fe  Fe31      1.0  0.38421557325692607  0.3159318223300029  0.0297098835972045  1.0000
  S   S61       1.0  0.39703251168179665  0.2788347838477067  0.058991189418641454  1.0000
  Fe  Fe32      1.0  0.3434387568672397  0.37088630125443545  0.023451389903822895  1.0000
  S   S62       1.0  0.3075571391097283  0.3989947801139151  0.04168543821104542  1.0000
  S   S63       1.0  0.4121648976411196  0.3309885343697642  0.9910531366805633  1.0000
  S   S64       1.0  0.36879355002521774  0.39061345641187767  0.984596386526678  1.0000
  Fe  Fe33      1.0  0.3612257696072491  0.9716951439928523  0.05010225008745675  1.0000
  S   S65       1.0  0.3847665496289036  0.9699385712600928  0.08828678366663735  1.0000
  S   S66       1.0  0.3281904776566951  0.9148052486686739  0.025668171355915925  1.0000
  Fe  Fe34      1.0  0.3993338767874555  0.06711745896920494  0.05073626108549654  1.0000
  S   S67       1.0  0.4260937801061572  0.07321495728378477  0.08911862301089296  1.0000
  S   S68       1.0  0.4023741734608347  0.11726694989328065  0.024708055537397078  1.0000
  Fe  Fe35      1.0  0.4456285159566581  0.027140445731565377  0.07567558797372367  1.0000
  S   S69       1.0  0.508003530471232  0.029475498143791024  0.08427753661671618  1.0000
  Fe  Fe36      1.0  0.36322460899228404  0.015588722903305374  0.09826582457022426  1.0000
  S   S70       1.0  0.3156375395387763  0.002226431998008538  0.129288006149956  1.0000
  S   S71       1.0  0.4234938602289938  0.025512964168185714  0.03670940712099228  1.0000
  S   S72       1.0  0.33517363486068796  0.012935303210356075  0.060641088487453754  1.0000
  Fe  Fe37      1.0  0.844539231828591  0.840314490923222  0.2528804647688412  1.0000
  S   S73       1.0  0.8519755428285428  0.7874921577212683  0.26844580575634186  1.0000
  S   S74       1.0  0.804181225615137  0.8322041910640333  0.21910561284868443  1.0000
  Fe  Fe38      1.0  0.8905541087015297  0.8974029115252257  0.29648527053948404  1.0000
  S   S75       1.0  0.8997982041886086  0.8480659649258427  0.3155239260504505  1.0000
  S   S76       1.0  0.9184890048607425  0.9580382189847014  0.31735017499392926  1.0000
  Fe  Fe39      1.0  0.9182285796015982  0.8380678367763369  0.2775527551267542  1.0000
  S   S77       1.0  0.9776962484521196  0.8334818970913535  0.2759726900228742  1.0000
  Fe  Fe40      1.0  0.8328158829086835  0.8030572604219092  0.3048175277929855  1.0000
  S   S78       1.0  0.780519533453361  0.7511616655715238  0.3280742180422261  1.0000
  S   S79       1.0  0.9126508674782805  0.8900520620681607  0.2589333392789708  1.0000
  S   S80       1.0  0.8217736727097926  0.8533186368875074  0.2888905925669062  1.0000
  Fe  Fe41      1.0  0.12255013514153434  0.25442608975538344  0.2776117491665034  1.0000
  S   S81       1.0  0.08103945133848334  0.1986099287341757  0.30180983089367397  1.0000
  S   S82       1.0  0.18468816852684022  0.2651943019164433  0.2620944593402231  1.0000
  Fe  Fe42      1.0  0.05346036415447333  0.27668208378883313  0.2699274100668801  1.0000
  S   S83       1.0  0.005831948000557086  0.22222878450387024  0.2933526195330075  1.0000
  S   S84       1.0  0.03237395731221038  0.31563996808098166  0.24817894416532307  1.0000
  Fe  Fe43      1.0  0.06068605679961836  0.241066869974139  0.3194404443382934  1.0000
  S   S85       1.0  0.052511207962715245  0.23545552832437291  0.36140115494305103  1.0000
  Fe  Fe44      1.0  0.03053491803765529  0.1851066634113443  0.27387368765073594  1.0000
  S   S86       1.0  0.9937124349819022  0.12514629198001964  0.25277607520298734  1.0000
  S   S87       1.0  0.10684897652118301  0.29865503737201066  0.29731548462342827  1.0000
  S   S88       1.0  0.0734153028952119  0.23790917385871674  0.24846393783121395  1.0000
  Fe  Fe45      1.0  0.28857007434022974  0.07398124760939843  0.25766123688394815  1.0000
  S   S89       1.0  0.2392511942192969  0.006069402825457981  0.26334752351385754  1.0000
  S   S90       1.0  0.346135265371774  0.0937670567205866  0.23275225809860442  1.0000
  Fe  Fe46      1.0  0.24595855239236591  0.10334663866136462  0.2951764799814317  1.0000
  S   S91       1.0  0.1936167378761811  0.037866234369408946  0.30340748625651714  1.0000
  S   S92       1.0  0.2425458106825661  0.15132451750875245  0.31882161697691  1.0000
  Fe  Fe47      1.0  0.24549116841734608  0.02172470179526198  0.3040796148917212  1.0000
  S   S93       1.0  0.24666424071535287  0.9799930143819358  0.3350067406202424  1.0000
  Fe  Fe48      1.0  0.19300793143836636  0.02965836950288092  0.26226900680115056  1.0000
  S   S94       1.0  0.13331575763223297  0.005994953110346701  0.24007700729586065  1.0000
  S   S95       1.0  0.2980005427037945  0.08798266689041995  0.2985558126887482  1.0000
  S   S96       1.0  0.24183693315493157  0.09672487980338086  0.25375471766274227  1.0000
  Fe  Fe49      1.0  0.7542410819846368  0.7315453562495038  0.47434952161448535  1.0000
  S   S97       1.0  0.76884410120468  0.7651453648716353  0.5107687523678317  1.0000
  S   S98       1.0  0.8004132223345051  0.7747722702527876  0.44487870292011755  1.0000
  Fe  Fe50      1.0  0.6797940275014879  0.6517336325473702  0.4973159302141206  1.0000
  S   S99       1.0  0.6890542267602283  0.6799358103532954  0.5349575864931142  1.0000
  S   S100      1.0  0.6274989719478972  0.5849712352016136  0.4903445493816328  1.0000
  Fe  Fe51      1.0  0.6985716517155908  0.737628855555821  0.5145833110077626  1.0000
  S   S101      1.0  0.663456363093245  0.771508160732537  0.5251084543078158  1.0000
  Fe  Fe52      1.0  0.7584880024760731  0.7045744608890974  0.5273377990692503  1.0000
  S   S102      1.0  0.7984081332877547  0.6994799015294229  0.5576368194962411  1.0000
  S   S103      1.0  0.6842173857920677  0.7078479876251016  0.4770384453016485  1.0000
  S   S104      1.0  0.7488580207840925  0.6725474353485412  0.4908353431226814  1.0000
  Fe  Fe53      1.0  0.02736866045393739  0.6983960987921294  0.6101558078681677  1.0000
  S   S105      1.0  0.028167971390071076  0.7452835154507809  0.582858122169616  1.0000
  S   S106      1.0  0.99756457651768  0.6971953698277314  0.6474067514898751  1.0000
  Fe  Fe54      1.0  0.06753270691486993  0.6666470346546898  0.5730594887142715  1.0000
  S   S107      1.0  0.0720362960555012  0.711854448599176  0.5430780310742535  1.0000
  S   S108      1.0  0.097287624802203  0.6265061927322502  0.5647007705166331  1.0000
  Fe  Fe55      1.0  0.09400073622472349  0.7595930029558686  0.5731028458729589  1.0000
  S   S109      1.0  0.13899475931943914  0.8295461740093214  0.569009982560467  1.0000
  Fe  Fe56      1.0  0.0059907272963344305  0.694349259013266  0.555094267840167  1.0000
  S   S110      1.0  0.9613255632655019  0.6906410686747938  0.5248997256344665  1.0000
  S   S111      1.0  0.09521690177272432  0.7164720402527427  0.6026242065799813  1.0000
  S   S112      1.0  0.9993132434919505  0.6451395925238245  0.58291465337206  1.0000
  Fe  Fe57      1.0  0.37916906562897007  0.3346958380455036  0.5989546972405314  1.0000
  S   S113      1.0  0.3457255140755676  0.29577199725522624  0.5661293710665214  1.0000
  S   S114      1.0  0.36569179186266576  0.29610382058061  0.6343744768480141  1.0000
  Fe  Fe58      1.0  0.4303381740816525  0.413339980053712  0.5663722368688631  1.0000
  S   S115      1.0  0.40024980120788556  0.380008746968996  0.53085195417306  1.0000
  S   S116      1.0  0.4818983977044067  0.48150745594942795  0.5706246114952951  1.0000
  Fe  Fe59      1.0  0.33928958876444715  0.3504979879806698  0.5532747531623379  1.0000
  S   S117      1.0  0.2729616988175794  0.32590252450913976  0.5386559098368131  1.0000
  Fe  Fe60      1.0  0.4086430566547642  0.3277583803102758  0.5467314771664429  1.0000
  S   S118      1.0  0.43637738668532156  0.2931964433591739  0.5266543231787763  1.0000
  S   S119      1.0  0.36825802549273723  0.387584615468577  0.5878274572136116  1.0000
  S   S120      1.0  0.4432353504678355  0.3631437140210018  0.5805642368641591  1.0000
  Fe  Fe61      1.0  0.3858794346418287  0.037947258623955246  0.4535368841083105  1.0000
  S   S121      1.0  0.3221766137017813  0.00970253923011932  0.47226085102906645  1.0000
  S   S122      1.0  0.3967490247040385  0.05865117255103095  0.4130069405452789  1.0000
  Fe  Fe62      1.0  0.4320841195319263  0.046813468087793714  0.5029891281712422  1.0000
  S   S123      1.0  0.371377798495622  0.019884987495266463  0.5253818510280537  1.0000
  S   S124      1.0  0.4958610242152645  0.07554630179169175  0.5223119534145604  1.0000
  Fe  Fe63      1.0  0.3441698410061603  0.972608998427085  0.4948890860844123  1.0000
  S   S125      1.0  0.3041959320578779  0.9024712997768548  0.501110324311867  1.0000
  Fe  Fe64      1.0  0.3554573815231643  0.05982961247144106  0.5006857284179034  1.0000
  S   S126      1.0  0.32374977949106304  0.09654557294324707  0.5125421335770195  1.0000
  S   S127      1.0  0.40614702149291826  0.9970758829173527  0.4738590976512751  1.0000
  S   S128      1.0  0.41793610083453614  0.09032138138085054  0.48063541834945467  1.0000
  Fe  Fe65      1.0  0.06860448057358294  0.3811214102664064  0.46771373420653045  1.0000
  S   S129      1.0  0.08602570960829863  0.3420869723144322  0.49171852282546014  1.0000
  S   S130      1.0  0.08314720165392778  0.3903734128900246  0.4265077350705385  1.0000
  Fe  Fe66      1.0  0.03279709619112369  0.4065712107275919  0.5112361815906191  1.0000
  S   S131      1.0  0.04660044455006761  0.3684412505856009  0.5387963351425414  1.0000
  S   S132      1.0  0.999159950892512  0.4408709311034373  0.5243638857481033  1.0000
  Fe  Fe67      1.0  0.10912673876201526  0.3947855123735377  0.5186787698695615  1.0000
  S   S133      1.0  0.1716214026760719  0.42448962567005544  0.5389715886032145  1.0000
  Fe  Fe68      1.0  0.021958435420047495  0.31894275262342175  0.509568483771799  1.0000
  S   S134      1.0  0.9849539501244171  0.24931432731960224  0.5177295069588879  1.0000
  S   S135      1.0  0.09714000226340433  0.4364833322378047  0.49315624108345985  1.0000
  S   S136      1.0  0.0026713283395323195  0.3543453795717879  0.48347211946306357  1.0000
  Fe  Fe69      1.0  0.7243443867265517  0.0508420123225832  0.5920216206673444  1.0000
  S   S137      1.0  0.7825691684600814  0.06731902604103585  0.5693904081659384  1.0000
  S   S138      1.0  0.7292549171222208  0.0713937315971743  0.6317227232961677  1.0000
  Fe  Fe70      1.0  0.6650329329042247  0.011091723158100029  0.5486185729691122  1.0000
  S   S139      1.0  0.7181761475606698  0.02313167000167038  0.5222202783345146  1.0000
  S   S140      1.0  0.5970659519240288  0.9776338272286771  0.5355733202756783  1.0000
  Fe  Fe71      1.0  0.743413228664788  0.0023757159355510815  0.5541466273403644  1.0000
  S   S141      1.0  0.775968876607981  0.9639973097629171  0.5513020038870192  1.0000
  Fe  Fe72      1.0  0.7526969443491638  0.08674383510379763  0.5395182609360046  1.0000
  S   S142      1.0  0.7837143040370251  0.14667475086621118  0.5165020604666122  1.0000
  S   S143      1.0  0.6871790472215629  0.9843929921373162  0.5791749769292215  1.0000
  S   S144      1.0  0.6975704762164989  0.07611850413436007  0.5635414308253219  1.0000
  C   C1        1.0  0.9290274430343005  0.22213992218701684  0.5186031874445798  1.0000
  C   C2        1.0  0.9059285005788479  0.24231911261969283  0.5133199724921622  1.0000
  C   C3        1.0  0.8612630280442365  0.21899370714135463  0.5127348102432487  1.0000
  C   C4        1.0  0.8395772172262288  0.1756905324221903  0.5180711923382735  1.0000
  C   C5        1.0  0.8627248257935044  0.15576722799977072  0.5238056981041753  1.0000
  C   C6        1.0  0.9073040746737097  0.17888073610285296  0.5238656169814571  1.0000
  H   H1        1.0  0.9224302098195541  0.2757820118825229  0.5095822009759856  1.0000
  H   H2        1.0  0.8434850044292149  0.23462336999292763  0.5084646574793872  1.0000
  H   H3        1.0  0.8463269238421769  0.12237547884512558  0.5277447827538431  1.0000
  H   H4        1.0  0.9250447363118928  0.16314651102884176  0.527981866568332  1.0000
  C   C7        1.0  0.5213920180808723  0.046152173705054235  0.5274742445757306  1.0000
  C   C8        1.0  0.558456753465893  0.06359526309065187  0.5417514700352366  1.0000
  C   C9        1.0  0.5817520225701693  0.04275362545696415  0.5445518984358464  1.0000
  C   C10       1.0  0.5677406831725207  0.003938570474587122  0.5333811307670729  1.0000
  C   C11       1.0  0.5300131086629112  0.9859138439468228  0.5197300342672813  1.0000
  C   C12       1.0  0.5069655538766686  0.007014516374174162  0.5166761559724331  1.0000
  H   H5        1.0  0.5696100714172686  0.0938116589144739  0.550225244913058  1.0000
  H   H6        1.0  0.6105092239150121  0.05683805182314245  0.5552779827108985  1.0000
  H   H7        1.0  0.5188040344362169  0.9557596262362033  0.5111484715419345  1.0000
  H   H8        1.0  0.47831650097480566  0.9932141470017188  0.5057324217836687  1.0000
  C   C13       1.0  0.4042839678425547  0.23895064911480055  0.5215978141269659  1.0000
  C   C14       1.0  0.3601362905582912  0.21846449628216838  0.5246101187765077  1.0000
  C   C15       1.0  0.3357360470100733  0.1747362931105084  0.5218135823158031  1.0000
  C   C16       1.0  0.35532474759527116  0.1512637683651062  0.5161001981012563  1.0000
  C   C17       1.0  0.3994443414889896  0.1718189110719235  0.5130469194702835  1.0000
  C   C18       1.0  0.4237528267437308  0.2155627995708401  0.5154759780989617  1.0000
  H   H9        1.0  0.3447595528617054  0.23629135275147642  0.5289589286135313  1.0000
  H   H10       1.0  0.3015728160138188  0.15904170393001457  0.5240883450257533  1.0000
  H   H11       1.0  0.4149866355982826  0.1540872488459067  0.5089816965642548  1.0000
  H   H12       1.0  0.45790765506715386  0.23123260274517513  0.5131143981490842  1.0000
  C   C19       1.0  0.24564492443094926  0.35404098066246187  0.5394934411568908  1.0000
  C   C20       1.0  0.20365597540103  0.33433999227988354  0.5311089450667886  1.0000
  C   C21       1.0  0.18051124457910586  0.35545927451773496  0.5313643683664894  1.0000
  C   C22       1.0  0.19933886701080686  0.39660860389666136  0.5398418090653317  1.0000
  C   C23       1.0  0.24122710320526125  0.41623228056551786  0.5485273750144162  1.0000
  C   C24       1.0  0.264393318913471  0.3949593518684189  0.5484030987609451  1.0000
  H   H13       1.0  0.18894847783695182  0.3025782673732805  0.5243224142789819  1.0000
  H   H14       1.0  0.1480914351262676  0.33980298820390187  0.5250150112966326  1.0000
  H   H15       1.0  0.25594412224147933  0.44809410036968556  0.5551319796542091  1.0000
  H   H16       1.0  0.2967755142344606  0.41031616172272123  0.5549400419739395  1.0000
  C   C25       1.0  0.06853292948682341  0.5775792775840828  0.5498871899785632  1.0000
  C   C26       1.0  0.024415137004925258  0.5528357723650337  0.5524768443397015  1.0000
  C   C27       1.0  0.0032092280044619947  0.5116094807767981  0.5434022677623025  1.0000
  C   C28       1.0  0.025838087891831986  0.4949442517406599  0.5314975222660973  1.0000
  C   C29       1.0  0.06959102618833415  0.5206024462325196  0.5275978013854797  1.0000
  C   C30       1.0  0.09091840970523088  0.5614917924690381  0.5371115484748447  1.0000
  H   H17       1.0  0.006837971806068488  0.5648752944642618  0.5622874597454459  1.0000
  H   H18       1.0  0.9692933898471513  0.492115966049898  0.546323177311521  1.0000
  H   H19       1.0  0.08720710481889636  0.5086100366239529  0.5178237098108079  1.0000
  H   H20       1.0  0.12499951046698012  0.5806402848234621  0.5348151749869372  1.0000
  C   C31       1.0  0.18605705047818244  0.8494825554588745  0.5511924143887167  1.0000
  C   C32       1.0  0.20904532446751167  0.8926152163906532  0.5455076792000875  1.0000
  C   C33       1.0  0.2456423302772096  0.9093253308768484  0.5303586928171111  1.0000
  C   C34       1.0  0.2593221808373028  0.8828789471895511  0.5207917193685833  1.0000
  C   C35       1.0  0.23644971199872056  0.8397773374378132  0.5266208758733137  1.0000
  C   C36       1.0  0.2000617376595383  0.8231143750052498  0.5419445856102192  1.0000
  H   H21       1.0  0.19841736325830608  0.9131957229498777  0.5526586810937569  1.0000
  H   H22       1.0  0.26318069734518346  0.9425937400745958  0.5259522490187954  1.0000
  H   H23       1.0  0.24708212006337962  0.8192683611124552  0.5193205409365798  1.0000
  H   H24       1.0  0.18274440776824163  0.7898589318433471  0.5464114969314376  1.0000
  C   C37       1.0  0.5888570418567005  0.554477605669795  0.5133366098193861  1.0000
  C   C38       1.0  0.5523233848702933  0.5171785572491803  0.5065631032016743  1.0000
  C   C39       1.0  0.5199111904611792  0.4935415736232127  0.5241494103036788  1.0000
  C   C40       1.0  0.5237497863727327  0.5072320932750337  0.5486466280258526  1.0000
  C   C41       1.0  0.5608262504417341  0.5439209710920856  0.5555724689331549  1.0000
  C   C42       1.0  0.5933821578504715  0.5672273758377285  0.5380623678496483  1.0000
  H   H25       1.0  0.5486905750300354  0.5068229202827833  0.4875222966411049  1.0000
  H   H26       1.0  0.49152692222921623  0.4653099208345251  0.5185911553469061  1.0000
  H   H27       1.0  0.5641628632298512  0.5544630191262088  0.5745525468946645  1.0000
  H   H28       1.0  0.62177086999139  0.5951493874782612  0.5437056050158801  1.0000
  C   C43       1.0  0.6944985560275115  0.8245894922838761  0.5334378484638559  1.0000
  C   C44       1.0  0.6761475963477714  0.8502665711065844  0.5337404080394065  1.0000
  C   C45       1.0  0.7007578945403093  0.8930690227863757  0.5394380641968787  1.0000
  C   C46       1.0  0.7438378805132004  0.9103038622849059  0.5448979542208302  1.0000
  C   C47       1.0  0.7620726967959603  0.8845476558367983  0.5448278145169927  1.0000
  C   C48       1.0  0.7374523890536258  0.8417876445398347  0.539183523110334  1.0000
  H   H29       1.0  0.6428970143218239  0.8371515636740009  0.5293650859042305  1.0000
  H   H30       1.0  0.686435641136527  0.912732399687916  0.5394489965085227  1.0000
  H   H31       1.0  0.7953143334716986  0.8976499806364457  0.5492264006355302  1.0000
  H   H32       1.0  0.7516516970966081  0.8220818165875727  0.5395685432626087  1.0000
  C   C49       1.0  0.845376354329432  0.7001701142146595  0.5484902987581612  1.0000
  C   C50       1.0  0.8575530940021658  0.7044556324869954  0.5234394363578071  1.0000
  C   C51       1.0  0.8931958648374207  0.7014904480662231  0.5163995758297134  1.0000
  C   C52       1.0  0.9174134739607315  0.6951884910968213  0.5343889051767122  1.0000
  C   C53       1.0  0.9058667796685069  0.6919394038146015  0.5594997433232305  1.0000
  C   C54       1.0  0.8697672360953563  0.6941728572589067  0.5665003555983421  1.0000
  H   H33       1.0  0.8392901924166485  0.7095833701633847  0.5094279498937907  1.0000
  H   H34       1.0  0.9020847118743491  0.7041683733612023  0.4969576155154997  1.0000
  H   H35       1.0  0.9243793867415803  0.6870802251688103  0.5734996734837606  1.0000
  H   H36       1.0  0.8606312690703242  0.6910078072542939  0.5859246498434917  1.0000
  C   C55       1.0  0.2880915393272598  0.002528213557278835  0.35688397710585906  1.0000
  C   C56       1.0  0.28307339142995186  0.9829715965411603  0.38023994001031053  1.0000
  C   C57       1.0  0.3160052818833146  0.9999436758966462  0.39774608203062134  1.0000
  C   C58       1.0  0.35449149844257205  0.03614011379820209  0.3917572682954386  1.0000
  C   C59       1.0  0.35966756417063483  0.055374804363528436  0.368314502251673  1.0000
  C   C60       1.0  0.3265314572322649  0.03885271661436567  0.35103367682411296  1.0000
  H   H37       1.0  0.2536113658225848  0.9546034367942345  0.3848220251565659  1.0000
  H   H38       1.0  0.31185137738898105  0.984601542439569  0.4156759201431185  1.0000
  H   H39       1.0  0.38941758996921777  0.08329598116564303  0.3635425982893785  1.0000
  H   H40       1.0  0.3311321655616477  0.05383210382894634  0.3330498653590941  1.0000
  C   C61       1.0  0.06418517624499978  0.2799326621295315  0.37900216382858604  1.0000
  C   C62       1.0  0.06483039396204776  0.2770581234815521  0.40502933477001385  1.0000
  C   C63       1.0  0.07098183717040825  0.31086794166882675  0.41978974311499667  1.0000
  C   C64       1.0  0.07683118195916311  0.34791426311728785  0.4085530350104284  1.0000
  C   C65       1.0  0.07743080521251969  0.35124785837004985  0.3825181374743235  1.0000
  C   C66       1.0  0.07095836973183835  0.31729212020974634  0.36775292031371  1.0000
  H   H41       1.0  0.06008011653513872  0.24832298772369613  0.413754340633916  1.0000
  H   H42       1.0  0.07070081361975411  0.30800581259439164  0.4398092075161375  1.0000
  H   H43       1.0  0.08213777637601871  0.37990323741959975  0.37368865200059564  1.0000
  H   H44       1.0  0.070541782703603  0.31979143340934485  0.3476888119563154  1.0000
  C   C67       1.0  0.22797435192621332  0.18404455363828892  0.302979891286472  1.0000
  C   C68       1.0  0.20509778940364207  0.19945617979842414  0.3156930619122112  1.0000
  C   C69       1.0  0.19186760612489373  0.22454807864706566  0.30319923988327524  1.0000
  C   C70       1.0  0.20241548323741648  0.2351485627286356  0.2781102621772483  1.0000
  C   C71       1.0  0.22590600795477456  0.22031843664702647  0.26546421494595074  1.0000
  C   C72       1.0  0.23816431529131835  0.19424527750943307  0.2777991579027466  1.0000
  H   H45       1.0  0.1972605899616198  0.19168674610025446  0.33518761805315217  1.0000
  H   H46       1.0  0.1741774058344526  0.23634749028861027  0.3131170301931668  1.0000
  H   H47       1.0  0.2341994143601036  0.22862181471583884  0.2460655238096027  1.0000
  H   H48       1.0  0.25628024376898645  0.1828252124122542  0.2680045872484496  1.0000
  C   C73       1.0  0.7852454865695707  0.757850685088965  0.3605836347993167  1.0000
  C   C74       1.0  0.7549169681632775  0.7267770800941706  0.37663396585720543  1.0000
  C   C75       1.0  0.7587736488202562  0.7314723230716652  0.4026265835647599  1.0000
  C   C76       1.0  0.7931649383346593  0.7672159159611642  0.41258114588939593  1.0000
  C   C77       1.0  0.8231048890667175  0.7983918884819758  0.3965200648902544  1.0000
  C   C78       1.0  0.8190867706128225  0.7938327197010845  0.37064324377654295  1.0000
  H   H49       1.0  0.7286248580101161  0.698867500932157  0.36896326745600594  1.0000
  H   H50       1.0  0.7355584623707891  0.7072642142146467  0.4148904062346591  1.0000
  H   H51       1.0  0.8497782809137637  0.8260941393026682  0.4041032584917245  1.0000
  H   H52       1.0  0.8423495864410104  0.8180979650661749  0.3585012503665072  1.0000
  C   C79       1.0  0.021830564687336462  0.878825183503582  0.26362440777076873  1.0000
  C   C80       1.0  0.01640289936829098  0.9042754974394115  0.2462431024180386  1.0000
  C   C81       1.0  0.05119265743992894  0.9426746500021413  0.23849888575849618  1.0000
  C   C82       1.0  0.0914803271206529  0.956025412168293  0.24834856920275555  1.0000
  C   C83       1.0  0.09735926823368111  0.9300649481939107  0.26513863992811276  1.0000
  C   C84       1.0  0.0626417105219923  0.8910329426478606  0.27234612030314953  1.0000
  H   H53       1.0  0.9854946154524448  0.8941383335261496  0.23849172815158448  1.0000
  H   H54       1.0  0.046685753399309395  0.9622312050987765  0.2250742278070448  1.0000
  H   H55       1.0  0.12858553043541335  0.9399863662337038  0.2725080327774307  1.0000
  H   H56       1.0  0.06713422874115915  0.8709289113696534  0.2853606177722175  1.0000
  C   C85       1.0  0.9399816873117374  0.00421882274712404  0.29913785450922764  1.0000
  C   C86       1.0  0.9354104270061178  0.002648901696492123  0.2733158154538208  1.0000
  C   C87       1.0  0.9522167174207655  0.04000187069416561  0.2591854891111141  1.0000
  C   C88       1.0  0.973671124222387  0.0789565934877148  0.27083229540032416  1.0000
  C   C89       1.0  0.9790343365119031  0.08056787889273094  0.29660077304528937  1.0000
  C   C90       1.0  0.9621492256492434  0.04319676374077708  0.3107349368946469  1.0000
  H   H57       1.0  0.9180200269189515  0.9727254263296599  0.26426813096823504  1.0000
  H   H58       1.0  0.9479627879936672  0.038650543250052856  0.23924448192454031  1.0000
  H   H59       1.0  0.9954222519996369  0.1105675437639689  0.3057076642879309  1.0000
  H   H60       1.0  0.965628957763532  0.044531155397507405  0.3307313697539847  1.0000
  C   C91       1.0  0.3255304874907769  0.028421790351089493  0.15784607705929316  1.0000
  C   C92       1.0  0.29106527633431767  0.017786227892963913  0.17396242712296037  1.0000
  C   C93       1.0  0.2970546202423006  0.038014097898741106  0.1967943617188262  1.0000
  C   C94       1.0  0.33767951634688836  0.06901500351001366  0.20374862296468915  1.0000
  C   C95       1.0  0.3722478466146132  0.07982893383041244  0.18761476570914795  1.0000
  C   C96       1.0  0.3662098585936818  0.05968129928112905  0.16464616143919614  1.0000
  H   H61       1.0  0.25949109644196044  0.9936777000344627  0.16879142402868302  1.0000
  H   H62       1.0  0.2701649454532153  0.029558576451644836  0.2089890251622003  1.0000
  H   H63       1.0  0.4037800047609297  0.10382481303513734  0.19290605185825882  1.0000
  H   H64       1.0  0.39296578661979675  0.06810826831266584  0.1523290642287404  1.0000
  C   C97       1.0  0.3990891066622973  0.2342892321580776  0.04934068671858127  1.0000
  C   C98       1.0  0.3907459099967297  0.22105642516316945  0.02474669330658208  1.0000
  C   C99       1.0  0.39231182007186244  0.18532663443682684  0.017470308684893077  1.0000
  C   C100      1.0  0.4020289112829954  0.16248630489972157  0.03470427311414831  1.0000
  C   C101      1.0  0.41095176026118446  0.17599392849273363  0.05927465957293321  1.0000
  C   C102      1.0  0.4093542762923594  0.21179841640823185  0.06659160400191566  1.0000
  H   H65       1.0  0.38279462033183015  0.23812451777476795  0.011308470697472206  1.0000
  H   H66       1.0  0.38559965133527807  0.1751099111559748  0.9983974789369389  1.0000
  H   H67       1.0  0.41930299956578404  0.15897761052417791  0.07250763946853866  1.0000
  H   H68       1.0  0.41617547324157556  0.2221384428082488  0.08561820382287921  1.0000
  C   C103      1.0  0.1647877624564494  0.3432435758656952  0.030073831672630554  1.0000
  C   C104      1.0  0.18498812227564634  0.3216137709274777  0.02166478528970095  1.0000
  C   C105      1.0  0.22884407642318838  0.33826531964364603  0.025171033050732428  1.0000
  C   C106      1.0  0.25269842320694474  0.37696106219732173  0.03673397758103558  1.0000
  C   C107      1.0  0.23245458801366894  0.39854553264520365  0.04505909314644927  1.0000
  C   C108      1.0  0.1886137870483381  0.38164637280250147  0.04188379059384325  1.0000
  H   H69       1.0  0.16653553397938292  0.29159657011167334  0.012831109771830551  1.0000
  H   H70       1.0  0.24412733465578246  0.3211027387102825  0.0191084653222946  1.0000
  H   H71       1.0  0.25077866491110584  0.4285952404136765  0.05391057427403353  1.0000
  H   H72       1.0  0.17342166127715858  0.39876823073629397  0.04817703926172468  1.0000
  C   C109      1.0  0.09784931416270815  0.35583255055837276  0.1721218011766471  1.0000
  C   C110      1.0  0.117468357850765  0.34694360170017147  0.19180873890344172  1.0000
  C   C111      1.0  0.0980112472403549  0.33560832579113253  0.2153853558830327  1.0000
  C   C112      1.0  0.05919070675957938  0.33387260287581527  0.21952082770546988  1.0000
  C   C113      1.0  0.0402205697169975  0.3441209575196193  0.2000779298308332  1.0000
  C   C114      1.0  0.05923684189128253  0.3545625619941067  0.17632008733385787  1.0000
  H   H73       1.0  0.1475381363461593  0.34832771236221777  0.18889229278367886  1.0000
  H   H74       1.0  0.11314038464187601  0.3283310359710355  0.23040818952455702  1.0000
  H   H75       1.0  0.010429311695004495  0.34330637070647024  0.203297364867067  1.0000
  H   H76       1.0  0.04432517253240564  0.362236358559063  0.16140930508651946  1.0000
  C   C115      1.0  0.5398175464110296  0.027071057932262388  0.06016216855493894  1.0000
  C   C116      1.0  0.568988968288618  0.013650595813499589  0.06559364417546454  1.0000
  C   C117      1.0  0.5932407966978779  0.009540205382413403  0.04650710185972917  1.0000
  C   C118      1.0  0.5886720719635722  0.019231523015958096  0.021882496602790402  1.0000
  C   C119      1.0  0.5602635831757287  0.033585829753784345  0.016560293891265454  1.0000
  C   C120      1.0  0.5360648069406672  0.03764202468989429  0.03561536779685606  1.0000
  H   H77       1.0  0.5721498324440563  0.005516635298328465  0.08457918031578071  1.0000
  H   H78       1.0  0.614741789643424  0.9980473102652164  0.05078282080272989  1.0000
  H   H79       1.0  0.5565813678018976  0.04115711775954124  0.9975400230144224  1.0000
  H   H80       1.0  0.5144253184038212  0.04889281611941678  0.0312927925527346  1.0000
  C   C121      1.0  0.8472349002249594  0.16825629765600975  0.03063454497224649  1.0000
  C   C122      1.0  0.8477032821529654  0.14353426967750713  0.05048021093043067  1.0000
  C   C123      1.0  0.875532318209851  0.16253586097247852  0.07042615868179412  1.0000
  C   C124      1.0  0.9029861818970598  0.20617271510457716  0.07052001556299649  1.0000
  C   C125      1.0  0.9016457682781619  0.23083266628552396  0.05095198837962278  1.0000
  C   C126      1.0  0.8738819994544577  0.21193011222020666  0.031068743293966916  1.0000
  H   H81       1.0  0.8271536114857121  0.10978383607033852  0.05030145830710494  1.0000
  H   H82       1.0  0.8763097274107011  0.14328188057257146  0.08557997089156036  1.0000
  H   H83       1.0  0.9219213686146052  0.26453924772432796  0.051165701582883916  1.0000
  H   H84       1.0  0.8733387251556457  0.231206706225797  0.015855700330943412  1.0000
  C   C127      1.0  0.0843251582569935  0.560469234439228  0.027545866995384083  1.0000
  C   C128      1.0  0.05212416655358318  0.5529480441478476  0.04459134861847159  1.0000
  C   C129      1.0  0.031138824273786447  0.514509484545801  0.05784191532380152  1.0000
  C   C130      1.0  0.04240486059229709  0.48355421058749765  0.0542857805798891  1.0000
  C   C131      1.0  0.07566243374011639  0.4917090406431933  0.03789392102827227  1.0000
  C   C132      1.0  0.09658454806917316  0.5301214135246658  0.024593045317753193  1.0000
  H   H85       1.0  0.043392304043072094  0.5766780469322755  0.04750713930437924  1.0000
  H   H86       1.0  0.006009281518694944  0.5085539295308302  0.07092956428167997  1.0000
  H   H87       1.0  0.08464005656663787  0.4680968933875455  0.03508313365798332  1.0000
  H   H88       1.0  0.1218280773471272  0.5359787370593809  0.011609468329848882  1.0000
  C   C133      1.0  0.186325248089752  0.8230942919117051  0.03882763481690965  1.0000
  C   C134      1.0  0.2097812529482517  0.8536017506437049  0.05655084685412343  1.0000
  C   C135      1.0  0.25317818770406636  0.8824359092884224  0.05252451849461146  1.0000
  C   C136      1.0  0.2734465627038786  0.8805276326067554  0.030848105778613202  1.0000
  C   C137      1.0  0.2500283618023608  0.850024711482088  0.013144357788603456  1.0000
  C   C138      1.0  0.2065195824446641  0.821705136245473  0.01698009387443089  1.0000
  H   H89       1.0  0.19437364731319218  0.8549521506985602  0.07347873000229949  1.0000
  H   H90       1.0  0.27100252254463114  0.9058418089887825  0.06630130184505936  1.0000
  H   H91       1.0  0.26546578182152014  0.8486156068313334  0.9962521966093564  1.0000
  H   H92       1.0  0.18870994167160304  0.7988932147778831  0.0029911554772752424  1.0000
  C   C139      1.0  0.5305063966690557  0.48593149849268163  0.01260683932441764  1.0000
  C   C140      1.0  0.5715012221251897  0.5174792845392137  0.0053331349500838066  1.0000
  C   C141      1.0  0.6016232184940954  0.5423777266336892  0.023202067947995397  1.0000
  C   C142      1.0  0.5910040262967814  0.5355742044250268  0.048514863948791564  1.0000
  C   C143      1.0  0.5498510352141252  0.5044997044095586  0.0557445293597222  1.0000
  C   C144      1.0  0.519588967138418  0.4801938173154612  0.03787084842285821  1.0000
  H   H93       1.0  0.5802331125512421  0.5222010990779008  0.985804880440731  1.0000
  H   H94       1.0  0.6333931996658763  0.5659512329908406  0.01742956882805835  1.0000
  H   H95       1.0  0.5413119230759514  0.4993221767819029  0.07529424826881333  1.0000
  H   H96       1.0  0.4878787242126134  0.45692972875413906  0.04366762877521119  1.0000
  C   C145      1.0  0.6930416514481409  0.8077085073997167  0.046478895270316845  1.0000
  C   C146      1.0  0.7307413182871262  0.8310977421934312  0.059551379560795904  1.0000
  C   C147      1.0  0.7486272544333503  0.8748325574775184  0.061472189266330426  1.0000
  C   C148      1.0  0.729238453515603  0.8954616842068466  0.05012173806867448  1.0000
  C   C149      1.0  0.6914311397663506  0.8719999412886649  0.03716769236150386  1.0000
  C   C150      1.0  0.6733228313553384  0.8282451719533197  0.035433813635673106  1.0000
  H   H97       1.0  0.746060763463721  0.8155562248587956  0.0682713580317258  1.0000
  H   H98       1.0  0.7777555891783723  0.8927932930733282  0.07166697457306544  1.0000
  H   H99       1.0  0.6759174856313739  0.8875226340317863  0.028705813708091332  1.0000
  H   H100      1.0  0.6440228111547893  0.8103074877184875  0.025419783696412512  1.0000
  C   C151      1.0  0.8530460867008004  0.6874790561732053  0.014626550587899745  1.0000
  C   C152      1.0  0.839831567199261  0.6498939407215665  0.02782818771519535  1.0000
  C   C153      1.0  0.8662422459145527  0.6321512665778836  0.028908481103542272  1.0000
  C   C154      1.0  0.9061131693063347  0.6520247687250691  0.016958591530664924  1.0000
  C   C155      1.0  0.9194646476051884  0.689769851723441  0.0039106717862535945  1.0000
  C   C156      1.0  0.8928481680224339  0.7072681620860517  0.0026203304967036267  1.0000
  H   H101      1.0  0.8089383645196092  0.6341110877111379  0.0368103183386296  1.0000
  H   H102      1.0  0.8556136979467323  0.6028089465384184  0.0389104467354966  1.0000
  H   H103      1.0  0.9499709423251141  0.7051831243564021  0.9944826142259782  1.0000
  H   H104      1.0  0.903135471122737  0.7362491551038585  0.9922540912963974  1.0000
  C   C157      1.0  0.7967474170336744  0.7481074143473372  0.15486385721654045  1.0000
  C   C158      1.0  0.8243736698026396  0.7551046047457759  0.17474545325730953  1.0000
  C   C159      1.0  0.827871214552083  0.7818121133701674  0.19417757140613287  1.0000
  C   C160      1.0  0.8033698670816503  0.80138708741129  0.19398830952880103  1.0000
  C   C161      1.0  0.775916547433709  0.7946033286745121  0.17402988566385816  1.0000
  C   C162      1.0  0.7726724947672099  0.7681315094483678  0.154458221730359  1.0000
  H   H105      1.0  0.843109712292635  0.7397240174677742  0.1751766991617028  1.0000
  H   H106      1.0  0.8492492262841047  0.7869621415345563  0.2093965641147568  1.0000
  H   H107      1.0  0.7569180875688813  0.8097250227424363  0.17376460389190224  1.0000
  H   H108      1.0  0.7513544893857752  0.7630003759101072  0.13920286720044978  1.0000
  C   C163      1.0  0.28778885317548863  0.3033926456082481  0.6991983291073415  1.0000
  C   C164      1.0  0.2977323846548892  0.2713312405781317  0.6982944213767157  1.0000
  C   C165      1.0  0.3218961878559041  0.269739786210739  0.6783682443245649  1.0000
  C   C166      1.0  0.3360245063799992  0.2999468461490894  0.6591099531611171  1.0000
  C   C167      1.0  0.3258608028923435  0.3319107995619793  0.6598536995630273  1.0000
  C   C168      1.0  0.3017720370509209  0.3336028980924912  0.6798848045226774  1.0000
  H   H109      1.0  0.2868949240804724  0.2477282548190096  0.7129824569343786  1.0000
  H   H110      1.0  0.3295321051332129  0.24484386925324214  0.6778794647885067  1.0000
  H   H111      1.0  0.3370038817532199  0.35556640451825483  0.6451931440713581  1.0000
  H   H112      1.0  0.29436793505289355  0.35864047324228626  0.6805825378163055  1.0000
  C   C169      1.0  0.3117336275810624  0.2868588819634748  0.9175325254044564  1.0000
  C   C170      1.0  0.2791415669416936  0.25852655307864597  0.9021058776619746  1.0000
  C   C171      1.0  0.28349848653714965  0.2626100647793393  0.8760755627085751  1.0000
  C   C172      1.0  0.3205963039987721  0.29511699624165233  0.8652404776527021  1.0000
  C   C173      1.0  0.3530813633210101  0.32380209210745514  0.8806598134177653  1.0000
  C   C174      1.0  0.34867328796283287  0.3197670964057052  0.9067557654297771  1.0000
  H   H113      1.0  0.2504555136726903  0.23301365428142198  0.9103106629128735  1.0000
  H   H114      1.0  0.25830100733808253  0.240348143580087  0.8643997436167079  1.0000
  H   H115      1.0  0.38189963524906484  0.3490060807803322  0.8723971058236835  1.0000
  H   H116      1.0  0.37394181509498076  0.3418079233368518  0.9184773778412441  1.0000
  C   C175      1.0  0.7476511808702597  0.9934335717197283  0.6922059447734948  1.0000
  C   C176      1.0  0.7250235827283703  0.9741886279404569  0.6706475717603068  1.0000
  C   C177      1.0  0.7201817129530942  0.9980510411407043  0.6517128658270853  1.0000
  C   C178      1.0  0.7363557808934735  0.04107940407875699  0.6547483906295156  1.0000
  C   C179      1.0  0.7578860605988823  0.060163771893160585  0.6766303726276305  1.0000
  C   C180      1.0  0.7641465222718414  0.03652969665318897  0.695174709177122  1.0000
  H   H117      1.0  0.7118615141867322  0.9407458738077997  0.6684585368756361  1.0000
  H   H118      1.0  0.703590065810063  0.9829555539829556  0.634958733051668  1.0000
  H   H119      1.0  0.7703188877111222  0.0934311185218168  0.6791253882705268  1.0000
  H   H120      1.0  0.7813815849422187  0.05154070527046751  0.7118253605430701  1.0000
  C   C181      1.0  0.7941559175654941  0.03984645339560009  0.8571903344941291  1.0000
  C   C182      1.0  0.7855971479507391  0.05932831479087272  0.876892176879515  1.0000
  C   C183      1.0  0.7738666178463546  0.03981636490743838  0.9005632858177686  1.0000
  C   C184      1.0  0.7705609985765275  0.0006381024672421619  0.9045871066822484  1.0000
  C   C185      1.0  0.7795358488300461  0.9814209550923187  0.8849353379291699  1.0000
  C   C186      1.0  0.791390534661628  0.0009675843429166608  0.8613322680991499  1.0000
  H   H121      1.0  0.7875738946124325  0.08935986952439774  0.8737748123959224  1.0000
  H   H122      1.0  0.7669272673324703  0.0548163073108481  0.9155720928910396  1.0000
  H   H123      1.0  0.7770100030920173  0.9511063695843783  0.8878733456702188  1.0000
  H   H124      1.0  0.7979292812868499  0.9856978227429126  0.8462804349650861  1.0000
  C   C187      1.0  0.0017315024714532612  0.12316999046793133  0.7622058583103072  1.0000
  C   C188      1.0  0.04081026583824632  0.15719546934209855  0.754399191875783  1.0000
  C   C189      1.0  0.07624811884133431  0.1729543397783027  0.7700543035139126  1.0000
  C   C190      1.0  0.07232750784221693  0.155253540314309  0.793775392297626  1.0000
  C   C191      1.0  0.03356742128113788  0.12082359815393791  0.8013892948920005  1.0000
  C   C192      1.0  0.9986729437990057  0.10434718901759153  0.785445575217192  1.0000
  H   H125      1.0  0.04353239467331771  0.17174964487642025  0.7363507661488295  1.0000
  H   H126      1.0  0.10616347798922983  0.19961111860798572  0.7640767696571117  1.0000
  H   H127      1.0  0.030629595664469104  0.10662589843160046  0.8195820901111361  1.0000
  H   H128      1.0  0.96953161790893  0.07706453273608267  0.7911940665656579  1.0000
  C   C193      1.0  0.07739027908724658  0.7656592554141197  0.7150430003269134  1.0000
  C   C194      1.0  0.03881679101634921  0.764197282650765  0.7105600237158682  1.0000
  C   C195      1.0  0.014524877796200781  0.7428612458691561  0.6898250726687303  1.0000
  C   C196      1.0  0.02919485825559765  0.723972939906597  0.6730226286156549  1.0000
  C   C197      1.0  0.06804053783192009  0.7259129651526489  0.6772962338452493  1.0000
  C   C198      1.0  0.09189909642825314  0.7464159700409195  0.6983760297532492  1.0000
  H   H129      1.0  0.02768369383552337  0.7796033602546679  0.7229512411067175  1.0000
  H   H130      1.0  0.9844604727907706  0.7414472284526165  0.6865795514102678  1.0000
  H   H131      1.0  0.07928734096274963  0.7109387271741576  0.6645863703992297  1.0000
  H   H132      1.0  0.12176529046137347  0.7474931914498137  0.701714495057664  1.0000
  C   C199      1.0  0.025072439819566528  0.7604870852871786  0.8666585814697707  1.0000
  C   C200      1.0  0.06252140509838333  0.760731192548388  0.8604851746962695  1.0000
  C   C201      1.0  0.08294851334826125  0.7490486788298115  0.8783034787086192  1.0000
  C   C202      1.0  0.0661486318752953  0.7370784756638911  0.9024623087516591  1.0000
  C   C203      1.0  0.028241565576390935  0.7360644587020205  0.908612472292694  1.0000
  C   C204      1.0  0.00762445363018781  0.7475511848266134  0.8906519938387047  1.0000
  H   H133      1.0  0.07580961774787154  0.7698498362048732  0.8420029650480495  1.0000
  H   H134      1.0  0.11219612075403673  0.7497071830990516  0.8734636018548728  1.0000
  H   H135      1.0  0.015071303913602079  0.7268586135100141  0.927218792785177  1.0000
  H   H136      1.0  0.9784627323953807  0.7470633627246304  0.8955001275562907  1.0000
  C   C205      1.0  0.9709931487247931  0.9097737041736057  0.7627206260941246  1.0000
  C   C206      1.0  0.953389456820369  0.9313991299486012  0.7507671339027999  1.0000
  C   C207      1.0  0.9207232632421045  0.9349200243910827  0.7622538496841287  1.0000
  C   C208      1.0  0.904742416767155  0.9161275394014143  0.7855281608912972  1.0000
  C   C209      1.0  0.9220239687427854  0.8939526146275228  0.797382668569392  1.0000
  C   C210      1.0  0.9553304249758141  0.8909890051052581  0.786070678301594  1.0000
  H   H137      1.0  0.9652444486370511  0.9457918833145043  0.7326549367788547  1.0000
  H   H138      1.0  0.9075658731565457  0.9516384325459343  0.752842722977899  1.0000
  H   H139      1.0  0.9096679709945547  0.8791420203110945  0.8153445646464799  1.0000
  H   H140      1.0  0.9684886275716937  0.8738626863701731  0.7953158360460213  1.0000
  C   C211      1.0  0.19132439750170238  0.003548991501448384  0.8036054368338341  1.0000
  C   C212      1.0  0.20419156523379942  0.04172891891735553  0.8154500536888508  1.0000
  C   C213      1.0  0.2183709900761207  0.07888187487484045  0.8013187779419786  1.0000
  C   C214      1.0  0.22049969455174506  0.07796475857039505  0.775361108938922  1.0000
  C   C215      1.0  0.2081927505641524  0.039889975767171626  0.7636223642860414  1.0000
  C   C216      1.0  0.1933241535385204  0.0027428103211866173  0.7776837097357218  1.0000
  H   H141      1.0  0.202881322670064  0.0425609669504492  0.8355205447729043  1.0000
  H   H142      1.0  0.2283636736637422  0.10825458288645722  0.8105230008881152  1.0000
  H   H143      1.0  0.2101547765765084  0.039113378699064005  0.7435721187337175  1.0000
  H   H144      1.0  0.1845288952942119  0.9736924449995746  0.7684492047071769  1.0000
  N   N1        1.0  0.44091687975099997  0.9165323810764548  0.019477736035103055  1.0000
  C   C217      1.0  0.4818343541308626  0.9171691610512648  0.017865023550579062  1.0000
  C   C218      1.0  0.44188359993698856  0.9489348599030516  0.0024783960401413285  1.0000
  C   C219      1.0  0.433828002515879  0.9251956302759469  0.04528861995552291  1.0000
  C   C220      1.0  0.40605045476570184  0.8748070106719826  0.012284228865878655  1.0000
  H   H145      1.0  0.48944711594704  0.9128233354619987  0.9984468278933986  1.0000
  H   H146      1.0  0.4817484177698597  0.8921834629554457  0.02978670979145237  1.0000
  H   H147      1.0  0.5084540895695514  0.94755043831649  0.024232666228316324  1.0000
  H   H148      1.0  0.41145732617377845  0.9493241188159084  0.003274163799322327  1.0000
  H   H149      1.0  0.46760372997852634  0.9808565957382249  0.007377356568532223  1.0000
  H   H150      1.0  0.4472512526280052  0.9435101008432288  0.9828339146173306  1.0000
  H   H151      1.0  0.402766871183105  0.9238856286572833  0.04736368204194452  1.0000
  H   H152      1.0  0.4587103893512955  0.9570096263567106  0.05107451705777577  1.0000
  H   H153      1.0  0.43412727852015975  0.9021866352103782  0.05878110444073248  1.0000
  H   H154      1.0  0.4105491004182484  0.8672016837117221  0.992950539657252  1.0000
  H   H155      1.0  0.3747825965791809  0.8735296744446398  0.013071037720131073  1.0000
  H   H156      1.0  0.40389129357374765  0.8496208119407331  0.024924031644576683  1.0000
  N   N2        1.0  0.20673720054630473  0.4193411910690432  0.4492813933294055  1.0000
  C   C221      1.0  0.21214227856432388  0.41509511010544126  0.47620973587239096  1.0000
  C   C222      1.0  0.17623679330146994  0.3777998072871164  0.4392724408128341  1.0000
  C   C223      1.0  0.2480664879926637  0.43587373393061485  0.4363137842349763  1.0000
  C   C224      1.0  0.190327929195288  0.4485000136532808  0.4453358683719873  1.0000
  H   H157      1.0  0.2347433736697048  0.44579658995212673  0.48455946741236877  1.0000
  H   H158      1.0  0.2241819295733618  0.3930810107360818  0.4800656904802007  1.0000
  H   H159      1.0  0.18149306525344175  0.4028408865297099  0.48648297909830035  1.0000
  H   H160      1.0  0.1707147499038697  0.3798208578637272  0.419045651953727  1.0000
  H   H161      1.0  0.18744505620903615  0.354852254741233  0.4418026823307071  1.0000
  H   H162      1.0  0.14482510459200876  0.36449519878016373  0.4487271286902623  1.0000
  H   H163      1.0  0.2718743928246374  0.4672047361699143  0.4434202711833927  1.0000
  H   H164      1.0  0.24494483681165607  0.439367576604152  0.41593805050751537  1.0000
  H   H165      1.0  0.26124647618171437  0.41451165254136424  0.43892855151377264  1.0000
  H   H166      1.0  0.1841459406559733  0.45122337246178196  0.42530018291999794  1.0000
  H   H167      1.0  0.21282867380544193  0.4804818020510895  0.45213631151121286  1.0000
  H   H168      1.0  0.15964078251014885  0.4373526407647618  0.45538267163616103  1.0000
  N   N3        1.0  0.08419469717885028  0.0403788095270385  0.776832841921488  1.0000
  C   C225      1.0  0.04068076677383048  0.033943186378653206  0.7773871838723401  1.0000
  C   C226      1.0  0.08614053001306513  0.008817549517598834  0.793225244697588  1.0000
  C   C227      1.0  0.11441563615447242  0.08307569288322297  0.7854941887180321  1.0000
  C   C228      1.0  0.0954805924472403  0.035560527225127064  0.7511391136329776  1.0000
  H   H169      1.0  0.017046322357105126  0.0019191685592816474  0.7712310611341442  1.0000
  H   H170      1.0  0.037807556632297956  0.056812365313540676  0.7649347827922519  1.0000
  H   H171      1.0  0.031174593579896822  0.037602907176578736  0.7964604975971064  1.0000
  H   H172      1.0  0.11849570089190811  0.01264904448732507  0.7931114166002515  1.0000
  H   H173      1.0  0.07788823209251412  0.011413060379870329  0.8127988680828291  1.0000
  H   H174      1.0  0.06363647264401562  0.9762562506036554  0.7870953722346099  1.0000
  H   H175      1.0  0.10726388295401355  0.08780520870173654  0.8049409377887692  1.0000
  H   H176      1.0  0.11319732457231155  0.10753700548127237  0.7737010982110939  1.0000
  H   H177      1.0  0.14771696485393862  0.0894059399549107  0.7849095295988743  1.0000
  H   H178      1.0  0.12828770415502086  0.040475155762191115  0.7500800031195899  1.0000
  H   H179      1.0  0.09412748414063891  0.058683008511476016  0.7381806284149232  1.0000
  H   H180      1.0  0.07338706709141071  0.00349415344713022  0.7441190658683345  1.0000
  N   N4        1.0  0.764666498177992  0.8839932384134614  0.9727155934875177  1.0000
  C   C229      1.0  0.7196707257449911  0.8715787193096775  0.9688215965128364  1.0000
  C   C230      1.0  0.7669807379184012  0.851340712158938  0.9878329681330756  1.0000
  C   C231      1.0  0.7863054099629799  0.9243296778548542  0.9858819322643795  1.0000
  C   C232      1.0  0.7856798399411015  0.8887962723495652  0.9483387604106146  1.0000
  H   H181      1.0  0.7023033620294171  0.8411951093184331  0.9590336794838704  1.0000
  H   H182      1.0  0.7167093422146796  0.8954640289690207  0.9574503715018237  1.0000
  H   H183      1.0  0.7029491233702144  0.868202196717782  0.9867527711891959  1.0000
  H   H184      1.0  0.8004485621263455  0.8593762778217732  0.9909296393609134  1.0000
  H   H185      1.0  0.7520247702799757  0.8476073169084642  0.006475991024798677  1.0000
  H   H186      1.0  0.7502819138216479  0.8201944444952803  0.9787829141980824  1.0000
  H   H187      1.0  0.785974490832416  0.9498734838652017  0.974797326600584  1.0000
  H   H188      1.0  0.8200435316650557  0.9342428658276345  0.989700707408034  1.0000
  H   H189      1.0  0.7705873836378514  0.922324365092245  0.004019597404496755  1.0000
  H   H190      1.0  0.8197959964985488  0.8985387749269372  0.9504919104920081  1.0000
  H   H191      1.0  0.7842018740210828  0.9131464776160944  0.9364806562796926  1.0000
  H   H192      1.0  0.7702337867893283  0.8589655897079277  0.9378645120547752  1.0000
  N   N5        1.0  0.42078998012688756  0.226732615888857  0.5983846909522158  1.0000
  C   C233      1.0  0.4450806520640387  0.2200787729590889  0.5786306775907101  1.0000
  C   C234      1.0  0.4485687606437704  0.2670194389336486  0.6106826416803112  1.0000
  C   C235      1.0  0.40501096158622346  0.19195384388210893  0.6168743813227562  1.0000
  C   C236      1.0  0.3843637753477421  0.22800017722242907  0.5872587131192469  1.0000
  H   H193      1.0  0.424732907923758  0.1905945021937359  0.5683865833387169  1.0000
  H   H194      1.0  0.47237886766695847  0.21806514765766763  0.5863188601462813  1.0000
  H   H195      1.0  0.4580794093263316  0.24634002921114034  0.5646612580554783  1.0000
  H   H196      1.0  0.4609465198840728  0.29382318651824424  0.5971200855640432  1.0000
  H   H197      1.0  0.4310683081336739  0.27337533496767047  0.625460634356573  1.0000
  H   H198      1.0  0.4763784429940359  0.26728174153635725  0.6194235785307125  1.0000
  H   H199      1.0  0.43163699038845976  0.19000253893911984  0.6256910047513895  1.0000
  H   H200      1.0  0.38384388096483946  0.1611731343873459  0.608094476346645  1.0000
  H   H201      1.0  0.3864681988633182  0.1961582872098491  0.6319765655770746  1.0000
  H   H202      1.0  0.3631024038081114  0.19853838963605033  0.5772770358268062  1.0000
  H   H203      1.0  0.39536611429931173  0.25438113955793884  0.5735783134350719  1.0000
  H   H204      1.0  0.36501115511040183  0.2326205391076453  0.6016020978454487  1.0000
  N   N6        1.0  0.5533552479563629  0.6537982050683061  0.5310521730313356  1.0000
  C   C237      1.0  0.5794470532178776  0.6613871901563254  0.5535099310966112  1.0000
  C   C238      1.0  0.5404258048407602  0.685966311577401  0.5291068901859465  1.0000
  C   C239      1.0  0.5152042956572888  0.6115396180137619  0.5327966041080506  1.0000
  C   C240      1.0  0.5785147930216792  0.6564962917904495  0.5087578100751724  1.0000
  H   H205      1.0  0.5895785090521902  0.637615807909879  0.5557191435997666  1.0000
  H   H206      1.0  0.5616467724747856  0.6600323193241193  0.5706854577276659  1.0000
  H   H207      1.0  0.6087829774568879  0.6928430072564424  0.5526264574568179  1.0000
  H   H208      1.0  0.5686802802136514  0.7182218799806821  0.5279718477162557  1.0000
  H   H209      1.0  0.5211960006552426  0.6816697742741198  0.5121880994415782  1.0000
  H   H210      1.0  0.5211872295721806  0.6847627092932662  0.5455583984539308  1.0000
  H   H211      1.0  0.5238890713268268  0.5865073633025637  0.5334637376045696  1.0000
  H   H212      1.0  0.49428581435047564  0.6051448007759314  0.5164357920708874  1.0000
  H   H213      1.0  0.49609509558284676  0.6077204004486672  0.5498511122043317  1.0000
  H   H214      1.0  0.5596266021780286  0.6499287247790042  0.4914732479289127  1.0000
  H   H215      1.0  0.5898939900358954  0.6335394978368618  0.5098428950291582  1.0000
  H   H216      1.0  0.6069636849729386  0.6882621991929845  0.5065712085862327  1.0000
  N   N7        1.0  0.8954677176792133  0.7283106486611598  0.09067725015343046  1.0000
  C   C241      1.0  0.9126971983941661  0.7496994026033779  0.11446936440176944  1.0000
  C   C242      1.0  0.8739625372855184  0.7481402249765509  0.07780202773357688  1.0000
  C   C243      1.0  0.8646622307409364  0.6834751175562579  0.09568007808369976  1.0000
  C   C244      1.0  0.9303701066813037  0.7318918705524203  0.07473230656055188  1.0000
  H   H217      1.0  0.929118324935102  0.7355870048213079  0.12478234403355501  1.0000
  H   H218      1.0  0.886883601255124  0.7473987247906052  0.12684181747986736  1.0000
  H   H219      1.0  0.9358185534351628  0.7836807417485776  0.11143874812161329  1.0000
  H   H220      1.0  0.8593918075356182  0.732035115076383  0.06016914111743101  1.0000
  H   H221      1.0  0.8481176381950124  0.7469146701038669  0.08952215190229126  1.0000
  H   H222      1.0  0.8963725570623238  0.7817074125395715  0.07310480282123612  1.0000
  H   H223      1.0  0.8505276775453837  0.6665119927450959  0.07819431852300689  1.0000
  H   H224      1.0  0.8379310752753935  0.6795510835849292  0.10771988720420173  1.0000
  H   H225      1.0  0.879830957968138  0.6674179477362826  0.10523245374019705  1.0000
  H   H226      1.0  0.9182050409051428  0.7162215035247304  0.056599129523469724  1.0000
  H   H227      1.0  0.947191624534084  0.7169720471890739  0.08370219067570314  1.0000
  H   H228      1.0  0.954262874705858  0.7652839833053058  0.07053133349897592  1.0000
  N   N8        1.0  0.7385074288341191  0.5715696460545621  0.538442441984523  1.0000
  C   C245      1.0  0.7681754629794629  0.5938053615547818  0.5175274961391005  1.0000
  C   C246      1.0  0.7627552733852413  0.579897326146366  0.5617478862644776  1.0000
  C   C247      1.0  0.7152391704400414  0.5259893127181742  0.5337554083947407  1.0000
  C   C248      1.0  0.7078880637829842  0.5867145843058283  0.5406657573524752  1.0000
  H   H229      1.0  0.792416066503195  0.5839539394082502  0.5155466053875641  1.0000
  H   H230      1.0  0.7856725216602933  0.6282590138029743  0.5203893900067692  1.0000
  H   H231      1.0  0.7511472235302595  0.588125896666603  0.4995540631917445  1.0000
  H   H232      1.0  0.7414951082857452  0.5637045666169271  0.5779904495807996  1.0000
  H   H233      1.0  0.7866369588526336  0.5694466677529489  0.5606378863301318  1.0000
  H   H234      1.0  0.7805135761557948  0.6140911229444447  0.5657985983128994  1.0000
  H   H235      1.0  0.6963969731011758  0.5188353588461766  0.5163608930074475  1.0000
  H   H236      1.0  0.6926199698704002  0.5082133833111724  0.5492218794975708  1.0000
  H   H237      1.0  0.7374004492229668  0.5135545197159047  0.5317532138113806  1.0000
  H   H238      1.0  0.6844868580004212  0.5701916470570282  0.55598943831246  1.0000
  H   H239      1.0  0.6896895308588733  0.5817769557685328  0.5231994146061574  1.0000
  H   H240      1.0  0.7243698344173434  0.6208774292850128  0.5446150909368694  1.0000
  N   N9        1.0  0.9938048213372899  0.2103641822757405  0.015087522508985927  1.0000
  C   C249      1.0  0.02589423870196561  0.206453742747156  0.00025704254931668835  1.0000
  C   C250      1.0  0.951990980475919  0.17178575235829371  0.012876476052171569  1.0000
  C   C251      1.0  0.9908890501770589  0.2468484682738341  0.0058271111861702965  1.0000
  C   C252      1.0  0.006560477119977195  0.21652876913596072  0.04145456513632233  1.0000
  H   H241      1.0  0.05773382460375343  0.23531503226993797  0.0015515948338420404  1.0000
  H   H242      1.0  0.01723372883660666  0.20162309856800342  0.9802561398345103  1.0000
  H   H243      1.0  0.029227755591058037  0.17946965190491304  0.006903205648152166  1.0000
  H   H244      1.0  0.9274640557207389  0.1735411779487722  0.024345872335187035  1.0000
  H   H245      1.0  0.940591894864847  0.16659879842017095  0.9933481019232537  1.0000
  H   H246      1.0  0.9530230936920542  0.1434602252196159  0.019362376988953267  1.0000
  H   H247      1.0  0.9670556314310348  0.25080502594492554  0.01665098076242555  1.0000
  H   H248      1.0  0.9812618664671695  0.24332340438643005  0.9859942048722853  1.0000
  H   H249      1.0  0.021874318959698356  0.27655898780466287  0.007370506186341386  1.0000
  H   H250      1.0  0.007793279925043308  0.18909030446335098  0.04938945050269408  1.0000
  H   H251      1.0  0.98387373883555  0.2210536411715332  0.05305656404562831  1.0000
  H   H252      1.0  0.03843631353710551  0.2447675018304258  0.043743477779433014  1.0000
  N   N10       1.0  0.719005604326388  0.7127250884573957  0.25658968115810815  1.0000
  C   C253      1.0  0.7317658583747472  0.7555086414617336  0.26492881347858854  1.0000
  C   C254      1.0  0.7315652253640016  0.6914173775002366  0.2754105554371131  1.0000
  C   C255      1.0  0.7403210700746644  0.7153866880971422  0.23263404248846103  1.0000
  C   C256      1.0  0.6724827501582695  0.6887860039506468  0.2533916874440452  1.0000
  H   H253      1.0  0.7228139364828803  0.7727148813162542  0.2512676431471454  1.0000
  H   H254      1.0  0.7666835365503856  0.7744689351056078  0.26697527335692417  1.0000
  H   H255      1.0  0.7174782909868587  0.7550857385967129  0.2833514614084646  1.0000
  H   H256      1.0  0.7163736097677226  0.6891981531982229  0.2938234836816161  1.0000
  H   H257      1.0  0.7227348230280229  0.6591101884293992  0.2697671441576817  1.0000
  H   H258      1.0  0.7665072103127795  0.7089862628695273  0.27846323664176054  1.0000
  H   H259      1.0  0.7314584136300907  0.6838062039097069  0.22554639083444586  1.0000
  H   H260      1.0  0.7754950610420436  0.733274544164942  0.23449146342216554  1.0000
  H   H261      1.0  0.732133325001145  0.7319574342580878  0.21809766266559086  1.0000
  H   H262      1.0  0.6617308177200466  0.6562963743585292  0.24712731195324938  1.0000
  H   H263      1.0  0.6621403533980541  0.7041549072708496  0.23926472127551884  1.0000
  H   H264      1.0  0.6555666405872647  0.6864664509914693  0.27115683815433284  1.0000
  N   N11       1.0  0.22334413491714866  0.2682429481314559  0.608694867253797  1.0000
  C   C257      1.0  0.25498180496794437  0.313356485573587  0.6059701907565218  1.0000
  C   C258      1.0  0.18349799199884162  0.2634168669992152  0.6191875722300805  1.0000
  C   C259      1.0  0.24000766103821955  0.24789445388356324  0.6255469428532807  1.0000
  C   C260      1.0  0.21503151371418713  0.24848825942310018  0.5840293607420063  1.0000
  H   H265      1.0  0.28527487797730683  0.31788584568009703  0.5980539370162785  1.0000
  H   H266      1.0  0.26220438105412636  0.32946537725024005  0.6241637583656888  1.0000
  H   H267      1.0  0.2437648098838897  0.3297264021122418  0.5931349661480211  1.0000
  H   H268      1.0  0.17021185242385287  0.278558311904099  0.6068920312197759  1.0000
  H   H269      1.0  0.15885825302355863  0.2297199573863886  0.621512721079157  1.0000
  H   H270      1.0  0.18877385846113884  0.2781102187826293  0.6377993765934059  1.0000
  H   H271      1.0  0.21752769278119857  0.21357419282327117  0.6275628551766045  1.0000
  H   H272      1.0  0.2455981761937367  0.26133778638582666  0.6445219916685307  1.0000
  H   H273      1.0  0.27087683704547544  0.25220202022017274  0.6185853268746709  1.0000
  H   H274      1.0  0.19149929508865896  0.2143423534607535  0.5852397321169398  1.0000
  H   H275      1.0  0.24466001949188812  0.25220145326565  0.5754101119800639  1.0000
  H   H276      1.0  0.20253822820693795  0.2632386091463357  0.5708287006997377  1.0000
  N   N12       1.0  0.5244029522780593  0.37188599156867874  0.053256020943895484  1.0000
  C   C261      1.0  0.525045517993425  0.33288418375346623  0.059327300277144286  1.0000
  C   C262      1.0  0.5020975992889092  0.38045761988175875  0.07336492887780702  1.0000
  C   C263      1.0  0.5018544899164807  0.3665677848942047  0.02959504454318984  1.0000
  C   C264      1.0  0.5683428569194346  0.4074643067252128  0.050683101801836834  1.0000
  H   H277      1.0  0.49215149602868585  0.30560595578897554  0.061485135705218935  1.0000
  H   H278      1.0  0.5419393923532381  0.3356317300909481  0.07703343408680505  1.0000
  H   H279      1.0  0.5409980930566448  0.3249944656212395  0.04437794250542133  1.0000
  H   H280      1.0  0.5010419885126175  0.40965742011472694  0.06948346733680397  1.0000
  H   H281      1.0  0.46863918196565746  0.35447883840041833  0.07556956792808817  1.0000
  H   H282      1.0  0.5179811987780785  0.3842104917425483  0.09156604946943883  1.0000
  H   H283      1.0  0.49949383564331234  0.3947817521951514  0.024678368598520795  1.0000
  H   H284      1.0  0.4690275534393258  0.339307109665589  0.030749756293720787  1.0000
  H   H285      1.0  0.5182040027047519  0.36100837094108995  0.013821521601567353  1.0000
  H   H286      1.0  0.5861932649865238  0.4129933034139034  0.06832211976178115  1.0000
  H   H287      1.0  0.5687441154168766  0.4371524418278737  0.04564408475326742  1.0000
  H   H288      1.0  0.5862143125216916  0.4018716660318111  0.035820127177492056  1.0000
  N   N13       1.0  0.6543363779365605  0.10299941779526907  0.4802432784046395  1.0000
  C   C265      1.0  0.6207322527636604  0.10981873025059298  0.4908092115675594  1.0000
  C   C266      1.0  0.6472334928360466  0.09518335240556629  0.4533222381755562  1.0000
  C   C267      1.0  0.6530614439991148  0.06628964115078076  0.4926476320666361  1.0000
  C   C268      1.0  0.6963015434620005  0.14061508385142849  0.48422670774448884  1.0000
  H   H289      1.0  0.6259356372068733  0.11721899929429558  0.5109251751793897  1.0000
  H   H290      1.0  0.5886762092057676  0.081446772351623  0.48900016073434  1.0000
  H   H291      1.0  0.619705857933038  0.1363873229455478  0.48136051305360117  1.0000
  H   H292      1.0  0.6718302407830309  0.08953793254060703  0.4447889867012921  1.0000
  H   H293      1.0  0.6156255329865928  0.06709090753292668  0.44980809843250846  1.0000
  H   H294      1.0  0.6481979336433875  0.122349736989869  0.44332517326873766  1.0000
  H   H295      1.0  0.6577464130710432  0.07083711874619777  0.5130359616753892  1.0000
  H   H296      1.0  0.6784287417814875  0.06059964546992883  0.48543251134382753  1.0000
  H   H297      1.0  0.6220006106821768  0.03710705009423912  0.48991884830287463  1.0000
  H   H298      1.0  0.6984738560524106  0.16915431352553637  0.47540561931261266  1.0000
  H   H299      1.0  0.7224988026370199  0.13664227035313764  0.47647257212877986  1.0000
  H   H300      1.0  0.7028936098799248  0.14693028139354303  0.5044271646228095  1.0000
  N   N14       1.0  0.026661254171587795  0.9492945256546842  0.32908638930232886  1.0000
  C   C269      1.0  0.013444257380616107  0.9542042841432438  0.30387834925371  1.0000
  C   C270      1.0  0.9971244450544154  0.9500822078577028  0.34772166654763864  1.0000
  C   C271      1.0  0.07019830875373076  0.9840904090148115  0.33359235712486157  1.0000
  C   C272      1.0  0.025893266505152054  0.9087961919753907  0.33111953593967774  1.0000
  H   H301      1.0  0.03588219162999131  0.9552636643805575  0.28944239021648316  1.0000
  H   H302      1.0  0.01158998888212739  0.9834046450433765  0.30201392273480226  1.0000
  H   H303      1.0  0.9814497351005044  0.9275954432683741  0.29939827985226003  1.0000
  H   H304      1.0  0.0063715969180259315  0.9471154717636752  0.36700391939351856  1.0000
  H   H305      1.0  0.9959605547124234  0.9797378665982721  0.3463332795229992  1.0000
  H   H306      1.0  0.9640960573240872  0.9238520000752608  0.3449395813550647  1.0000
  H   H307      1.0  0.08157595706916389  0.9810721852783559  0.3522823175052085  1.0000
  H   H308      1.0  0.07173967967512378  0.015060249130096404  0.3325384237849094  1.0000
  H   H309      1.0  0.0931415731848073  0.9846110695392775  0.31958095265657105  1.0000
  H   H310      1.0  0.033132780779780935  0.9027541932536223  0.3502968665383964  1.0000
  H   H311      1.0  0.0496588728685326  0.9080909725655768  0.3184494844149864  1.0000
  H   H312      1.0  0.9943098904852249  0.8819460432813143  0.3260484685269822  1.0000
  N   N15       1.0  0.7738566832238339  0.866545973390705  0.46362939909900597  1.0000
  C   C273      1.0  0.7355653257647705  0.8244886237182009  0.4656716180469703  1.0000
  C   C274      1.0  0.8075318857251771  0.8681531540985649  0.4797235687569732  1.0000
  C   C275      1.0  0.7632164156940887  0.8985217014300024  0.47164291089295113  1.0000
  C   C276      1.0  0.7890621545267308  0.8748944944846785  0.4375100487820965  1.0000
  H   H313      1.0  0.7421177872325514  0.7996861571519395  0.45920648018071925  1.0000
  H   H314      1.0  0.7091072975428266  0.8223837879053737  0.45428005825998174  1.0000
  H   H315      1.0  0.7239656025795265  0.8165191550255282  0.48521810606478927  1.0000
  H   H316      1.0  0.8369036092365166  0.8994364729738622  0.47864874620960807  1.0000
  H   H317      1.0  0.7971209414972599  0.8617087307043454  0.49954112817996177  1.0000
  H   H318      1.0  0.816338277871669  0.8443871257762329  0.4742486742979193  1.0000
  H   H319      1.0  0.7914958811728885  0.9306498139325798  0.47080700831775035  1.0000
  H   H320      1.0  0.7510239264861691  0.8925583526619139  0.4911708540276467  1.0000
  H   H321      1.0  0.7381901019861676  0.8985215309077745  0.45978008310340485  1.0000
  H   H322      1.0  0.8179243376130421  0.9063725806632569  0.4351794593332649  1.0000
  H   H323      1.0  0.7643449469317313  0.8734516487397797  0.4247463900570797  1.0000
  H   H324      1.0  0.79747234217261  0.8512437480945717  0.43104282227680196  1.0000
  N   N16       1.0  0.1847317728679334  0.7075387870099559  0.06498582929497007  1.0000
  C   C277      1.0  0.20227266289113602  0.6797188186723324  0.07036304950360693  1.0000
  C   C278      1.0  0.19061809635911475  0.7191015598138215  0.038279918663194024  1.0000
  C   C279      1.0  0.20682904243916295  0.7460533474633897  0.07986491091176322  1.0000
  C   C280      1.0  0.13893313967431734  0.6852501596298622  0.07126937896694814  1.0000
  H   H325      1.0  0.23672233217815833  0.695406954073832  0.06563301776161684  1.0000
  H   H326      1.0  0.18583635335487528  0.6503880391736231  0.05933430953273647  1.0000
  H   H327      1.0  0.198344067118675  0.6702568303951222  0.09037395522242259  1.0000
  H   H328      1.0  0.22478669307885188  0.7370824270880388  0.032861017043990304  1.0000
  H   H329      1.0  0.17493538147822693  0.690831705621386  0.02639353112746501  1.0000
  H   H330      1.0  0.1766535831870853  0.7391055007260715  0.03358274694296721  1.0000
  H   H331      1.0  0.19385981522190276  0.7674043397101559  0.07615344825917998  1.0000
  H   H332      1.0  0.24138766222254793  0.764159262435064  0.07534717435814632  1.0000
  H   H333      1.0  0.2031363516324063  0.738662354799613  0.10015927749864766  1.0000
  H   H334      1.0  0.1250155856877969  0.7058574450987112  0.067975277182294  1.0000
  H   H335      1.0  0.13308322686789414  0.6751252729699012  0.0911616757796555  1.0000
  H   H336      1.0  0.12106533118492077  0.6566879080510982  0.05978454222180039  1.0000
  N   N17       1.0  0.8280018642740117  9.113992410236804e-05  0.6227466975453048  1.0000
  C   C281      1.0  0.7838202203688988  0.967658924407245  0.6172649509517113  1.0000
  C   C282      1.0  0.8477828106264743  0.9814511201151155  0.6385074761740396  1.0000
  C   C283      1.0  0.8281518492602127  0.03507662690622748  0.6360659428052238  1.0000
  C   C284      1.0  0.852186970268934  0.016112824946321824  0.5991584690914393  1.0000
  H   H337      1.0  0.7651578378687317  0.953311694004124  0.6346123035135738  1.0000
  H   H338      1.0  0.7826789493561259  0.9418134664384386  0.6061109012341839  1.0000
  H   H339      1.0  0.7672454608003737  0.9810040653861387  0.606336494146072  1.0000
  H   H340      1.0  0.8480048679843498  0.9547571106968452  0.6291345841953219  1.0000
  H   H341      1.0  0.8811666357141839  0.004997361979315329  0.6430652887993834  1.0000
  H   H342      1.0  0.8302056739213267  0.9692235719157466  0.65652402910775  1.0000
  H   H343      1.0  0.8610360970393288  0.0608291765775435  0.6396785978248657  1.0000
  H   H344      1.0  0.8118379988940351  0.02445169891802479  0.6544511917790019  1.0000
  H   H345      1.0  0.8116859838053617  0.048774949950779245  0.6253203138516868  1.0000
  H   H346      1.0  0.8857917870062649  0.040454604704150965  0.6024596948298724  1.0000
  H   H347      1.0  0.8379589059697762  0.030411194854835122  0.5869412275309575  1.0000
  H   H348      1.0  0.8521255153708475  0.9904115211174424  0.5883986657034694  1.0000
  N   N18       1.0  0.10475217312625623  0.09830089982775927  0.2584123230879955  1.0000
  C   C285      1.0  0.13634999341708257  0.11271038128875235  0.2379146616738982  1.0000
  C   C286      1.0  0.06506803616766998  0.06070763159054903  0.2507397714961355  1.0000
  C   C287      1.0  0.09566154776695067  0.13205735799917453  0.2645130656312821  1.0000
  C   C288      1.0  0.12195811300817723  0.08788974285163322  0.2805362374304976  1.0000
  H   H349      1.0  0.1665970774627522  0.14104782337072574  0.24320676658544815  1.0000
  H   H350      1.0  0.12447325377320094  0.12091781676916237  0.22093638244946037  1.0000
  H   H351      1.0  0.14415002900942225  0.08806702947748897  0.2328613963905769  1.0000
  H   H352      1.0  0.040669383576117595  0.048936473596648426  0.2658815104828541  1.0000
  H   H353      1.0  0.05086343269246668  0.06772533920826061  0.23435101016328586  1.0000
  H   H354      1.0  0.07081998629011543  0.034710305849631536  0.2456516422036595  1.0000
  H   H355      1.0  0.08315311045983727  0.1412522724793097  0.24819212429802168  1.0000
  H   H356      1.0  0.12471197201713853  0.16078007490092397  0.2707228192803388  1.0000
  H   H357      1.0  0.07138630468252133  0.12199386767653794  0.2796253879473441  1.0000
  H   H358      1.0  0.09935796438012533  0.0777823030970171  0.2965295842855065  1.0000
  H   H359      1.0  0.15220710550346364  0.11547729003753723  0.2865943770803235  1.0000
  H   H360      1.0  0.12889949537803744  0.06227234008641117  0.2766104402147793  1.0000
  N   N19       1.0  0.12452445505430208  0.8489159152202188  0.6421321050175653  1.0000
  C   C289      1.0  0.14573441109181354  0.8236994869458514  0.6399692509628017  1.0000
  C   C290      1.0  0.15057456486535398  0.8899204181843576  0.6293422588331596  1.0000
  C   C291      1.0  0.11955286448264336  0.8556862198450943  0.6686691775357249  1.0000
  C   C292      1.0  0.0822043720555377  0.826317949169569  0.6305449874598492  1.0000
  H   H361      1.0  0.12668704798579208  0.7923426954066064  0.6490799381289103  1.0000
  H   H362      1.0  0.17757440451503673  0.8394937288271733  0.648727254334667  1.0000
  H   H363      1.0  0.15022561698643094  0.8181968631236584  0.6201710544929471  1.0000
  H   H364      1.0  0.13528210191208537  0.9095759594451083  0.6303440513408775  1.0000
  H   H365      1.0  0.1826596933673109  0.9078253617757435  0.6376895022251892  1.0000
  H   H366      1.0  0.15521971890463246  0.8858822105362231  0.6092891599728462  1.0000
  H   H367      1.0  0.10422637140441533  0.8751255742616894  0.6710601723521611  1.0000
  H   H368      1.0  0.15064510925701774  0.8715502326280795  0.6783187286666007  1.0000
  H   H369      1.0  0.0992550273782069  0.825413487872296  0.678599758098172  1.0000
  H   H370      1.0  0.06217118257090271  0.7945111805620031  0.6390898180428257  1.0000
  H   H371      1.0  0.08489489170411911  0.821947308774854  0.610339201336883  1.0000
  H   H372      1.0  0.06457321045418715  0.8436195696507769  0.6325290258289734  1.0000
  N   N20       1.0  0.004464558768184808  0.6870116035630726  0.7853773985474672  1.0000
  C   C293      1.0  0.9990598460520438  0.6448155563271145  0.7895034959879786  1.0000
  C   C294      1.0  0.04938172002229251  0.7190787895251941  0.7892303125535052  1.0000
  C   C295      1.0  0.9772527511372147  0.6935425504598088  0.8031454103697604  1.0000
  C   C296      1.0  0.992314747749474  0.6906856966035362  0.7596371124122613  1.0000
  H   H373      1.0  0.9655149868823194  0.6197903263300686  0.7866983715067851  1.0000
  H   H374      1.0  0.00798277270149864  0.6410933152133571  0.8087810831308077  1.0000
  H   H375      1.0  0.019312846382031106  0.6390406409792739  0.7764069912298874  1.0000
  H   H376      1.0  0.05447779694370227  0.751211800117134  0.7863093380141258  1.0000
  H   H377      1.0  0.05984805684157033  0.7172993796939339  0.8084090235788364  1.0000
  H   H378      1.0  0.07092414420877098  0.7156761688764309  0.7758812898167005  1.0000
  H   H379      1.0  0.9800285337053932  0.7248560129545448  0.8003099898211161  1.0000
  H   H380      1.0  0.9862647758072425  0.6922225798763566  0.8227935752879334  1.0000
  H   H381      1.0  0.9431327388003291  0.6695972193005227  0.8011116053501399  1.0000
  H   H382      1.0  0.9588072622720205  0.6666022558896595  0.7558198039977931  1.0000
  H   H383      1.0  0.012986438685860448  0.687124261379437  0.7456881684174357  1.0000
  H   H384      1.0  0.9954247074748663  0.721953458550354  0.7560600630943451  1.0000
  N   N21       1.0  0.9431047226092447  0.24334807248919813  0.4346648212528169  1.0000
  C   C297      1.0  0.9101751231271968  0.24579885348713287  0.4495121890290664  1.0000
  C   C298      1.0  0.9649274008028962  0.28081339655493787  0.4181353257499168  1.0000
  C   C299      1.0  0.9231315339502665  0.20514140058290767  0.419439528782187  1.0000
  C   C300      1.0  0.9740975498068221  0.241498712258916  0.45161696222105074  1.0000
  H   H385      1.0  0.8930155244120833  0.2179475975138473  0.46216449537688925  1.0000
  H   H386      1.0  0.8861735062932643  0.24735441816879025  0.43746186921233915  1.0000
  H   H387      1.0  0.924421508747195  0.2741881523248956  0.46132467477470207  1.0000
  H   H388      1.0  0.9832800089500949  0.3101507742972465  0.4288985746337384  1.0000
  H   H389      1.0  0.9875879171197101  0.2784596742660571  0.4052406332528779  1.0000
  H   H390      1.0  0.9420793180962379  0.2848031782070629  0.4063290162743737  1.0000
  H   H391      1.0  0.9064556444622458  0.17626231744111448  0.43132203098733723  1.0000
  H   H392      1.0  0.9473148280132561  0.20245935166394038  0.40801065427761884  1.0000
  H   H393      1.0  0.8995850734603276  0.20543763707369794  0.4063828157996412  1.0000
  H   H394      1.0  0.9983367116841808  0.23762601004113915  0.4412382388499733  1.0000
  H   H395      1.0  0.958337158560279  0.21472785376352269  0.46514927148893304  1.0000
  H   H396      1.0  0.9911401477728324  0.2705289517212952  0.46273704114954595  1.0000
  N   N22       1.0  0.6986445258279552  0.14173132332445432  0.03326660604090782  1.0000
  C   C301      1.0  0.6921786606680278  0.17810144546010198  0.030100432969474067  1.0000
  C   C302      1.0  0.7424336165333214  0.15630070733456228  0.041722327316785685  1.0000
  C   C303      1.0  0.6918016002852244  0.1202864121926567  0.009233452144104204  1.0000
  C   C304      1.0  0.6681234012314954  0.11222457033641262  0.05199395446522022  1.0000
  H   H397      1.0  0.6971959797915491  0.19510101524501383  0.04786199320276714  1.0000
  H   H398      1.0  0.6593148856097237  0.16803738279737912  0.023821234226518495  1.0000
  H   H399      1.0  0.7146162840606499  0.20084699968723074  0.01596801606676057  1.0000
  H   H400      1.0  0.7486699700421943  0.12969038099704316  0.04379084835896202  1.0000
  H   H401      1.0  0.7663846265435795  0.17901424706499247  0.028167719092923926  1.0000
  H   H402      1.0  0.7486762763550217  0.17202497487479332  0.06000150662964969  1.0000
  H   H403      1.0  0.6592494011743649  0.10926346685127165  0.0020452710891305514  1.0000
  H   H404      1.0  0.6952804800006647  0.0920664178374717  0.011043798460285137  1.0000
  H   H405      1.0  0.7151875693362387  0.1410873501633408  0.994807030484531  1.0000
  H   H406      1.0  0.6718407735229367  0.08414147662787815  0.05459090668653451  1.0000
  H   H407      1.0  0.6347219008421575  0.10088541316301931  0.04633426552915081  1.0000
  H   H408      1.0  0.672513528305169  0.1270978157113077  0.07045210269390725  1.0000
  N   N23       1.0  0.5946468265713665  0.0077737665852091195  0.6259510807744213  1.0000
  C   C305      1.0  0.6195539468553343  0.9901347873786734  0.6371511579201735  1.0000
  C   C306      1.0  0.5586562473068258  0.99909334614421  0.6425949276923725  1.0000
  C   C307      1.0  0.578334285087884  0.988270805490249  0.6015851010822154  1.0000
  C   C308      1.0  0.622185557219116  0.05365078699794721  0.6224522801784814  1.0000
  H   H409      1.0  0.6462781036755608  0.9953858657455483  0.6247178672508126  1.0000
  H   H410      1.0  0.599776238265158  0.9557121863041308  0.6406428302462392  1.0000
  H   H411      1.0  0.6338712638526472  0.005252925716593636  0.6551360219907426  1.0000
  H   H412      1.0  0.5393076750788149  0.0121751385438027  0.6347169308658999  1.0000
  H   H413      1.0  0.5371409409612692  0.9647200846192923  0.6455253431398096  1.0000
  H   H414      1.0  0.5699591249875104  0.013211619276969785  0.661190486951443  1.0000
  H   H415      1.0  0.5588486817162952  0.0003223793456244017  0.5926417047080219  1.0000
  H   H416      1.0  0.5581196814108118  0.9535331231881122  0.6033158937336958  1.0000
  H   H417      1.0  0.60473828462873  0.994809198121751  0.5884539528835255  1.0000
  H   H418      1.0  0.6046724782788873  0.06814437823527127  0.6138440601200934  1.0000
  H   H419      1.0  0.6498796379250158  0.06125483667233726  0.6101939473156118  1.0000
  H   H420      1.0  0.6354747397476018  0.06941234062420618  0.640431209750063  1.0000
  N   N24       1.0  0.9716921102764446  0.21250975295141225  0.19050119237797392  1.0000
  C   C309      1.0  0.018208232677952685  0.23754797317603224  0.1868292966291719  1.0000
  C   C310      1.0  0.9617285004689943  0.18032808868196748  0.21018644121467273  1.0000
  C   C311      1.0  0.9515702686300136  0.1919829033378064  0.16695051534019803  1.0000
  C   C312      1.0  0.9554181473944119  0.24038155256894264  0.19809630097273037  1.0000
  H   H421      1.0  0.02712658954247038  0.2626538799885537  0.17239179391318515  1.0000
  H   H422      1.0  0.031697595334187145  0.21763622322592394  0.18110646215526274  1.0000
  H   H423      1.0  0.034204256181455506  0.2531806958660488  0.20430846241892095  1.0000
  H   H424      1.0  0.9269230734554749  0.16060957478770443  0.21353963350713528  1.0000
  H   H425      1.0  0.9739769622895676  0.15893769639436278  0.20535482278871212  1.0000
  H   H426      1.0  0.9763991743525855  0.19494052137172777  0.22823014208198136  1.0000
  H   H427      1.0  0.9164103027989298  0.17287997319867981  0.1689973181769293  1.0000
  H   H428      1.0  0.9631259880064412  0.1707190542297016  0.16065191117017666  1.0000
  H   H429      1.0  0.9585606339730461  0.21554673367523106  0.1517255792266706  1.0000
  H   H430      1.0  0.920349071727088  0.2226937157002014  0.20078553259335039  1.0000
  H   H431      1.0  0.9632245293927489  0.26567416871752775  0.1839518832904906  1.0000
  H   H432      1.0  0.9695600261288815  0.25596394947816764  0.2159865524278584  1.0000
  N   N25       1.0  0.9387521419107041  0.5173035031098866  0.009242765218559601  1.0000
  C   C313      1.0  0.9514106991745328  0.5433467050928279  0.03172944931648387  1.0000
  C   C314      1.0  0.9057044740383738  0.47395175914925336  0.016010753967985014  1.0000
  C   C315      1.0  0.9760833720566071  0.5168810931511383  0.9985637108859059  1.0000
  C   C316      1.0  0.9216916266665699  0.5349938959218983  0.9907517057856102  1.0000
  H   H433      1.0  0.9625481369473954  0.529974692504025  0.04656903003940981  1.0000
  H   H434      1.0  0.9245125339911201  0.5460677796808528  0.03956455368499808  1.0000
  H   H435      1.0  0.9774978575580612  0.5758938374960506  0.027515889320975262  1.0000
  H   H436      1.0  0.9176419596693653  0.45975048562049553  0.029991246103280522  1.0000
  H   H437      1.0  0.8771609574174342  0.47317902038986204  0.024210659752383235  1.0000
  H   H438      1.0  0.8953791490711367  0.45337434322621023  0.9994900032364437  1.0000
  H   H439      1.0  0.9882148488637025  0.5014496442933617  0.011461892850865851  1.0000
  H   H440      1.0  0.0028347478217858324  0.5492662486946759  0.9946960688201659  1.0000
  H   H441      1.0  0.9683021231729771  0.49955090598558866  0.9807940154520941  1.0000
  H   H442      1.0  0.8939645564926122  0.5365167299533674  0.9983663328987843  1.0000
  H   H443      1.0  0.9114910773875633  0.5161868267613943  0.973525997944481  1.0000
  H   H444      1.0  0.9458106006347515  0.5677112191213368  0.9853047449720141  1.0000
  N   N26       1.0  0.2950237222280612  0.09273371582763149  0.09479878889036072  1.0000
  C   C317      1.0  0.3359360481159778  0.10319029703787645  0.10633166532524573  1.0000
  C   C318      1.0  0.3013901355078173  0.10188331395247767  0.06775394960155852  1.0000
  C   C319      1.0  0.27859041920187794  0.11823660594993399  0.10615904661801431  1.0000
  C   C320      1.0  0.2642003407359098  0.04767472502054348  0.0990691764476026  1.0000
  H   H445      1.0  0.3321900542643858  0.09628573334347042  0.12670188971393487  1.0000
  H   H446      1.0  0.3599157946104583  0.13696713790099868  0.10366249186733167  1.0000
  H   H447      1.0  0.3492726164413213  0.08449053781182841  0.0982493668034003  1.0000
  H   H448      1.0  0.2708330519413351  0.09204767262759254  0.05817448058498244  1.0000
  H   H449      1.0  0.3224305393607162  0.13602431937537374  0.06382508706332639  1.0000
  H   H450      1.0  0.316458976725698  0.08533737150727264  0.058790551379200015  1.0000
  H   H451      1.0  0.24780317728425671  0.11131686665368357  0.09785049082346094  1.0000
  H   H452      1.0  0.3012811332286067  0.15245026771485892  0.10340366657153509  1.0000
  H   H453      1.0  0.27338945057871966  0.1119263254924566  0.12656819270346048  1.0000
  H   H454      1.0  0.23264572141845963  0.038610527472156965  0.09107882586353676  1.0000
  H   H455      1.0  0.25957711566473035  0.039416593337475304  0.11929884989463727  1.0000
  H   H456      1.0  0.27535738634315005  0.027489337063628275  0.09048155498296218  1.0000
  N   N27       1.0  0.1361819320040948  0.8850992734350012  0.8861089948565537  1.0000
  C   C321      1.0  0.165069856338669  0.929188876841148  0.8930206597309733  1.0000
  C   C322      1.0  0.09866503500717619  0.8819310787001723  0.8734571381998055  1.0000
  C   C323      1.0  0.12226628160761488  0.858021257422042  0.9087185751148864  1.0000
  C   C324      1.0  0.15875189399823197  0.8713136611107094  0.8691602608273538  1.0000
  H   H457      1.0  0.19367805290001006  0.9327636564730052  0.9027131843594933  1.0000
  H   H458      1.0  0.14900603963219314  0.9409036456836202  0.9055485608714028  1.0000
  H   H459      1.0  0.17635257078466987  0.9502902141473903  0.8762450659898312  1.0000
  H   H460      1.0  0.10811311585781115  0.9028016643388294  0.8566903437184298  1.0000
  H   H461      1.0  0.07674139887593837  0.8493910024623873  0.8672497839708447  1.0000
  H   H462      1.0  0.08016046513526422  0.8909967582445661  0.8858669646286946  1.0000
  H   H463      1.0  0.14953602321708426  0.8585453052452506  0.9184238323902253  1.0000
  H   H464      1.0  0.09960833189641355  0.8247657506096585  0.904129339346924  1.0000
  H   H465      1.0  0.10582243072452245  0.8679692040177783  0.9221688507319693  1.0000
  H   H466      1.0  0.18727620519913382  0.873333832920484  0.8780782824635456  1.0000
  H   H467      1.0  0.16958635660023952  0.8910216859660882  0.8518575914047241  1.0000
  H   H468      1.0  0.13795748827327017  0.8382654396079933  0.8634911007991454  1.0000
  N   N28       1.0  0.0893879466874885  0.4706611889763593  0.5908364293336735  1.0000
  C   C325      1.0  0.05916142367584665  0.42628048957732834  0.5974100484099183  1.0000
  C   C326      1.0  0.12558199039080242  0.4877073926251172  0.6080983198265492  1.0000
  C   C327      1.0  0.06754281410892093  0.4953454331474625  0.5925292155132054  1.0000
  C   C328      1.0  0.10526354423245099  0.4732278265126562  0.5651893922958214  1.0000
  H   H469      1.0  0.046630787698337395  0.42291646288804147  0.6167075894723761  1.0000
  H   H470      1.0  0.07436683429126267  0.4065600965982915  0.595899583805502  1.0000
  H   H471      1.0  0.03137651761266147  0.4128236077171947  0.5846883045044058  1.0000
  H   H472      1.0  0.11485954753887961  0.4860991099271031  0.6276880653270297  1.0000
  H   H473      1.0  0.14298299470640208  0.4699872710225248  0.6070758434158999  1.0000
  H   H474      1.0  0.1487395924916406  0.5212251256545689  0.6035194117884534  1.0000
  H   H475      1.0  0.03931835578437082  0.4824840290061303  0.5802674409971103  1.0000
  H   H476      1.0  0.0888051447783027  0.5287667490171798  0.586778557810887  1.0000
  H   H477      1.0  0.056143270561224146  0.49512181537590105  0.611767787494159  1.0000
  H   H478      1.0  0.12707265586048977  0.506325711580595  0.5591353332688948  1.0000
  H   H479      1.0  0.07864087510821616  0.4592708489913178  0.551789609860391  1.0000
  H   H480      1.0  0.12292269754394458  0.4559093543791621  0.5634003459821716  1.0000
  N   N29       1.0  0.24786597515328065  0.354835841750735  0.9475737604543087  1.0000
  C   C329      1.0  0.26029290556216855  0.3874483995389169  0.9666493686595535  1.0000
  C   C330      1.0  0.21404188206666902  0.3538886574392587  0.9319387506938736  1.0000
  C   C331      1.0  0.23195520673635328  0.3134397097685668  0.9599251118887148  1.0000
  C   C332      1.0  0.28504504783857953  0.36440303444552696  0.931733582731943  1.0000
  H   H481      1.0  0.27340877237013533  0.41928565477422497  0.9580817194940631  1.0000
  H   H482      1.0  0.2850230848532484  0.3882778333931834  0.9792047084712922  1.0000
  H   H483      1.0  0.2327490968200275  0.3815756578811297  0.9786264236525505  1.0000
  H   H484      1.0  0.20376317042354145  0.329284852819383  0.9175135551819825  1.0000
  H   H485      1.0  0.1855469593891922  0.34698943876684407  0.9433033754463421  1.0000
  H   H486      1.0  0.2251098470338393  0.3845353003157002  0.9221515933504691  1.0000
  H   H487      1.0  0.2247692534856583  0.28838576255610177  0.9461711468764059  1.0000
  H   H488      1.0  0.20264097182975638  0.3041049396587915  0.9710063945683731  1.0000
  H   H489      1.0  0.2559776379954808  0.3136581027669669  0.9728281282661438  1.0000
  H   H490      1.0  0.27650757597861614  0.34080505902247804  0.91683523643743  1.0000
  H   H491      1.0  0.3106166021932172  0.36381076476952334  0.9427141988045267  1.0000
  H   H492      1.0  0.29878853376457043  0.39586633290436  0.9225892104579201  1.0000
  N   N30       1.0  0.3358950278829948  0.13007175882122018  0.43294923241568206  1.0000
  C   C333      1.0  0.3080419917616091  0.08478251852101389  0.4383313384174107  1.0000
  C   C334      1.0  0.31687334350383495  0.15365770344821722  0.44383514574057  1.0000
  C   C335      1.0  0.34074009110744835  0.13726496388611342  0.4057232132793231  1.0000
  C   C336      1.0  0.37799831741149964  0.14441421950452296  0.44403722074404617  1.0000
  H   H493      1.0  0.3220548317081925  0.06620577920279477  0.43095477499459034  1.0000
  H   H494      1.0  0.2762795354436236  0.0724924388842465  0.4297555951358456  1.0000
  H   H495      1.0  0.3031011401604148  0.07830053764511506  0.45873021536935893  1.0000
  H   H496      1.0  0.3371790242143899  0.188030058649098  0.44028521099067  1.0000
  H   H497      1.0  0.28498868318221815  0.14360746414770703  0.4359528575819842  1.0000
  H   H498      1.0  0.31296230177322765  0.1486704740825671  0.46441220685585505  1.0000
  H   H499      1.0  0.35518751010310146  0.11983101334879695  0.39715321043122964  1.0000
  H   H500      1.0  0.3615756601491332  0.17111915493807572  0.400922381421259  1.0000
  H   H501      1.0  0.30954190886965505  0.1264512534485777  0.3966355730622908  1.0000
  H   H502      1.0  0.3997086508964498  0.17864820902600637  0.4408745441169057  1.0000
  H   H503      1.0  0.39361744172405727  0.12771263541486755  0.43602393734261696  1.0000
  H   H504      1.0  0.3752397867429915  0.13841139030544625  0.4644671546831838  1.0000
  N   N31       1.0  0.37819675920764884  0.372856267474754  0.7654310576939288  1.0000
  C   C337      1.0  0.3726085875040475  0.3554113512626453  0.7402094327709573  1.0000
  C   C338      1.0  0.33663838753174674  0.3643269445119261  0.7753752252968226  1.0000
  C   C339      1.0  0.4075874594255441  0.41868107861079834  0.7642110254050132  1.0000
  C   C340      1.0  0.395854373269378  0.353029269169462  0.7819491245814443  1.0000
  H   H505      1.0  0.35871706905517986  0.36922679319153384  0.7273505126086323  1.0000
  H   H506      1.0  0.35057223524131054  0.32086097961081667  0.7404730748797469  1.0000
  H   H507      1.0  0.4032283503401761  0.3612791499470596  0.7319673469090576  1.0000
  H   H508      1.0  0.33932955832733697  0.3763698756605389  0.7945662149978194  1.0000
  H   H509      1.0  0.3219830048413941  0.37836933107797033  0.763307531671851  1.0000
  H   H510      1.0  0.3138035174388684  0.3301264918387269  0.7764517235715708  1.0000
  H   H511      1.0  0.3950897343386688  0.43452120592492777  0.751899560663955  1.0000
  H   H512      1.0  0.4392966221239675  0.4262852806220384  0.7567744330865231  1.0000
  H   H513      1.0  0.4123794051643256  0.43276049560760343  0.7829684487178084  1.0000
  H   H514      1.0  0.3999059001966048  0.36501467400100596  0.801256369497648  1.0000
  H   H515      1.0  0.42722222699470247  0.3587292840803958  0.7751165404896367  1.0000
  H   H516      1.0  0.3743387317349841  0.3184142750449487  0.7834071782992972  1.0000
  N   N32       1.0  0.9346737131822478  0.15622131015356028  0.8225339043419149  1.0000
  C   C341      1.0  0.9306063786749867  0.12008594571719802  0.837209732640314  1.0000
  C   C342      1.0  0.9118065145151247  0.17432102092549392  0.8355153922912223  1.0000
  C   C343      1.0  0.9160190472886482  0.14211028837066053  0.7977132470859349  1.0000
  C   C344      1.0  0.9800996762038454  0.1882119789581457  0.8196257621008484  1.0000
  H   H517      1.0  0.9436394122950081  0.1294074356676219  0.8562099322473733  1.0000
  H   H518      1.0  0.94785988924666  0.10587622199741507  0.828141379786314  1.0000
  H   H519      1.0  0.8967196346862855  0.09493704574551613  0.839347091001207  1.0000
  H   H520      1.0  0.9135374021639378  0.2012165143451639  0.8247960555448068  1.0000
  H   H521      1.0  0.877459950561882  0.15051196037020867  0.8380395149775982  1.0000
  H   H522      1.0  0.9249990410779355  0.18546645219865027  0.8543084462676576  1.0000
  H   H523      1.0  0.881556196055617  0.11871666393307635  0.7990976123992894  1.0000
  H   H524      1.0  0.9314852609044341  0.1270637559919352  0.7876782913626027  1.0000
  H   H525      1.0  0.9194846954583618  0.16860618696054822  0.7858005357926428  1.0000
  H   H526      1.0  0.9843556747975762  0.21608096813626168  0.8088151753130015  1.0000
  H   H527      1.0  0.9978522924424555  0.17548348931526722  0.8094367434308429  1.0000
  H   H528      1.0  0.995600338083934  0.1990957170210479  0.837953709361619  1.0000
  N   N33       1.0  0.22469459472759268  0.35869611339393825  0.1202253266037779  1.0000
  C   C345      1.0  0.26340157112313767  0.392288223993063  0.10786233072162647  1.0000
  C   C346      1.0  0.1874608806195448  0.34764562343935596  0.10439488011609688  1.0000
  C   C347      1.0  0.2187444846626534  0.3735482870767409  0.14449656474098985  1.0000
  C   C348      1.0  0.22917285717584113  0.3212545017631925  0.12414827027154354  1.0000
  H   H529      1.0  0.29200491559841657  0.4022494618152272  0.11952528881869351  1.0000
  H   H530      1.0  0.2605231762067075  0.42052052549346153  0.10381342178152553  1.0000
  H   H531      1.0  0.2695654188343899  0.38162392762384695  0.08988018209165448  1.0000
  H   H532      1.0  0.15751626309317435  0.3229816007746952  0.11339879878008384  1.0000
  H   H533      1.0  0.18325699326348843  0.3752711648677088  0.10087343211358629  1.0000
  H   H534      1.0  0.19057582298072662  0.3357948964839528  0.08602820952058296  1.0000
  H   H535      1.0  0.2462293936631581  0.38241836663308926  0.15695799149837286  1.0000
  H   H536      1.0  0.18982548291226453  0.34886678305791907  0.15433100016401352  1.0000
  H   H537      1.0  0.2145621575229455  0.40142425741164584  0.14221107690126908  1.0000
  H   H538      1.0  0.200416130993315  0.29530333866692665  0.1334459828409931  1.0000
  H   H539      1.0  0.25694048195425223  0.32845148344008296  0.1360543397751196  1.0000
  H   H540      1.0  0.23383544372788  0.30932276791872326  0.10616127699087387  1.0000
  N   N34       1.0  0.3577867883806606  0.0038003352791664557  0.2757984253077535  1.0000
  C   C349      1.0  0.3762928266825805  0.048602333804691034  0.2819345967124118  1.0000
  C   C350      1.0  0.32214315240696284  0.9779843161494087  0.2931034034075717  1.0000
  C   C351      1.0  0.39064567054904187  0.9915889600941431  0.27822269195556043  1.0000
  C   C352      1.0  0.34209239238010974  0.9971367368974859  0.2499669984882741  1.0000
  H   H541      1.0  0.4027860500637293  0.06923369013558589  0.2689761682342248  1.0000
  H   H542      1.0  0.3884825962308918  0.05496495634639942  0.30128626923136015  1.0000
  H   H543      1.0  0.3522674119268241  0.0586991310846563  0.2803049404608376  1.0000
  H   H544      1.0  0.2969203544853728  0.9865868236053675  0.29185353723830254  1.0000
  H   H545      1.0  0.30703230852708785  0.9439438910953247  0.28904789433429606  1.0000
  H   H546      1.0  0.3326062773256396  0.9823219194744844  0.31283194618872834  1.0000
  H   H547      1.0  0.4179990007317402  0.010554985477141399  0.26540460470571114  1.0000
  H   H548      1.0  0.37771680960586335  0.9579091978686287  0.2737629561461821  1.0000
  H   H549      1.0  0.4031269814314677  0.9963081490834741  0.29751974207941556  1.0000
  H   H550      1.0  0.36789059486776904  0.017017297075282434  0.23641571799888494  1.0000
  H   H551      1.0  0.3169576292647913  0.00568275430140841  0.24757538628746936  1.0000
  H   H552      1.0  0.3282688596245918  0.9638029855522633  0.24448499169465274  1.0000
  N   N35       1.0  0.09410113480879498  0.8094340429580513  0.49164629267575444  1.0000
  C   C353      1.0  0.08923080065861186  0.8112793747499243  0.4644650599184092  1.0000
  C   C354      1.0  0.05205267972242779  0.7820227826932038  0.5033796243101767  1.0000
  C   C355      1.0  0.11287700842041085  0.8521090218474856  0.5018803962488335  1.0000
  C   C356      1.0  0.12233511557189096  0.7922255129826897  0.49692446398033785  1.0000
  H   H553      1.0  0.12046338334079998  0.8315476809089374  0.45506288306615483  1.0000
  H   H554      1.0  0.06807495806526678  0.8241080085326574  0.45978079480951217  1.0000
  H   H555      1.0  0.07504142247811983  0.7794540020159241  0.4562716794068902  1.0000
  H   H556      1.0  0.05438014355671118  0.7804146230415266  0.5239808208553889  1.0000
  H   H557      1.0  0.029377013825776982  0.7933175492412464  0.4994822755406479  1.0000
  H   H558      1.0  0.03736355525252489  0.7492243923230826  0.49659571103056044  1.0000
  H   H559      1.0  0.14532681753086088  0.8732759264390397  0.4941332320170772  1.0000
  H   H560      1.0  0.11601171971124627  0.851505730777887  0.5224507551163607  1.0000
  H   H561      1.0  0.09291505209606793  0.8665025260661575  0.4978376056837942  1.0000
  H   H562      1.0  0.15480958226352137  0.8125470848529569  0.48896544839821576  1.0000
  H   H563      1.0  0.10949946616509895  0.7601288931859776  0.48936072842206824  1.0000
  H   H564      1.0  0.12592234161554744  0.7898261002917734  0.5172630052452203  1.0000
  N   N36       1.0  0.5646890221516853  0.6362386093467498  0.03186630678437324  1.0000
  C   C357      1.0  0.5277897405168583  0.5937200422815153  0.028607484414644  1.0000
  C   C358      1.0  0.550813315070771  0.6677336138918099  0.0304965838513572  1.0000
  C   C359      1.0  0.5964219765179314  0.6451334302818097  0.012007358695162562  1.0000
  C   C360      1.0  0.5839056669454787  0.6384569095584338  0.05638407532945618  1.0000
  H   H565      1.0  0.5125875479107784  0.5907098895739055  0.010233505852313751  1.0000
  H   H566      1.0  0.5032270235880161  0.5857522585746123  0.04332507439491377  1.0000
  H   H567      1.0  0.5374079521402315  0.5693832072601838  0.02958491063819535  1.0000
  H   H568      1.0  0.5362760316916506  0.6671354689782163  0.012219235140602525  1.0000
  H   H569      1.0  0.5270965090069489  0.6621826372652236  0.04533844329656418  1.0000
  H   H570      1.0  0.5781745080398856  0.7001307754241648  0.032913136517085155  1.0000
  H   H571      1.0  0.6245892284687222  0.6771272893649816  0.013802619925938673  1.0000
  H   H572      1.0  0.5829738159992767  0.64335117583847  0.9932154459227047  1.0000
  H   H573      1.0  0.6080715166770515  0.6223330632646958  0.012727064487036088  1.0000
  H   H574      1.0  0.611355374066097  0.6703111852758851  0.059673248046005864  1.0000
  H   H575      1.0  0.5958500004517636  0.6160229993012534  0.05786384761749556  1.0000
  H   H576      1.0  0.5607412736902512  0.631006419365202  0.07186046445184983  1.0000
