data_image0
_chemical_formula_structural       FeS2FeS2FeSFeS3FeS2FeS2FeSFeS3FeS2FeS2FeSFeS3FeS2FeS2FeSFeS3FeS2FeS2FeSFeS3FeS2FeS2FeSFeS3FeS2FeS2FeSFeS3FeS2FeS2FeSFeS3FeS2FeS2FeSFeS3FeS2FeS2FeSFeS3FeS2FeS2FeSFeS3FeS2FeS2FeSFeS3FeS2FeS2FeSFeS3FeS2FeS2FeSFeS3FeS2FeS2FeSFeS3FeS2FeS2FeSFeS3C6H4C6H4C6H4C6H4C6H4C6H4C6H4C6H4C6H4C6H4C6H4C6H4C6H4C6H4C6H4C6H4C6H4C6H4C6H4C6H4C6H4C6H4C6H4C6H4C6H4C6H4C6H4C6H4C6H4C6H4C6H4C6H4FeS2FeS2FeSFeS3FeS2FeS2FeSFeS3FeS2FeS2FeSFeS3FeS2FeS2FeSFeS3FeS2FeS2FeSFeS3FeS2FeS2FeSFeS3FeS2FeS2FeSFeS3FeS2FeS2FeSFeS3FeS2FeS2FeSFeS3FeS2FeS2FeSFeS3FeS2FeS2FeSFeS3FeS2FeS2FeSFeS3FeS2FeS2FeSFeS3FeS2FeS2FeSFeS3FeS2FeS2FeSFeS3FeS2FeS2FeSFeS3C6H4C6H4C6H4C6H4C6H4C6H4C6H4C6H4C6H4C6H4C6H4C6H4C6H4C6H4C6H4C6H4C6H4C6H4C6H4C6H4C6H4C6H4C6H4C6H4C6H4C6H4C6H4C6H4C6H4C6H4C6H4C6H4NC4H12NC4H12NC4H12NC4H12NC4H12NC4H12NC4H12NC4H12NC4H12NC4H12NC4H12NC4H12NC4H12NC4H12NC4H12NC4H12NC4H12NC4H12NC4H12NC4H12NC4H12NC4H12NC4H12NC4H12NC4H12NC4H12NC4H12NC4H12NC4H12NC4H12NC4H12NC4H12NC4H12NC4H12NC4H12NC4H12NC4H12NC4H12NC4H12NC4H12NC4H12NC4H12NC4H12NC4H12NC4H12NC4H12NC4H12NC4H12NC4H12NC4H12NC4H12NC4H12NC4H12NC4H12NC4H12NC4H12NC4H12NC4H12NC4H12NC4H12NC4H12NC4H12NC4H12NC4H12
_chemical_formula_sum              "Fe128 S256 C640 H1024 N64"
_cell_length_a       37.79343260353117
_cell_length_b       73.11078805633515
_cell_length_c       39.238736930086965
_cell_angle_alpha    89.2997108261936
_cell_angle_beta     86.94031198520895
_cell_angle_gamma    89.82930552372453

_space_group_name_H-M_alt    "P 1"
_space_group_IT_number       1

loop_
  _space_group_symop_operation_xyz
  'x, y, z'

loop_
  _atom_site_type_symbol
  _atom_site_label
  _atom_site_symmetry_multiplicity
  _atom_site_fract_x
  _atom_site_fract_y
  _atom_site_fract_z
  _atom_site_occupancy
  Fe  Fe1       1.0  0.18268325491401297  0.6198280552458934  0.13019730657774195  1.0000
  S   S1        1.0  0.17470556695239214  0.6184109074761638  0.18713283068217432  1.0000
  S   S2        1.0  0.2009265019574651  0.6457417698854472  0.10278783101849605  1.0000
  Fe  Fe2       1.0  0.16326342625488485  0.5799995448085834  0.12164533233655443  1.0000
  S   S3        1.0  0.15420137219035157  0.5752705032400984  0.17809625485584116  1.0000
  S   S4        1.0  0.14808010912223382  0.5558798487944352  0.0903888754371856  1.0000
  Fe  Fe3       1.0  0.1264651628221807  0.6022127178656437  0.17751274869956715  1.0000
  S   S5        1.0  0.075797456423436  0.607118449079068  0.20802997548538227  1.0000
  Fe  Fe4       1.0  0.20337203130814807  0.5916746246188386  0.1829355343309254  1.0000
  S   S6        1.0  0.2409006747739037  0.5868432890411353  0.22459481616925006  1.0000
  S   S7        1.0  0.13134671003088522  0.6059317090804035  0.12076765809331369  1.0000
  S   S8        1.0  0.215634556771835  0.594089690543797  0.12637777079656806  1.0000
  Fe  Fe5       1.0  0.18405190022736478  0.5156339817798617  0.4232278987499987  1.0000
  S   S9        1.0  0.2012907125035259  0.49153971481114367  0.391369006059101  1.0000
  S   S10       1.0  0.21257133421782115  0.5228230348490995  0.4702315557979859  1.0000
  Fe  Fe6       1.0  0.12023436794340063  0.5233285122563373  0.38193534891709124  1.0000
  S   S11       1.0  0.13065648660864312  0.4994671120366611  0.34760130596471045  1.0000
  S   S12       1.0  0.07437958887461277  0.5426590993098999  0.3782475599699303  1.0000
  Fe  Fe7       1.0  0.14377258671792031  0.4839796074664641  0.39497122668548507  1.0000
  S   S13       1.0  0.12368995468030376  0.45639635691057917  0.4133688060599392  1.0000
  Fe  Fe8       1.0  0.1870027702410382  0.5092087381021748  0.34685052664518895  1.0000
  S   S14       1.0  0.21573697757693505  0.5094361834837278  0.2952168696791273  1.0000
  S   S15       1.0  0.12736657455658024  0.5069962219816772  0.42952531496165924  1.0000
  S   S16       1.0  0.17572439110324034  0.5341738231794846  0.3783437420290142  1.0000
  Fe  Fe9       1.0  0.8953061880442414  0.5086228350789587  0.35300230544641015  1.0000
  S   S17       1.0  0.8979183808467582  0.5014394007931455  0.408421822023673  1.0000
  S   S18       1.0  0.9426056624948554  0.5048402683023961  0.3170943379056121  1.0000
  Fe  Fe10      1.0  0.8196130685020866  0.5217046882028674  0.36047100534402665  1.0000
  S   S19       1.0  0.8162267587988835  0.5163121902838418  0.4170349272062661  1.0000
  S   S20       1.0  0.7698147402813008  0.5304551406510299  0.33594013472180284  1.0000
  Fe  Fe11      1.0  0.8705876708690833  0.5284905948611588  0.416445878415289  1.0000
  S   S21       1.0  0.8935905711561639  0.5477898843473629  0.45374485103523426  1.0000
  Fe  Fe12      1.0  0.843634220369385  0.48986359867560353  0.40342815263673604  1.0000
  S   S22       1.0  0.8223775229810845  0.46383136436683237  0.42831632022553867  1.0000
  S   S23       1.0  0.8714637904408206  0.536440131544527  0.3609308774852467  1.0000
  S   S24       1.0  0.8435660042122645  0.49455137806859906  0.3468734747862791  1.0000
  Fe  Fe13      1.0  0.9073449861185743  0.572042321529203  0.14995327653062085  1.0000
  S   S25       1.0  0.8711433531665745  0.5830401931363085  0.1918173133788377  1.0000
  S   S26       1.0  0.9561010954810824  0.5556003312555998  0.15884854001025162  1.0000
  Fe  Fe14      1.0  0.8640829674009158  0.5866596356011061  0.09398788952722652  1.0000
  S   S27       1.0  0.8232233696512954  0.5992141325790479  0.129982936128772  1.0000
  S   S28       1.0  0.8655763299307755  0.588150511222509  0.03685657002808407  1.0000
  Fe  Fe15      1.0  0.8691264091270038  0.6084014387278303  0.15917829438870776  1.0000
  S   S29       1.0  0.8666477273102084  0.6347300593880502  0.18846604177084267  1.0000
  Fe  Fe16      1.0  0.8277076761948552  0.5731788027764374  0.1603976883101531  1.0000
  S   S30       1.0  0.7769788919487203  0.562257818708609  0.1848822479909317  1.0000
  S   S31       1.0  0.9100961859183224  0.5983800521127706  0.12019205563109744  1.0000
  S   S32       1.0  0.864025100837834  0.5595530058711873  0.12129271611250765  1.0000
  Fe  Fe17      1.0  0.13873744586900813  0.3364195421384057  0.4269757287756425  1.0000
  S   S33       1.0  0.1530122952732263  0.34078428416312573  0.3711334192441745  1.0000
  S   S34       1.0  0.08341397100957865  0.333948918477432  0.45153356490019736  1.0000
  Fe  Fe18      1.0  0.21588947897086821  0.3337076092804126  0.4461014723726634  1.0000
  S   S35       1.0  0.236145331946948  0.3381696492164639  0.3919419763143115  1.0000
  S   S36       1.0  0.2579910918249363  0.3309329685144963  0.4846403121581452  1.0000
  Fe  Fe19      1.0  0.19419865889685423  0.3598305626818897  0.38977004537326676  1.0000
  S   S37       1.0  0.20946986193086434  0.3863569472184367  0.3634545462682974  1.0000
  Fe  Fe20      1.0  0.19365180212614552  0.3187666996728114  0.37848691801360484  1.0000
  S   S38       1.0  0.20353312476188617  0.29390290993314183  0.3456838267262777  1.0000
  S   S39       1.0  0.17725599989243723  0.3570926139672312  0.4452411169917974  1.0000
  S   S40       1.0  0.1760534828179871  0.31272273755820984  0.4329799680320684  1.0000
  Fe  Fe21      1.0  0.3182150179228111  0.2826394567656382  0.17791075590466116  1.0000
  S   S41       1.0  0.33182774189512515  0.29139621102078134  0.12353316312317966  1.0000
  S   S42       1.0  0.31159910463957585  0.3047745717404648  0.21756689610364519  1.0000
  Fe  Fe22      1.0  0.32760764640573276  0.24242046727691458  0.16175663997258025  1.0000
  S   S43       1.0  0.3420803159696753  0.2478837612368634  0.10662851459933934  1.0000
  S   S44       1.0  0.33018737901431333  0.2135938782439663  0.18210775648665267  1.0000
  Fe  Fe23      1.0  0.3754431169909657  0.2705015517132709  0.12535450554522357  1.0000
  S   S45       1.0  0.42948057671759654  0.27630760711494656  0.10008802197025637  1.0000
  Fe  Fe24      1.0  0.2972559829829933  0.26812396216958095  0.10943231623204591  1.0000
  S   S46       1.0  0.25811425708412566  0.2674528004519399  0.06761990968213377  1.0000
  S   S47       1.0  0.36449834415021887  0.26354293016158953  0.18063285904631726  1.0000
  S   S48       1.0  0.27990141882131564  0.26085632867703873  0.1637809751898807  1.0000
  Fe  Fe25      1.0  0.8370356042600109  0.33722609502473766  0.4389212048343916  1.0000
  S   S49       1.0  0.8515616204422256  0.3120309682878518  0.40912098005359765  1.0000
  S   S50       1.0  0.8179101153080438  0.3374993325099849  0.4945424817128941  1.0000
  Fe  Fe26      1.0  0.847675768520226  0.36241566920206886  0.3766528788883767  1.0000
  S   S51       1.0  0.8605511434951806  0.3388534584998418  0.34202636571252654  1.0000
  S   S52       1.0  0.8556358533409257  0.3898748619583678  0.35059668705934893  1.0000
  Fe  Fe27      1.0  0.8161303446485557  0.32401526611220366  0.37030742559704766  1.0000
  S   S53       1.0  0.773491242635882  0.30525924789923775  0.352161451392778  1.0000
  Fe  Fe28      1.0  0.8947545677909051  0.32937986345709236  0.38376959914504427  1.0000
  S   S54       1.0  0.9503059490709407  0.3223565165909316  0.36390711034236645  1.0000
  S   S55       1.0  0.7997347388709799  0.3485731035493551  0.40124705418716233  1.0000
  S   S56       1.0  0.8836513122248459  0.3535335014294705  0.4172957114729902  1.0000
  Fe  Fe29      1.0  0.6165890890862165  0.27253035484239674  0.16980779580394123  1.0000
  S   S57       1.0  0.6352091723490516  0.2541686209673507  0.1269773665291745  1.0000
  S   S58       1.0  0.5609138718333304  0.27122585056211723  0.19350744399081507  1.0000
  Fe  Fe30      1.0  0.6898031025441317  0.2886399132627056  0.17810866528693273  1.0000
  S   S59       1.0  0.7141616322542494  0.2714907201158723  0.13614107424785085  1.0000
  S   S60       1.0  0.7286849534464425  0.30855108867763303  0.19894827085669972  1.0000
  Fe  Fe31      1.0  0.6663860141278413  0.27863610566524627  0.10757952293113911  1.0000
  S   S61       1.0  0.6687488538077069  0.28682974237340025  0.05179811845501281  1.0000
  Fe  Fe32      1.0  0.6814714666369938  0.2485287189627334  0.15909087123678123  1.0000
  S   S62       1.0  0.7101681199233987  0.22157438325941306  0.1642733191471207  1.0000
  S   S63       1.0  0.6438482138901875  0.2976375200262985  0.14779671527456686  1.0000
  S   S64       1.0  0.6608405205317831  0.2650230661015901  0.203716891990437  1.0000
  Fe  Fe33      1.0  0.39313188070172816  0.004871121799239653  0.31257202090595526  1.0000
  S   S65       1.0  0.3842674266575433  0.0034474945348190733  0.369392630535789  1.0000
  S   S66       1.0  0.44707037370806607  0.0009629277376896894  0.2881612491638514  1.0000
  Fe  Fe34      1.0  0.3173770142472914  0.015351919310176987  0.30066648736229423  1.0000
  S   S67       1.0  0.3012854065137433  0.015237652316067107  0.35656621992276283  1.0000
  S   S68       1.0  0.283098925440219  0.0209766307240844  0.25672074049186105  1.0000
  Fe  Fe35      1.0  0.3532765459654918  0.029330990705235482  0.3627874409250732  1.0000
  S   S69       1.0  0.36634292456320106  0.05491732026406515  0.3904839810407222  1.0000
  Fe  Fe36      1.0  0.33371872807324116  0.9892613134854893  0.3579926566306112  1.0000
  S   S70       1.0  0.31311710556738986  0.9640554996203254  0.38618532442296233  1.0000
  S   S71       1.0  0.36635592322941685  0.031716246765969736  0.30665165063829647  1.0000
  S   S72       1.0  0.34562841049864373  0.9884236556739991  0.30143312914941267  1.0000
  Fe  Fe37      1.0  0.3482634425571833  0.0974507356679685  0.13798927250391071  1.0000
  S   S73       1.0  0.36955923673333024  0.07556034718848678  0.10318392466865728  1.0000
  S   S74       1.0  0.3430008072776612  0.09524546304660354  0.19505237237800166  1.0000
  Fe  Fe38      1.0  0.34183822708315176  0.1254234613021779  0.08135839068641162  1.0000
  S   S75       1.0  0.36280789045029227  0.10614373153109856  0.04095933047506661  1.0000
  S   S76       1.0  0.32277550044474107  0.15374964389343987  0.06800488959820798  1.0000
  Fe  Fe39      1.0  0.3280745084801695  0.08522458803045019  0.06823991835013483  1.0000
  S   S77       1.0  0.2978130412652724  0.0636629064693695  0.04161715088586959  1.0000
  Fe  Fe40      1.0  0.40238047643063146  0.0979954005840953  0.07866600279972097  1.0000
  S   S78       1.0  0.4589630989839618  0.0925208785133496  0.06215246751185888  1.0000
  S   S79       1.0  0.30339403568640055  0.10516491268055368  0.10560675773774898  1.0000
  S   S80       1.0  0.3850899843100287  0.11922433506498356  0.11666066883696612  1.0000
  Fe  Fe41      1.0  0.6165971463160168  0.9839372580847899  0.41037600966237386  1.0000
  S   S81       1.0  0.6155680430088839  0.004228822530513376  0.3672410906919707  1.0000
  S   S82       1.0  0.6006606361576339  0.9549941857084987  0.39878151342054063  1.0000
  Fe  Fe42      1.0  0.6372027292612027  0.012985727796511304  0.4602231076315622  1.0000
  S   S83       1.0  0.6382629964460331  0.03574616025970334  0.4210962415403405  1.0000
  S   S84       1.0  0.6451498158590753  0.015748977805973174  0.516428609200201  1.0000
  Fe  Fe43      1.0  0.5881929530032407  0.022855432489644167  0.404980701803862  1.0000
  S   S85       1.0  0.5412132759995464  0.04010469462826505  0.3927159919472468  1.0000
  Fe  Fe44      1.0  0.6655815970904103  0.015215133107987944  0.38652483236343327  1.0000
  S   S86       1.0  0.7069985108240313  0.01986664635153934  0.343932637870949  1.0000
  S   S87       1.0  0.5846615162385448  0.0017221313615758405  0.4466250346239951  1.0000
  S   S88       1.0  0.6692618966791046  0.9934023433448979  0.4270814770918994  1.0000
  Fe  Fe45      1.0  0.664630177709004  0.09584619610525245  0.21443834170753395  1.0000
  S   S89       1.0  0.6892651411562468  0.11022752877418411  0.1679091499946557  1.0000
  S   S90       1.0  0.685170476613081  0.09561430199155808  0.2673632128990045  1.0000
  Fe  Fe46      1.0  0.5983920277746089  0.08557094782048558  0.17933630976738218  1.0000
  S   S91       1.0  0.616725949808383  0.09887058675827004  0.12980596363323976  1.0000
  S   S92       1.0  0.544754217887724  0.07289904042490053  0.1903499371480092  1.0000
  Fe  Fe47      1.0  0.6690188515379629  0.08597377096984274  0.13981698845673535  1.0000
  S   S93       1.0  0.7013834807967747  0.07285290924083124  0.09682689258198794  1.0000
  Fe  Fe48      1.0  0.6350605280299224  0.12204876121024896  0.16149062579128504  1.0000
  S   S94       1.0  0.6174287893322931  0.15052006442702517  0.14614858269961165  1.0000
  S   S95       1.0  0.6491593166450087  0.0706140458234571  0.186998383209323  1.0000
  S   S96       1.0  0.6120075725466859  0.1097495219012597  0.2102741890540121  1.0000
  Fe  Fe49      1.0  0.1799449368022023  0.7448204535354387  0.16301983447876056  1.0000
  S   S97       1.0  0.13962711768457933  0.7658795859856786  0.1803917421212684  1.0000
  S   S98       1.0  0.17856571841829866  0.717418549942542  0.1896715641019404  1.0000
  Fe  Fe50      1.0  0.2130808738487746  0.7698845537730281  0.10759071236444555  1.0000
  S   S99       1.0  0.17528024415154841  0.7926587749474089  0.120242146684794  1.0000
  S   S100      1.0  0.2574463452336348  0.771861972299036  0.06678986521168172  1.0000
  Fe  Fe51      1.0  0.18540656348227627  0.7855210365027239  0.17489764132044638  1.0000
  S   S101      1.0  0.19706723379036836  0.8087814388286871  0.21021033271807685  1.0000
  Fe  Fe52      1.0  0.1334507656721996  0.7708006891606453  0.12437713432349919  1.0000
  S   S102      1.0  0.08350473679647319  0.7723485751967959  0.09488130164094048  1.0000
  S   S103      1.0  0.22617541580796915  0.7640484805806191  0.16179649764876589  1.0000
  S   S104      1.0  0.1708784517746144  0.7483646449283611  0.1075257021656777  1.0000
  Fe  Fe53      1.0  0.35911159952198707  0.8623644901488609  0.35576219282726496  1.0000
  S   S105      1.0  0.36885346803863883  0.8576739983968082  0.41098839584736296  1.0000
  S   S106      1.0  0.3737834082470327  0.8889769461627592  0.32904212576223824  1.0000
  Fe  Fe54      1.0  0.34011129921913624  0.8226771283677248  0.3438455376354021  1.0000
  S   S107      1.0  0.3499756935509071  0.8145915268587451  0.3979349380284601  1.0000
  S   S108      1.0  0.32301148565290244  0.7997368194809065  0.309971024467617  1.0000
  Fe  Fe55      1.0  0.32017991675386587  0.8401014118929158  0.4120627848538685  1.0000
  S   S109      1.0  0.2770898872819079  0.840266564818652  0.45444732153733214  1.0000
  Fe  Fe56      1.0  0.39795702731574156  0.832588860193534  0.39262337992870533  1.0000
  S   S110      1.0  0.44810952874008964  0.8258311954629118  0.41897581934698075  1.0000
  S   S111      1.0  0.30717731053350783  0.8472884853575207  0.35809700522641275  1.0000
  S   S112      1.0  0.3913615720672797  0.8382085860869193  0.3370869547123733  1.0000
  Fe  Fe57      1.0  0.8397086095837166  0.7346037759191628  0.1252277911019063  1.0000
  S   S113      1.0  0.8498977638383289  0.7414583755001777  0.17937671230566818  1.0000
  S   S114      1.0  0.8454680591411377  0.7068676039244791  0.10091622408915146  1.0000
  Fe  Fe58      1.0  0.8301428564678067  0.774405272200442  0.10399575917846399  1.0000
  S   S115      1.0  0.8398307349112303  0.7844840683595274  0.15655791443863276  1.0000
  S   S116      1.0  0.8378170545059402  0.8005544843330761  0.5575060979015157  1.0000
  Fe  Fe59      1.0  0.8839236266333221  0.763930475866599  0.15617001450085757  1.0000
  S   S117      1.0  0.9356250917987929  0.770719865885173  0.17920675485810025  1.0000
  Fe  Fe60      1.0  0.8049371378020483  0.761415232472847  0.17545381181347178  1.0000
  S   S118      1.0  0.7633213039532161  0.7637083679412545  0.2190265789438071  1.0000
  S   S119      1.0  0.87737516360271  0.7556263435085178  0.10229875576696518  1.0000
  S   S120      1.0  0.7915763734056386  0.7527274993610943  0.1226474475824271  1.0000
  Fe  Fe61      1.0  0.6985293037625642  0.8642373497575516  0.409609359783557  1.0000
  S   S121      1.0  0.653047486684887  0.8469526667365594  0.4304670969478423  1.0000
  S   S122      1.0  0.7114474225912415  0.892384739706052  0.4279606435667176  1.0000
  Fe  Fe62      1.0  0.7270616170511833  0.8344773537611744  0.36144184870839047  1.0000
  S   S123      1.0  0.6839573919362967  0.8149041214240514  0.3780287659969894  1.0000
  S   S124      1.0  0.7725649126905806  0.828714659514258  0.32343357295592556  1.0000
  Fe  Fe63      1.0  0.6476592122150564  0.8392514725217214  0.37560099459423407  1.0000
  S   S125      1.0  0.5990484906932564  0.8387935905159098  0.3443256983794695  1.0000
  Fe  Fe64      1.0  0.6937382817737023  0.8243144447337607  0.43121885190071224  1.0000
  S   S126      1.0  0.6990451659986454  0.8029611379571518  0.47309151231379226  1.0000
  S   S127      1.0  0.6904705026005692  0.8582590968920805  0.3548198539446439  1.0000
  S   S128      1.0  0.7394592098947647  0.8422145191126665  0.4144959949031895  1.0000
  C   C1        1.0  0.7995594771929119  0.8009070563562114  0.5336154970656877  1.0000
  C   C2        1.0  0.7916089349876811  0.8166338018206494  0.5146494682744177  1.0000
  C   C3        1.0  0.7608180546420208  0.8174418769928629  0.4960796183207634  1.0000
  C   C4        1.0  0.7378774010684799  0.8024643971518013  0.49614180284817305  1.0000
  C   C5        1.0  0.7459454663998573  0.7866961473847003  0.5149713393237498  1.0000
  C   C6        1.0  0.7767475312432901  0.7858847831444412  0.5335336647484747  1.0000
  H   H1        1.0  0.8090018536211232  0.8283645562693729  0.5147364427269568  1.0000
  H   H2        1.0  0.7544748163619841  0.8298209855304884  0.48236933622829475  1.0000
  H   H3        1.0  0.7284073598654771  0.7750147045068162  0.5149949791403122  1.0000
  H   H4        1.0  0.7829653735193064  0.7735617495397104  0.5474832070160001  1.0000
  C   C7        1.0  0.7678582854512137  0.7810839566431209  0.24920575646741094  1.0000
  C   C8        1.0  0.7931580839661365  0.7948808438640506  0.2440280178499799  1.0000
  C   C9        1.0  0.7946476078263605  0.8092671199629636  0.2672743307936486  1.0000
  C   C10       1.0  0.7707863216291694  0.8100003696259513  0.29578234312838414  1.0000
  C   C11       1.0  0.7461908256051536  0.7959128605800135  0.3016661310862758  1.0000
  C   C12       1.0  0.7447164780550861  0.781495057215926  0.27839141060663436  1.0000
  H   H5        1.0  0.8112953460872179  0.7946370249890371  0.22189331021057945  1.0000
  H   H6        1.0  0.8140085090752723  0.8200257387462653  0.2627885137187462  1.0000
  H   H7        1.0  0.7282254520479917  0.7961382740006656  0.3239799039578629  1.0000
  H   H8        1.0  0.7253607002038145  0.7707207356405972  0.28271817050740183  1.0000
  C   C13       1.0  0.48984351989990776  0.8291566340185035  0.3976761856177963  1.0000
  C   C14       1.0  0.5203992618217606  0.8282133619199014  0.41643427731290344  1.0000
  C   C15       1.0  0.5540471592755941  0.8312720170692223  0.4003996267869587  1.0000
  C   C16       1.0  0.5572948571554295  0.8351536516734064  0.3654163707853907  1.0000
  C   C17       1.0  0.5267508493416155  0.83607909017327  0.34661639821991946  1.0000
  C   C18       1.0  0.4930802286449423  0.8331352804092682  0.36270971633949645  1.0000
  H   H9        1.0  0.5180348553728462  0.8251358895993838  0.4435072268405852  1.0000
  H   H10       1.0  0.577439962059496  0.830472516390635  0.4150789740931827  1.0000
  H   H11       1.0  0.5291340798421894  0.8389961488209087  0.3195034019571997  1.0000
  H   H12       1.0  0.4697145781959641  0.8337373903734704  0.34801862637085484  1.0000
  C   C19       1.0  0.042531600228441206  0.7712119120040728  0.11852536930408752  1.0000
  C   C20       1.0  0.011169186868733139  0.7685831840859761  0.10152903952869592  1.0000
  C   C21       1.0  0.9781475576100714  0.7680289583968923  0.11988055222771431  1.0000
  C   C22       1.0  0.9763688235852445  0.7703668929705113  0.15526040003308067  1.0000
  C   C23       1.0  0.007679448330174754  0.7729125078101622  0.17217455715363567  1.0000
  C   C24       1.0  0.040660967642182966  0.7732372379096348  0.15392845589147747  1.0000
  H   H13       1.0  0.012490957540138181  0.7669919997484783  0.07411545742127137  1.0000
  H   H14       1.0  0.9541704133686452  0.7659903402910881  0.10664765833525512  1.0000
  H   H15       1.0  0.0064738478633217245  0.7747410269736134  0.1995506221938094  1.0000
  H   H16       1.0  0.06457387243685313  0.7753836751120027  0.16725572491651153  1.0000
  C   C25       1.0  0.26665287648629454  0.7899122332313846  0.5250285030213035  1.0000
  C   C26       1.0  0.23955149726024266  0.802977602005639  0.5247824977389652  1.0000
  C   C27       1.0  0.24313706567047133  0.8184897197635695  0.5033001560785196  1.0000
  C   C28       1.0  0.27371330298888763  0.820973981728826  0.48186065797102456  1.0000
  C   C29       1.0  0.3007877676033584  0.8079179315654431  0.4822529563737185  1.0000
  C   C30       1.0  0.29715319360428566  0.7923951261870479  0.5035614593833599  1.0000
  H   H17       1.0  0.21577252087505822  0.8011212021525294  0.5409777910929926  1.0000
  H   H18       1.0  0.22205756290350795  0.8285398025299742  0.503133308088817  1.0000
  H   H19       1.0  0.32485727038640827  0.8099043066955536  0.4666285982853328  1.0000
  H   H20       1.0  0.3183219395914023  0.7823927892195361  0.5037590923404381  1.0000
  C   C31       1.0  0.2306033973071701  0.8059130934186144  0.2394736548276024  1.0000
  C   C32       1.0  0.24633615534855494  0.788853562298467  0.2447681805388334  1.0000
  C   C33       1.0  0.2746299925118297  0.7871853765679253  0.2664591411906741  1.0000
  C   C34       1.0  0.28704581261747836  0.8024784390299513  0.2834549367771856  1.0000
  C   C35       1.0  0.2707677041092492  0.8194664506435868  0.27885083975412506  1.0000
  C   C36       1.0  0.24267053923797077  0.8211688574974373  0.2568593817513809  1.0000
  H   H21       1.0  0.23686853785113793  0.7769455342832121  0.232010541650405  1.0000
  H   H22       1.0  0.2869608642213282  0.7739717012535973  0.2700640778729425  1.0000
  H   H23       1.0  0.2801266361983545  0.8313460017553341  0.29179893412897795  1.0000
  H   H24       1.0  0.2304938621399026  0.8343981534143664  0.2530216013981639  1.0000
  C   C37       1.0  0.6354381215946255  0.07212253581229806  0.5641609535431749  1.0000
  C   C38       1.0  0.6234381248207727  0.05661968290748434  0.5824321346044963  1.0000
  C   C39       1.0  0.6247746999757987  0.0394231813235959  0.566941578484558  1.0000
  C   C40       1.0  0.6377110423130103  0.037692178998834036  0.533012884607895  1.0000
  C   C41       1.0  0.6479490946960812  0.05332924730577702  0.5141607600407702  1.0000
  C   C42       1.0  0.64675593176872  0.07053655386942344  0.5297378626343842  1.0000
  H   H25       1.0  0.7206835704011085  0.03557145132186169  0.10952887868455809  1.0000
  H   H26       1.0  0.6163456453933241  0.027361814806269313  0.5814053194232244  1.0000
  H   H27       1.0  0.6582672773796184  0.05208321290912554  0.48805561151377735  1.0000
  H   H28       1.0  0.6558090820920033  0.08252189544686499  0.5153838319779234  1.0000
  C   C43       1.0  0.7007669444155938  0.04084120627735488  0.3224810416091232  1.0000
  C   C44       1.0  0.7044144277680333  0.04180640863642937  0.2867293383493627  1.0000
  C   C45       1.0  0.6991534790113829  0.058496156876863825  0.2694435105325499  1.0000
  C   C46       1.0  0.6912014514313665  0.07436729866192994  0.28794058197338274  1.0000
  C   C47       1.0  0.687871865301885  0.0733938922544397  0.32366918521418986  1.0000
  C   C48       1.0  0.6921576009792527  0.05664385032340949  0.3408815956277123  1.0000
  H   H29       1.0  0.7112280583824169  0.029647386615609506  0.2723630451794661  1.0000
  H   H30       1.0  0.7021925545886415  0.05919017468740018  0.24189077671919434  1.0000
  H   H31       1.0  0.6818429640051558  0.08563955307773384  0.33809466751007095  1.0000
  H   H32       1.0  0.6896004450603261  0.0560614756305276  0.368458241649412  1.0000
  C   C49       1.0  0.6307111622842361  0.9374715410196899  0.4083366302182291  1.0000
  C   C50       1.0  0.6260698123666014  0.9199345874899213  0.39521331363326145  1.0000
  C   C51       1.0  0.6505036214786774  0.9059153137088426  0.4014437514717645  1.0000
  C   C52       1.0  0.6797113800149326  0.909426829868331  0.4207912413172856  1.0000
  C   C53       1.0  0.6842276469189235  0.9269319635667876  0.43406886376461074  1.0000
  C   C54       1.0  0.6597022212330553  0.9409035912885347  0.42798384880782286  1.0000
  H   H33       1.0  0.6036466028805278  0.9172079280866265  0.38004180513351493  1.0000
  H   H34       1.0  0.6468211191214529  0.8924221347903715  0.39120111642012845  1.0000
  H   H35       1.0  0.7065980266334575  0.9296319571778875  0.449342347805837  1.0000
  H   H36       1.0  0.6629998872302209  0.9542328185160558  0.43889069001171616  1.0000
  C   C55       1.0  0.48171376209008643  0.08497080261605078  0.09733690324898313  1.0000
  C   C56       1.0  0.46501665695102107  0.08520492857508774  0.13001123246457816  1.0000
  C   C57       1.0  0.4841789098321214  0.08074091922178019  0.15856321079270344  1.0000
  C   C58       1.0  0.5199221416503401  0.07587140794962417  0.15439536910275398  1.0000
  C   C59       1.0  0.5362187683892474  0.07486877041188168  0.12161642651192636  1.0000
  C   C60       1.0  0.5171387778309314  0.07950021217436985  0.0930585180315895  1.0000
  H   H37       1.0  0.43767233044948695  0.08945514796533739  0.13344965527382127  1.0000
  H   H38       1.0  0.47173224634702515  0.08179976771569764  0.1839281980727338  1.0000
  H   H39       1.0  0.5637093087760489  0.07077591216944837  0.11827696513692107  1.0000
  H   H40       1.0  0.5300917312830463  0.07919432508507784  0.06779372256994717  1.0000
  C   C61       1.0  0.47419374057933716  0.012087638196345951  0.3159105946858565  1.0000
  C   C62       1.0  0.5034672636220342  0.0030418906970446358  0.32838367732899437  1.0000
  C   C63       1.0  0.5233661772705349  0.011397423975611387  0.35290145984528165  1.0000
  C   C64       1.0  0.5150933830174695  0.029115741973853027  0.36374205305399593  1.0000
  C   C65       1.0  0.48577788240639197  0.0381737295560054  0.35123998495990444  1.0000
  C   C66       1.0  0.4649970529262738  0.029545596979188682  0.3277332739594756  1.0000
  H   H41       1.0  0.5098661637211841  0.9892789718940691  0.3202078457898002  1.0000
  H   H42       1.0  0.5444566140075184  0.00385965990311532  0.36394058535353074  1.0000
  H   H43       1.0  0.4790471503937304  0.051833987146183924  0.3597468943580713  1.0000
  H   H44       1.0  0.44195021415779084  0.036471235556140735  0.3187365326931019  1.0000
  C   C67       1.0  0.29470502643216406  0.04257070324816081  0.23958556859154517  1.0000
  C   C68       1.0  0.2944231087123706  0.04592270335400506  0.2043412090779103  1.0000
  C   C69       1.0  0.30809819287502066  0.06240770208011979  0.19034382225652427  1.0000
  C   C70       1.0  0.3219400336305642  0.07549559185483212  0.2116910681749409  1.0000
  C   C71       1.0  0.3206530116336812  0.07246555537584372  0.24698028403664418  1.0000
  C   C72       1.0  0.3071201269952899  0.056038325882561676  0.26087847245591  1.0000
  H   H45       1.0  0.2847166708077471  0.03555291437304997  0.18777381544167507  1.0000
  H   H46       1.0  0.30871821097406704  0.064759148043197  0.163034449703274  1.0000
  H   H47       1.0  0.33099730734412475  0.0826204775047908  0.2636322784840958  1.0000
  H   H48       1.0  0.3064770926184454  0.053761223859877666  0.2881965558912449  1.0000
  C   C73       1.0  0.3474157096387447  0.05798028653327614  0.4317812443140957  1.0000
  C   C74       1.0  0.35836245462610167  0.07286261746792055  0.4506777534854298  1.0000
  C   C75       1.0  0.32843911683678306  0.07541598153794608  0.9805497399765832  1.0000
  C   C76       1.0  0.31427643262102595  0.060604004013578176  0.9994590670652208  1.0000
  C   C77       1.0  0.3097013958330854  0.047926808800501694  0.48035252970041314  1.0000
  C   C78       1.0  0.32301666059164946  0.04549034544096009  0.44657066587300076  1.0000
  H   H49       1.0  0.3769812797665108  0.08263784674096852  0.43917840062986163  1.0000
  H   H50       1.0  0.32677821661904266  0.08900744082820626  0.990863342079236  1.0000
  H   H51       1.0  0.2907942568608181  0.038292070628351826  0.49184225753531324  1.0000
  H   H52       1.0  0.31446659935602767  0.03397586370639162  0.4320662954594119  1.0000
  C   C79       1.0  0.3317087048098773  0.9431856231035479  0.3720133367246192  1.0000
  C   C80       1.0  0.35830156640162875  0.942894925961974  0.3458630623735471  1.0000
  C   C81       1.0  0.3708711478614352  0.9261581545489865  0.33289601779736483  1.0000
  C   C82       1.0  0.3574461341990805  0.9095958312141564  0.34640558694834633  1.0000
  C   C83       1.0  0.33154122215062687  0.9098135285895089  0.37321685665217397  1.0000
  C   C84       1.0  0.3185382924740543  0.9266096797485738  0.3858500211296986  1.0000
  H   H53       1.0  0.36915702480380136  0.9555522263277318  0.33547864991892007  1.0000
  H   H54       1.0  0.3911259463384647  0.9260560850760386  0.31233092201615564  1.0000
  H   H55       1.0  0.32116702659086116  0.8970714145273412  0.3838745060713205  1.0000
  H   H56       1.0  0.2980479060215596  0.9267489042512894  0.40619508544667915  1.0000
  C   C85       1.0  0.6840318744255395  0.20176869892440863  0.16116289648222296  1.0000
  C   C86       1.0  0.647836714344611  0.20314156342705783  0.15588315248254273  1.0000
  C   C87       1.0  0.6277873955865373  0.18729208098137864  0.1514373414774723  1.0000
  C   C88       1.0  0.6435285618208297  0.16992517923016873  0.15315241490651219  1.0000
  C   C89       1.0  0.6795886844208421  0.16849210745368823  0.15916247849672369  1.0000
  C   C90       1.0  0.6998514306436397  0.18440820531813343  0.16288927034577927  1.0000
  H   H57       1.0  0.6352024950501467  0.21640534956319804  0.15517766388871423  1.0000
  H   H58       1.0  0.5998617378785877  0.1885012405551976  0.14703203114212327  1.0000
  H   H59       1.0  0.6919473313860119  0.15514923519292315  0.16047269058114966  1.0000
  H   H60       1.0  0.7278240716239659  0.18322603933246243  0.1671018695695146  1.0000
  C   C91       1.0  0.7987393654837035  0.3174994203021158  0.5129583577128108  1.0000
  C   C92       1.0  0.7780470236832627  0.3186203860301347  0.5436801469169029  1.0000
  C   C93       1.0  0.7606079030315991  0.3030527132081775  0.5576872791247804  1.0000
  C   C94       1.0  0.7642285955615566  0.28624731880389515  0.5412015620740738  1.0000
  C   C95       1.0  0.7856419437209726  0.28504742000190086  0.5110152322696827  1.0000
  C   C96       1.0  0.8026635424174386  0.3006281274973966  0.4968253781313941  1.0000
  H   H61       1.0  0.7750171830378133  0.33163888921676554  0.5563576311024557  1.0000
  H   H62       1.0  0.744265447734897  0.30409227313247966  0.581070068216203  1.0000
  H   H63       1.0  0.7888366806924236  0.2720480690208514  0.49832710577461886  1.0000
  H   H64       1.0  0.8189401529502008  0.29954050926570774  0.4734947491656132  1.0000
  C   C97       1.0  0.7601110977907768  0.3070761188245542  0.30996282903195543  1.0000
  C   C98       1.0  0.7776778896828574  0.31860136798544025  0.28601741098480365  1.0000
  C   C99       1.0  0.7670947754803135  0.3192716986328409  0.2522327307720002  1.0000
  C   C100      1.0  0.738891329220076  0.30848033469624575  0.24223757216386202  1.0000
  C   C101      1.0  0.7208614627527554  0.2972170859508572  0.2663649000489574  1.0000
  C   C102      1.0  0.7316251175062309  0.2964297137858273  0.3000965773756229  1.0000
  H   H65       1.0  0.7995863504116054  0.3268957368764639  0.2934225478697518  1.0000
  H   H66       1.0  0.7810653894963578  0.3280662634710432  0.23368550042561265  1.0000
  H   H67       1.0  0.6987099323148124  0.2890923326337603  0.25901797869840276  1.0000
  H   H68       1.0  0.7177987137698061  0.28757085657741904  0.3186070961924026  1.0000
  C   C103      1.0  0.3300140782363211  0.19759342310728775  0.1492070951438687  1.0000
  C   C104      1.0  0.30934452373111704  0.20050228549170307  0.12111371558622205  1.0000
  C   C105      1.0  0.3076295760630277  0.1870103962139117  0.09611538714463148  1.0000
  C   C106      1.0  0.32683205831364537  0.1706932011194204  0.09890739070760153  1.0000
  C   C107      1.0  0.34810064824583065  0.1679853695965154  0.1266216763162585  1.0000
  C   C108      1.0  0.34958256645989955  0.18139741570697515  0.15179023358650898  1.0000
  H   H69       1.0  0.293815806154373  0.21289932790684496  0.11930229571220047  1.0000
  H   H70       1.0  0.29071360530274315  0.18898296618842064  0.0750407696735906  1.0000
  H   H71       1.0  0.36339748627512164  0.15561337452167148  0.12872040752900069  1.0000
  H   H72       1.0  0.3660708253365087  0.17931523389041565  0.1732187146546444  1.0000
  C   C109      1.0  0.4666166993677071  0.2735337258813436  0.12508199411947962  1.0000
  C   C110      1.0  0.4999637875656307  0.2797502507989482  0.11250772251509324  1.0000
  C   C111      1.0  0.5294567878544766  0.27861120302236264  0.1328879458325002  1.0000
  C   C112      1.0  0.5255297485396104  0.2714679128593233  0.16611205539358007  1.0000
  C   C113      1.0  0.4923161003490053  0.2650412869341197  0.17846975559471048  1.0000
  C   C114      1.0  0.4631025766003105  0.2658318519378605  0.1578560080988801  1.0000
  H   H73       1.0  0.5029389439529922  0.2856425966969848  0.08708806464971791  1.0000
  H   H74       1.0  0.5550090324549454  0.2836241774246325  0.12318588707877016  1.0000
  H   H75       1.0  0.48927740723967705  0.25929348430824917  0.20399919025104496  1.0000
  H   H76       1.0  0.4379512740505432  0.2604229861472114  0.1673579816609364  1.0000
  C   C115      1.0  0.04571083224834096  0.3336029463790409  0.4270426991429491  1.0000
  C   C116      1.0  0.0485468262511669  0.3353738782917292  0.3914956945189768  1.0000
  C   C117      1.0  0.01888128642290332  0.3322134342025725  0.37231130178193267  1.0000
  C   C118      1.0  0.9859116035238153  0.32808866899486067  0.3886671587446929  1.0000
  C   C119      1.0  0.9825016138600088  0.3275526017157856  0.4242894673482167  1.0000
  C   C120      1.0  0.0124567627624832  0.3301140092605805  0.4434086135762745  1.0000
  H   H77       1.0  0.07375348336213039  0.33874610237766  0.37873151423515344  1.0000
  H   H78       1.0  0.021504711628418383  0.33285869680780844  0.3447198806692197  1.0000
  H   H79       1.0  0.9571274192038356  0.32438435590299153  0.43707683775064865  1.0000
  H   H80       1.0  0.010031131772705763  0.32888330002207766  0.47095629216627927  1.0000
  C   C121      1.0  0.26570709025654643  0.3103681527201555  0.5067598492001831  1.0000
  C   C122      1.0  0.24203771216585904  0.29569149228936226  0.5068943989450426  1.0000
  C   C123      1.0  0.2494395520190621  0.27950719542364244  0.5250182559019213  1.0000
  C   C124      1.0  0.28048990765480114  0.277965314361472  0.5429696864608069  1.0000
  C   C125      1.0  0.3042383128720836  0.29257857878913557  0.5423730613142216  1.0000
  C   C126      1.0  0.2967519348633213  0.30875113601185405  0.5245590986781122  1.0000
  H   H81       1.0  0.21789171136669722  0.296893858195172  0.4934307994798231  1.0000
  H   H82       1.0  0.23089980703157947  0.2682485421743709  0.5254338883261896  1.0000
  H   H83       1.0  0.2969106956987497  0.3017678026227484  0.058662951188067185  1.0000
  H   H84       1.0  0.3152826880195838  0.3200252183679306  0.5243221272115528  1.0000
  C   C127      1.0  0.2322948949665686  0.29717751793743175  0.309192809819641  1.0000
  C   C128      1.0  0.2475392088714245  0.3142582150541268  0.3017063900821005  1.0000
  C   C129      1.0  0.2717816758445783  0.31639429745047987  0.2735265941213601  1.0000
  C   C130      1.0  0.2804877537938936  0.30157511899672684  0.25226951651380414  1.0000
  C   C131      1.0  0.26498561140330507  0.2845140069180441  0.25953623692540456  1.0000
  C   C132      1.0  0.2410753858939352  0.2823122687072104  0.28804394870321626  1.0000
  H   H85       1.0  0.24069044614764648  0.3258738088176621  0.3175636308000033  1.0000
  H   H86       1.0  0.2834996024397195  0.3296572845042529  0.26794324662547914  1.0000
  H   H87       1.0  0.2716278763852724  0.2729939154719939  0.24335168928410242  1.0000
  H   H88       1.0  0.22940958677465603  0.2690521475644787  0.293675089207644  1.0000
  C   C133      1.0  0.8598854970706902  0.6546550027047601  0.16410571231487292  1.0000
  C   C134      1.0  0.8542799485401156  0.6714108836737199  0.18060387778191117  1.0000
  C   C135      1.0  0.848867186660287  0.6874956730600905  0.16157607845384206  1.0000
  C   C136      1.0  0.8495108219138061  0.6868945192758066  0.12592687988127774  1.0000
  C   C137      1.0  0.8549493781183786  0.6701064837805512  0.10951254554355666  1.0000
  C   C138      1.0  0.8599727799111943  0.6540009345035861  0.128535240347581  1.0000
  H   H89       1.0  0.8540138289264707  0.6719475667183691  0.20816097992969143  1.0000
  H   H90       1.0  0.8442234614109222  0.700318914896716  0.17449167582274513  1.0000
  H   H91       1.0  0.8553893499064524  0.6695532304805736  0.08193570889441752  1.0000
  H   H92       1.0  0.8641995727231291  0.6411194902749235  0.11561078123008486  1.0000
  C   C139      1.0  0.8636481676418472  0.5589282993955584  0.48240629615062575  1.0000
  C   C140      1.0  0.8771412041668962  0.5690614755786235  0.5087884083159746  1.0000
  C   C141      1.0  0.8150236363226839  0.5612019077160972  0.03869893210692089  1.0000
  C   C142      1.0  0.8409852935722579  0.570734871940372  0.018982309979435286  1.0000
  C   C143      1.0  0.8039115195145214  0.5665812506971213  0.5036152979639559  1.0000
  C   C144      1.0  0.8269539656795392  0.5577956021210118  0.4796401554430933  1.0000
  H   H93       1.0  0.9053963339430778  0.5704632616185187  0.5103155885867521  1.0000
  H   H94       1.0  0.8087961287825601  0.5650890974244528  0.06485030004689513  1.0000
  H   H95       1.0  0.7755509419008211  0.5656298030368445  0.5015472194675894  1.0000
  H   H96       1.0  0.8163332518486235  0.5501915232555011  0.4590962618523509  1.0000
  C   C145      1.0  0.7735403015203293  0.5393355522361449  0.29402610444784655  1.0000
  C   C146      1.0  0.7425384576329417  0.5443111764778269  0.2783121743033473  1.0000
  C   C147      1.0  0.7441611049853915  0.5512395175585435  0.2448567667535994  1.0000
  C   C148      1.0  0.7768326143736368  0.553492322782377  0.226877569951466  1.0000
  C   C149      1.0  0.8080992900000565  0.5486547451494348  0.24253400559196375  1.0000
  C   C150      1.0  0.806394800730993  0.5414035605792835  0.2760962397102481  1.0000
  H   H97       1.0  0.7170948081021697  0.5426773466286439  0.291991090008563  1.0000
  H   H98       1.0  0.7199291217083557  0.5548174388546665  0.2328427269334218  1.0000
  H   H99       1.0  0.833334172159505  0.5500763968813696  0.22850173283871864  1.0000
  H   H100      1.0  0.8302285380132802  0.537218166296092  0.2880855688219512  1.0000
  C   C151      1.0  0.8337623791195047  0.44319668042544613  0.4077689960496377  1.0000
  C   C152      1.0  0.8224003608381675  0.42649941039151856  0.42255025280749714  1.0000
  C   C153      1.0  0.8294137607266145  0.4099468145810301  0.40554400161793236  1.0000
  C   C154      1.0  0.8471864730845502  0.4101294598014942  0.3733710345213628  1.0000
  C   C155      1.0  0.8586701153779669  0.4268098479493023  0.3587060350430304  1.0000
  C   C156      1.0  0.85239533820431  0.44327363350713006  0.37603176409480626  1.0000
  H   H101      1.0  0.8080545799972061  0.4263736248799487  0.44716737640458365  1.0000
  H   H102      1.0  0.820607446247136  0.39711350628823183  0.4170686105704419  1.0000
  H   H103      1.0  0.8725910359664597  0.42700245000972825  0.3338749711303533  1.0000
  H   H104      1.0  0.861634939658295  0.45602996806532337  0.36460851858041055  1.0000
  C   C157      1.0  0.038233065836094995  0.5312560387100252  0.3622849722298231  1.0000
  C   C158      1.0  0.0042822714561683295  0.534181894957268  0.3770975132589503  1.0000
  C   C159      1.0  0.9751184807517  0.5253062389606314  0.36429306883047957  1.0000
  C   C160      1.0  0.9796126054335863  0.5141171208100228  0.3356758520907649  1.0000
  C   C161      1.0  0.013533531472378568  0.511357567925037  0.3205824861533819  1.0000
  C   C162      1.0  0.042908542929085414  0.5197037076958776  0.3341980616954123  1.0000
  H   H105      1.0  0.0005552416579375199  0.5430782619904815  0.3988471738016508  1.0000
  H   H106      1.0  0.9490316323133243  0.5275837671032132  0.3760997174205926  1.0000
  H   H107      1.0  0.017108402986009796  0.5026749014978429  0.29851907189055593  1.0000
  H   H108      1.0  0.06899437043030145  0.5174633993190638  0.32245354984815383  1.0000
  C   C163      1.0  0.14674193076375333  0.4370218887089972  0.39797447450514667  1.0000
  C   C164      1.0  0.17532857577765568  0.4386615507312051  0.37402251685474036  1.0000
  C   C165      1.0  0.1943593625524766  0.42300933446281846  0.3634291654755422  1.0000
  C   C166      1.0  0.18489920596065443  0.40570557695984355  0.37674285817517106  1.0000
  C   C167      1.0  0.15618443628446063  0.40408626559442123  0.4005696510894659  1.0000
  C   C168      1.0  0.13716242722567074  0.4197216550386295  0.41115694132104175  1.0000
  H   H109      1.0  0.18276312943333928  0.4519548185815146  0.3635995770112418  1.0000
  H   H110      1.0  0.2164492391295899  0.4242998887052692  0.34484981255979774  1.0000
  H   H111      1.0  0.1485599079553421  0.3907896421324348  0.4107497305059219  1.0000
  H   H112      1.0  0.11507477828339692  0.41841175360320704  0.4297179852254454  1.0000
  C   C169      1.0  0.04288542363943663  0.5928983066237231  0.19360715774882895  1.0000
  C   C170      1.0  0.05086331696994706  0.5748924996090089  0.1842698864149735  1.0000
  C   C171      1.0  0.024039478170641004  0.563349567134584  0.17392407862410042  1.0000
  C   C172      1.0  0.9895983836008281  0.5700814173668641  0.17148305065135755  1.0000
  C   C173      1.0  0.9819115077214581  0.588269055421978  0.1797543280402846  1.0000
  C   C174      1.0  0.008359608791431272  0.5995395766279701  0.19160021882957015  1.0000
  H   H113      1.0  0.07757672023868979  0.5697880638076555  0.1854127936902364  1.0000
  H   H114      1.0  0.03007644263352449  0.5492793044694616  0.16755872935451688  1.0000
  H   H115      1.0  0.9553738066996963  0.5935928716478522  0.17793545173787134  1.0000
  H   H116      1.0  0.0022230392706050752  0.6135169417060616  0.19860924440339026  1.0000
  C   C175      1.0  0.1666687770913482  0.5529501481943052  0.048731637510221144  1.0000
  C   C176      1.0  0.15895029212964545  0.5369000963179735  0.031482143932102025  1.0000
  C   C177      1.0  0.15127139944248416  0.540308777216601  0.4919028269567519  1.0000
  C   C178      1.0  0.1848688541247327  0.5343202360747833  0.5004110221123244  1.0000
  C   C179      1.0  0.19636250267057573  0.5375948855466958  0.5331949982402302  1.0000
  C   C180      1.0  0.1877165853989506  0.5664019305452758  0.03214863785643418  1.0000
  H   H117      1.0  0.14300189282158482  0.5263660665018094  0.044306336574653  1.0000
  H   H118      1.0  0.14261434980553975  0.5384455761884601  0.46641670494656584  1.0000
  H   H119      1.0  0.22243457298857186  0.5330941543998498  0.5398555185884547  1.0000
  H   H120      1.0  0.19375651614219438  0.5788351714867189  0.04531091249810393  1.0000
  C   C181      1.0  0.23482425259435846  0.5652380270047639  0.24406930979319283  1.0000
  C   C182      1.0  0.23975804265668413  0.5629875655937268  0.27903123316263934  1.0000
  C   C183      1.0  0.23367024014288093  0.5459126410404455  0.29508122666919895  1.0000
  C   C184      1.0  0.22347040737477497  0.5309621182051264  0.27597738702665603  1.0000
  C   C185      1.0  0.21922189208088094  0.5331662045361532  0.24091754525278392  1.0000
  C   C186      1.0  0.22423279957574427  0.5503485284774193  0.22509972299698774  1.0000
  H   H121      1.0  0.2479968909217187  0.5744752142931336  0.2937771705427322  1.0000
  H   H122      1.0  0.2374272309017507  0.5442101014878141  0.32207543376622405  1.0000
  H   H123      1.0  0.21165700645876256  0.5215821462559398  0.226024304575225  1.0000
  H   H124      1.0  0.22070053694923775  0.5519477513377109  0.19804061422149913  1.0000
  C   C187      1.0  0.19117316634992043  0.6661384319885851  0.12476649589966354  1.0000
  C   C188      1.0  0.16959062184055193  0.6659654359182048  0.15481604021851744  1.0000
  C   C189      1.0  0.1655296365476663  0.6818519413276168  0.1743392407706907  1.0000
  C   C190      1.0  0.18185661473502923  0.6981939797495063  0.1632368908633461  1.0000
  C   C191      1.0  0.20201780256521146  0.6986549069971597  0.13226468645238454  1.0000
  C   C192      1.0  0.20690333186112536  0.682590167623908  0.113196484713159  1.0000
  H   H125      1.0  0.1563389879814007  0.6535555635475859  0.16333496285328794  1.0000
  H   H126      1.0  0.14961150983899868  0.681491827015829  0.1981003939114697  1.0000
  H   H127      1.0  0.2148201655052714  0.7112187416570099  0.12364868243208069  1.0000
  H   H128      1.0  0.22346833270060246  0.6828188187620714  0.08984317941333853  1.0000
  Fe  Fe65      1.0  0.16411177848837383  0.6166116711429731  0.6357968823367376  1.0000
  S   S129      1.0  0.1638163015385519  0.6113892014394374  0.6923972283465342  1.0000
  S   S130      1.0  0.1781869906465088  0.6418890301959885  0.604282907802937  1.0000
  Fe  Fe66      1.0  0.13601600787901216  0.5784323891180894  0.6210894310586335  1.0000
  S   S131      1.0  0.13396309694028954  0.5695982053990063  0.6761904280676303  1.0000
  S   S132      1.0  0.11143121347623779  0.5635319769753244  0.5783453206384107  1.0000
  Fe  Fe67      1.0  0.11161156061653583  0.5976129686261452  0.6859868093675003  1.0000
  S   S133      1.0  0.06199598482412431  0.6012211828328151  0.7191761167565612  1.0000
  Fe  Fe68      1.0  0.18628729632395413  0.5838825595055311  0.677936632965445  1.0000
  S   S134      1.0  0.23403879415050916  0.5726985856427769  0.7029096094982645  1.0000
  S   S135      1.0  0.10975317190596334  0.6054414183098141  0.6309193022070161  1.0000
  S   S136      1.0  0.19076383741128977  0.5900809858495281  0.6215725733177825  1.0000
  Fe  Fe69      1.0  0.18592686371737338  0.5206888606936102  0.9112903031554282  1.0000
  S   S137      1.0  0.2181852290066636  0.4965790237388562  0.8925378449623047  1.0000
  S   S138      1.0  0.20892846206426943  0.5446869910595911  0.9383646503012741  1.0000
  Fe  Fe70      1.0  0.1208053307719525  0.5083992656599908  0.8758684522422278  1.0000
  S   S139      1.0  0.14709285546872558  0.4834846732786843  0.8536862574607652  1.0000
  S   S140      1.0  0.06604290482432738  0.5156273114238014  0.8613091350582188  1.0000
  Fe  Fe71      1.0  0.16908228370154696  0.48007088554774635  0.9052793457171495  1.0000
  S   S141      1.0  0.16595680581147512  0.4527081088766471  0.9324731372095721  1.0000
  Fe  Fe72      1.0  0.193419738469279  0.5020013341417487  0.8426064632861812  1.0000
  S   S142      1.0  0.22675293280453843  0.5008143876020147  0.7937244131109857  1.0000
  S   S143      1.0  0.13885478985048375  0.5037524774941572  0.9286719517061983  1.0000
  S   S144      1.0  0.16513882609324357  0.5273097135702921  0.8600775543990539  1.0000
  Fe  Fe73      1.0  0.894212598888983  0.4876936398299611  0.9327871381479826  1.0000
  S   S145      1.0  0.84024326971123  0.47800296740492465  0.9510436498794962  1.0000
  S   S146      1.0  0.9440353221654648  0.4836730098958405  0.9603821709047661  1.0000
  Fe  Fe74      1.0  0.8679828692084259  0.5071187433652337  0.8706233302084865  1.0000
  S   S147      1.0  0.8111998135062756  0.49960491042279537  0.8833965301301124  1.0000
  S   S148      1.0  0.8917444227707965  0.5221167164254831  0.8246083886268092  1.0000
  Fe  Fe75      1.0  0.8231757225119688  0.5064745369486492  0.9372394893841416  1.0000
  S   S149      1.0  0.787184956318822  0.5210775081954814  0.9755531632317797  1.0000
  Fe  Fe76      1.0  0.8329712415800375  0.4718087611858241  0.8958736032636728  1.0000
  S   S150      1.0  0.8091038828261887  0.446969663862298  0.8724940912616422  1.0000
  S   S151      1.0  0.8778966789037442  0.5165875509183222  0.9231853988791234  1.0000
  S   S152      1.0  0.8888018718259628  0.4788104852325458  0.8789879505442871  1.0000
  Fe  Fe77      1.0  0.8847031001980223  0.5823704929477478  0.6446615228341652  1.0000
  S   S153      1.0  0.862920613096017  0.5914085541056777  0.6959508623910472  1.0000
  S   S154      1.0  0.9392745418505561  0.5713854678470696  0.6321407162879413  1.0000
  Fe  Fe78      1.0  0.8161600643663283  0.5884702813524008  0.6109183286499573  1.0000
  S   S155      1.0  0.787626926723297  0.5979748492657817  0.658989949858109  1.0000
  S   S156      1.0  0.7889454756268407  0.5864793731261606  0.561619851127618  1.0000
  Fe  Fe79      1.0  0.8369127686495167  0.6139088220409481  0.6670232505176739  1.0000
  S   S157      1.0  0.8281806020071962  0.6413787606653149  0.6914370470439613  1.0000
  Fe  Fe80      1.0  0.8153354206737942  0.5749077926706132  0.6844225261175005  1.0000
  S   S158      1.0  0.7855055454560552  0.5595138770348456  0.7266386791153628  1.0000
  S   S159      1.0  0.8632810994982064  0.6065430590682723  0.6164030565591225  1.0000
  S   S160      1.0  0.8392654712590288  0.5637061676756139  0.6355417108862801  1.0000
  Fe  Fe81      1.0  0.13648011085638131  0.32532695091482866  0.8991373956219515  1.0000
  S   S161      1.0  0.1459486498300664  0.33314120792838764  0.8438505244340389  1.0000
  S   S162      1.0  0.0847577485464192  0.3210226122624621  0.9298040789411365  1.0000
  Fe  Fe82      1.0  0.21468955462795136  0.32813150080384573  0.9139613831067851  1.0000
  S   S163      1.0  0.2306362138175598  0.3360043183512969  0.8598982100921007  1.0000
  S   S164      1.0  0.25484138017834235  0.3300633032388015  0.9544302719838756  1.0000
  Fe  Fe83      1.0  0.1828196648150462  0.35430210262340417  0.8630275543820993  1.0000
  S   S165      1.0  0.18935701862778467  0.3827220606965173  0.8404069687837784  1.0000
  Fe  Fe84      1.0  0.19301679206338798  0.31418213301762266  0.8452487876381163  1.0000
  S   S166      1.0  0.20421413980871334  0.2931168393124369  0.8041821283971967  1.0000
  S   S167      1.0  0.16965763328383976  0.34805459559600577  0.9181397078198703  1.0000
  S   S168      1.0  0.18071116397571263  0.30467344130831764  0.8994589278987379  1.0000
  Fe  Fe85      1.0  0.357419146639452  0.2742195611834014  0.668833349300551  1.0000
  S   S169      1.0  0.366166968323147  0.28394003983643035  0.6144389700036258  1.0000
  S   S170      1.0  0.344477707117477  0.2961278313726807  0.7077365001493583  1.0000
  Fe  Fe86      1.0  0.3727614252019314  0.23453990198086977  0.6504565047451142  1.0000
  S   S171      1.0  0.38181652258099535  0.2410942645957063  0.5949090745036688  1.0000
  S   S172      1.0  0.3750848590280127  0.20581320181267268  0.6717763275418717  1.0000
  Fe  Fe87      1.0  0.4128788415924237  0.2648640330669178  0.6129168025764895  1.0000
  S   S173      1.0  0.46522225912182247  0.26928346995104446  0.5840195663104254  1.0000
  Fe  Fe88      1.0  0.33434545932382037  0.259341445659531  0.6015929968541492  1.0000
  S   S174      1.0  0.28887406147714934  0.2578724524757258  0.5665081946992487  1.0000
  S   S175      1.0  0.4070879319880052  0.25710606426186206  0.6683508884083922  1.0000
  S   S176      1.0  0.32238289023425853  0.2508651940478644  0.65610694490286  1.0000
  Fe  Fe89      1.0  0.8285589771184185  0.30605424548520743  0.9265072230490906  1.0000
  S   S177      1.0  0.8458408295794814  0.2997584810171212  0.872209524314159  1.0000
  S   S178      1.0  0.8160384108700299  0.28455356578250796  0.9671468367733304  1.0000
  Fe  Fe90      1.0  0.8411318506680159  0.34662415166743465  0.9176299020182709  1.0000
  S   S179      1.0  0.8594913186972594  0.34425072098913767  0.8627947686110773  1.0000
  S   S180      1.0  0.8400669136770644  0.3722392517551224  0.948946050156179  1.0000
  Fe  Fe91      1.0  0.8143042691252858  0.32466396631612515  0.8589758512970187  1.0000
  S   S181      1.0  0.7851281374859057  0.32833264185153127  0.8105468631624815  1.0000
  Fe  Fe92      1.0  0.8900599176074321  0.3196469615915623  0.8792132207967044  1.0000
  S   S182      1.0  0.9428835615574921  0.31509782172292494  0.8507912866990187  1.0000
  S   S183      1.0  0.7927796950397777  0.3293036364478676  0.9128271828557722  1.0000
  S   S184      1.0  0.8758347927574234  0.3236932017675572  0.9347631885694725  1.0000
  Fe  Fe93      1.0  0.6431829495153678  0.2787505632727109  0.6498040741349074  1.0000
  S   S185      1.0  0.6505373654938236  0.26171352366867745  0.6029524933031319  1.0000
  S   S186      1.0  0.59591557851276  0.2964172318806961  0.663839953306629  1.0000
  Fe  Fe94      1.0  0.7052235124438379  0.2618196568558139  0.6835617056903773  1.0000
  S   S187      1.0  0.7177720186867542  0.24282379642477386  0.6401812001479136  1.0000
  S   S188      1.0  0.7332127165025031  0.2589779806547171  0.7327091575898578  1.0000
  Fe  Fe95      1.0  0.708579858029667  0.2671856096171314  0.6063840351556148  1.0000
  S   S189      1.0  0.7415389745076948  0.26655646220017176  0.5566105526156594  1.0000
  Fe  Fe96      1.0  0.6593364704349008  0.2385123085099361  0.6389837025700608  1.0000
  S   S190      1.0  0.6334367842106042  0.21227758867077873  0.6245143059833391  1.0000
  S   S191      1.0  0.7007457947366825  0.28684103404766004  0.6501401119020426  1.0000
  S   S192      1.0  0.6472918690758194  0.2549475001221187  0.6857363961039944  1.0000
  Fe  Fe97      1.0  0.39839306162440924  0.9999140774725488  0.8204106466140633  1.0000
  S   S193      1.0  0.38818363863747707  9.448983453830273e-05  0.8771333015962111  1.0000
  S   S194      1.0  0.4532795856090333  0.9939262161015805  0.7994643334955127  1.0000
  Fe  Fe98      1.0  0.3231934477096431  0.010771377753443057  0.8070287116765343  1.0000
  S   S195      1.0  0.306079283265396  0.011722714205264051  0.86265345918491  1.0000
  S   S196      1.0  0.28803534412489157  0.01813203449440315  0.7646380640238053  1.0000
  Fe  Fe99      1.0  0.3581084862278167  0.025833769574214127  0.8679871218055966  1.0000
  S   S197      1.0  0.3673795752742069  0.052359496411582995  0.894005271328285  1.0000
  Fe  Fe100     1.0  0.33778296286011017  0.9856781564574281  0.8663907014637953  1.0000
  S   S198      1.0  0.3243144819539736  0.9615227987827623  0.9008400725252567  1.0000
  S   S199      1.0  0.37269869103613174  0.02687060207453018  0.8120229895195685  1.0000
  S   S200      1.0  0.35052793121798265  0.9834853536149321  0.8100194991817128  1.0000
  Fe  Fe101     1.0  0.35165099956101625  0.09294624057985935  0.6466686980915961  1.0000
  S   S201      1.0  0.3586824978791121  0.0658676625516402  0.6212204615568094  1.0000
  S   S202      1.0  0.33066763820766826  0.0951810234817251  0.701059832894702  1.0000
  Fe  Fe102     1.0  0.38688946828913173  0.11403290035511991  0.5873978514716347  1.0000
  S   S203      1.0  0.3972010650032555  0.08873653480166431  0.5563984074188382  1.0000
  S   S204      1.0  0.40797776794056495  0.14133612289676656  0.568565830558467  1.0000
  Fe  Fe103     1.0  0.34198913684709653  0.08075912663975202  0.5743562630146598  1.0000
  S   S205      1.0  0.3052193924103883  0.06524650539063999  0.5419987527779412  1.0000
  Fe  Fe104     1.0  0.41269450080618075  0.07598012367819544  0.6053950739581069  1.0000
  S   S206      1.0  0.45950504711563706  0.05721804425588067  0.60621176180482  1.0000
  S   S207      1.0  0.32986239106678095  0.10726688707216761  0.6013195649835753  1.0000
  S   S208      1.0  0.40769581409633726  0.10194373344632963  0.6348812466733007  1.0000
  Fe  Fe105     1.0  0.6383277666779165  0.9822995161707356  0.9051155446296091  1.0000
  S   S209      1.0  0.622500836972049  0.007817777783305724  0.8771967071398213  1.0000
  S   S210      1.0  0.6383348796605381  0.9567045780945801  0.8734603791863169  1.0000
  Fe  Fe106     1.0  0.6454132645370061  0.002445245398606355  0.971485686834656  1.0000
  S   S211      1.0  0.6295787449768666  0.02930967972719989  0.9491882367872485  1.0000
  S   S212      1.0  0.6612243872875517  0.9995758952553955  0.025869841892783185  1.0000
  Fe  Fe107     1.0  0.5882648019572987  0.013325859381912109  0.9241940954927425  1.0000
  S   S213      1.0  0.5344180089755729  0.025949345852758654  0.920930626123266  1.0000
  Fe  Fe108     1.0  0.6652035046504903  0.021595273791071845  0.9042588488174211  1.0000
  S   S214      1.0  0.6976888252878961  0.04498267862123728  0.8820274770397165  1.0000
  S   S215      1.0  0.6004496805887274  0.9868093204379541  0.9503506030268959  1.0000
  S   S216      1.0  0.6847719042566768  0.995704141424148  0.928284181461241  1.0000
  Fe  Fe109     1.0  0.6764188591984284  0.07697160737920632  0.7037420379993526  1.0000
  S   S217      1.0  0.6911595279717746  0.09979501572098362  0.666794118111454  1.0000
  S   S218      1.0  0.7089577900986903  0.053144574161366934  0.7210062734369255  1.0000
  Fe  Fe110     1.0  0.5989491755941778  0.08733146107303164  0.7084415459293605  1.0000
  S   S219      1.0  0.6060462124774516  0.11137932316292906  0.6728491121144666  1.0000
  S   S220      1.0  0.5455770249964782  0.07912330254230675  0.7314806071964355  1.0000
  Fe  Fe111     1.0  0.6412271025290126  0.09264820498317332  0.641379043999716  1.0000
  S   S221      1.0  0.6379071839851577  0.09342257581127583  0.5841821300780183  1.0000
  Fe  Fe112     1.0  0.6550436290762375  0.11689915157718936  0.7008294929538872  1.0000
  S   S222      1.0  0.6721453333481071  0.144687017791259  0.7174564657766598  1.0000
  S   S223      1.0  0.6303364527822786  0.06813299535888027  0.6747813097581462  1.0000
  S   S224      1.0  0.6443533347049614  0.09461011064508375  0.7399662489866841  1.0000
  Fe  Fe113     1.0  0.19168718982463287  0.7435639189427334  0.6525316591383462  1.0000
  S   S225      1.0  0.15380726942124742  0.7650963491708949  0.6727882661335817  1.0000
  S   S226      1.0  0.18978453592496997  0.7168931117014821  0.6821100135904316  1.0000
  Fe  Fe114     1.0  0.22107446806251402  0.7684844294263611  0.5945493150362614  1.0000
  S   S227      1.0  0.18462318753687418  0.7914918998890762  0.6099230279700729  1.0000
  S   S228      1.0  0.26395650766781076  0.7705447479712685  0.5522119763344289  1.0000
  Fe  Fe115     1.0  0.19972900176079722  0.7843824868667963  0.66334031546461  1.0000
  S   S229      1.0  0.21651345096703867  0.8073924336066057  0.6970893551763814  1.0000
  Fe  Fe116     1.0  0.14287660607488575  0.7698091390917181  0.6177639942549903  1.0000
  S   S230      1.0  0.08978023853444758  0.7698051351784387  0.5938828536455709  1.0000
  S   S231      1.0  0.23841552265852428  0.7624916451816918  0.6474822885866083  1.0000
  S   S232      1.0  0.17837003592820325  0.7471849133588104  0.597974144248782  1.0000
  Fe  Fe117     1.0  0.342230413721819  0.8587824216430336  0.8582997794840876  1.0000
  S   S233      1.0  0.3503022137260929  0.8554301706503782  0.9142068787198133  1.0000
  S   S234      1.0  0.33806184435889663  0.885033627256213  0.8281473052792667  1.0000
  Fe  Fe118     1.0  0.33773145108581226  0.8180181806119289  0.8461110025164482  1.0000
  S   S235      1.0  0.3454867151125544  0.8109908247262795  0.901241267124259  1.0000
  S   S236      1.0  0.3329715996176783  0.7958102692946263  0.8069199648688973  1.0000
  Fe  Fe119     1.0  0.3078095314884477  0.8340232772093757  0.9133482077512626  1.0000
  S   S237      1.0  0.261757119621939  0.8342097810383354  0.9527181295748518  1.0000
  Fe  Fe120     1.0  0.38751588511864343  0.8327628702138656  0.8978814069430371  1.0000
  S   S238      1.0  0.43807547498474175  0.8283020311142025  0.9251768275822252  1.0000
  S   S239      1.0  0.29652310401691817  0.8392805603469312  0.8584625834452221  1.0000
  S   S240      1.0  0.383003790556424  0.8378568574135646  0.8417940791780887  1.0000
  Fe  Fe121     1.0  0.8497302655978112  0.7378522001832063  0.6169379514741753  1.0000
  S   S241      1.0  0.8561124934773126  0.7437309646306267  0.6723298934222148  1.0000
  S   S242      1.0  0.8542251275459394  0.7098847456202994  0.5934997939132037  1.0000
  Fe  Fe122     1.0  0.8426313071685788  0.7780683867759357  0.5971631446925231  1.0000
  S   S243      1.0  0.8489581771538673  0.7872055164888706  0.6508432990571417  1.0000
  S   S244      1.0  0.8247984635373443  0.7963349810048541  0.06324385090045226  1.0000
  Fe  Fe123     1.0  0.8923466656960101  0.766193763217944  0.6522847800135998  1.0000
  S   S245      1.0  0.9423782530878019  0.7738898733073593  0.6778416107302325  1.0000
  Fe  Fe124     1.0  0.8123072048915657  0.7641886806211691  0.6660512137918739  1.0000
  S   S246      1.0  0.7635751354314364  0.7676917740756767  0.7013830848569823  1.0000
  S   S247      1.0  0.8891044354047065  0.7589409564011946  0.5972155070121324  1.0000
  S   S248      1.0  0.8027378141170126  0.756415507707579  0.6120169682967604  1.0000
  Fe  Fe125     1.0  0.6843618704756825  0.8553631638127951  0.9099854245261783  1.0000
  S   S249      1.0  0.6446923144705694  0.8338950278975679  0.9276091953781215  1.0000
  S   S250      1.0  0.6845276022793254  0.8815650254506694  0.9400346552283573  1.0000
  Fe  Fe126     1.0  0.7183476215610076  0.8305884033064537  0.8548834329284807  1.0000
  S   S251      1.0  0.6805542019216828  0.8077493540522227  0.8679269338184347  1.0000
  S   S252      1.0  0.7656472992772395  0.8271583912925626  0.8176345014573803  1.0000
  Fe  Fe127     1.0  0.6387494228702377  0.8296281923876467  0.871633439813215  1.0000
  S   S253      1.0  0.5875567976168315  0.8286548247866934  0.844170528625495  1.0000
  Fe  Fe128     1.0  0.690679109531725  0.8143096543385409  0.9224561404755999  1.0000
  S   S254      1.0  0.7026244610438451  0.7907464138154426  0.9582243673115748  1.0000
  S   S255      1.0  0.6760008420053137  0.8522401023477748  0.85418732264188  1.0000
  S   S256      1.0  0.7306201551001831  0.8360695891613817  0.9091886064032526  1.0000
  C   C193      1.0  0.7901231097982053  0.7947051849071604  0.03486152941076326  1.0000
  C   C194      1.0  0.782848061950699  0.809692590512455  0.013617514893527138  1.0000
  C   C195      1.0  0.7556467461609516  0.808791953847431  0.9905625967639784  1.0000
  C   C196      1.0  0.7358400530301689  0.7927638658705038  0.9881382197181033  1.0000
  C   C197      1.0  0.7432488241878604  0.7777413613808868  0.009264511561950073  1.0000
  C   C198      1.0  0.7701543979622959  0.778720742838273  0.032664263588895404  1.0000
  H   H129      1.0  0.7980265718531069  0.8221411883440227  0.015248514130649315  1.0000
  H   H130      1.0  0.7499591519743983  0.8205521344653202  0.9748488999427903  1.0000
  H   H131      1.0  0.7280394316487314  0.7652955242485271  0.007632303236280391  1.0000
  H   H132      1.0  0.7755550646974967  0.7670594441042411  0.048814876014740216  1.0000
  C   C199      1.0  0.7646170579662411  0.7841408990533469  0.7337741953863507  1.0000
  C   C200      1.0  0.7953444418514841  0.7940943807241164  0.7389941556951964  1.0000
  C   C201      1.0  0.7952305922158394  0.8073352218122524  0.7646766865772789  1.0000
  C   C202      1.0  0.7644546930675672  0.810698785902197  0.7852675159488052  1.0000
  C   C203      1.0  0.7337179042053613  0.8007412123431751  0.7800404809349314  1.0000
  C   C204      1.0  0.7338414540322804  0.7874815563636958  0.7543828865645668  1.0000
  H   H133      1.0  0.8192787991563475  0.7915157674710035  0.7234660008716922  1.0000
  H   H134      1.0  0.8191044754449851  0.8149819052885229  0.7686516856889393  1.0000
  H   H135      1.0  0.7097854084271237  0.8033291863158578  0.7955737354287638  1.0000
  H   H136      1.0  0.7099819267587948  0.7798138294638347  0.7504723325403001  1.0000
  C   C205      1.0  0.47958383554250034  0.8290745671893752  0.902647820408435  1.0000
  C   C206      1.0  0.48267080943307156  0.8342677764475526  0.8682313885989814  1.0000
  C   C207      1.0  0.5159908709394152  0.8340784631568967  0.8505637750650167  1.0000
  C   C208      1.0  0.5464498041311354  0.8290092599489032  0.8673544818351897  1.0000
  C   C209      1.0  0.5434982364825748  0.8241991545976199  0.901960126872995  1.0000
  C   C210      1.0  0.5100975249654668  0.8241929993510441  0.9195297977685717  1.0000
  H   H137      1.0  0.45944523287422495  0.8384488803044434  0.8552587871641562  1.0000
  H   H138      1.0  0.5182626210934701  0.8379535652008766  0.8238261636972316  1.0000
  H   H139      1.0  0.5668140582292688  0.8200665356085954  0.9149700489194913  1.0000
  H   H140      1.0  0.5078268568825914  0.8201337406458189  0.9461806251382173  1.0000
  C   C211      1.0  0.04970106429765907  0.7698623956474415  0.6187491754088248  1.0000
  C   C212      1.0  0.01901462376501173  0.763478870437656  0.6042781118568503  1.0000
  C   C213      1.0  0.9862560343318258  0.7638168662020596  0.622859122602446  1.0000
  C   C214      1.0  0.9837506421737927  0.7711562850562915  0.6556058294685401  1.0000
  C   C215      1.0  0.014544551341542977  0.7773015345360705  0.6703197930058692  1.0000
  C   C216      1.0  0.04754534075953165  0.776546085734712  0.6520250246042518  1.0000
  H   H141      1.0  0.02060756828821349  0.7582140601046976  0.5785726212587441  1.0000
  H   H142      1.0  0.9628904181003879  0.7587440399551959  0.6114987064820675  1.0000
  H   H143      1.0  0.012794585409701131  0.7829248823330403  0.6957433076501394  1.0000
  H   H144      1.0  0.07110464494986646  0.7815766332995352  0.6632946446372701  1.0000
  C   C217      1.0  0.2594055420560308  0.790145544984928  0.03697874653456079  1.0000
  C   C218      1.0  0.23324274233125786  0.8037231238331946  0.03685109452022517  1.0000
  C   C219      1.0  0.23431744273162056  0.8172624702504406  0.011037409757144179  1.0000
  C   C220      1.0  0.2617411626236018  0.8174375693132491  0.9854581214214081  1.0000
  C   C221      1.0  0.2882992872886598  0.8041111429953496  0.9861316569868236  1.0000
  C   C222      1.0  0.28706613980590784  0.7904970938369672  0.011730535291879063  1.0000
  H   H145      1.0  0.21192124187982492  0.8037220177846806  0.056265366454292476  1.0000
  H   H146      1.0  0.21377557377127587  0.827596761859907  0.010796038664041108  1.0000
  H   H147      1.0  0.3096880178433937  0.8041675115608048  0.9667878409286379  1.0000
  H   H148      1.0  0.30743589263487053  0.7800538904598208  0.011645417187736262  1.0000
  C   C223      1.0  0.2479065834229149  0.8035861912027707  0.7283448270222774  1.0000
  C   C224      1.0  0.26382484613329943  0.7864799917636176  0.7329366469542208  1.0000
  C   C225      1.0  0.2899253697559364  0.7842214074801872  0.757001375038105  1.0000
  C   C226      1.0  0.2999713554881038  0.7989627515550859  0.7769556248483376  1.0000
  C   C227      1.0  0.2840487167304663  0.8160478199926935  0.7723050723483429  1.0000
  C   C228      1.0  0.2582260048565831  0.8183426801864612  0.7480654136825345  1.0000
  H   H149      1.0  0.2560019619003599  0.774967262674358  0.7180583257717766  1.0000
  H   H150      1.0  0.3020334655574565  0.7709446597511059  0.7604276013813641  1.0000
  H   H151      1.0  0.29191786288969057  0.8275848540655139  0.7870412422471449  1.0000
  H   H152      1.0  0.24624214489484159  0.8316418498420455  0.744515159903977  1.0000
  C   C229      1.0  0.6840820431130921  0.05219149123726043  0.08248567516346417  1.0000
  C   C230      1.0  0.7004788842009299  0.035706186115133765  0.09099544346811483  1.0000
  C   C231      1.0  0.6919205405612768  0.01949817445605606  0.07457713668549326  1.0000
  C   C232      1.0  0.6674762915692384  0.019710377876149376  0.04899898756513599  1.0000
  C   C233      1.0  0.6501628331507999  0.03608439729120483  0.041186338074362006  1.0000
  C   C234      1.0  0.6584486167732245  0.052315905037010176  0.057932110468121856  1.0000
  H   H153      1.0  0.6133372014582366  0.057806446686223346  0.6085282386834635  1.0000
  H   H154      1.0  0.7052999865421241  0.006880290983309001  0.08080041221505008  1.0000
  H   H155      1.0  0.6307068532480749  0.03629051212148404  0.022014459578348022  1.0000
  H   H156      1.0  0.6460048358364207  0.0650699663508477  0.050951165878098115  1.0000
  C   C235      1.0  0.7001068616101113  0.046942827486106786  0.8372577919955121  1.0000
  C   C236      1.0  0.7050707253690789  0.06423371989556537  0.8220085261668245  1.0000
  C   C237      1.0  0.7074273406681836  0.06618484372620093  0.7863349973355043  1.0000
  C   C238      1.0  0.7058021423930139  0.05077621152751016  0.7657246435864102  1.0000
  C   C239      1.0  0.7010816269781601  0.033432346419483006  0.7809397437390438  1.0000
  C   C240      1.0  0.6977082707104919  0.031541074472805075  0.8166876640259098  1.0000
  H   H157      1.0  0.7070095316049372  0.07618369957130522  0.8377987593826155  1.0000
  H   H158      1.0  0.711281096439713  0.07959951435087231  0.7747897533543833  1.0000
  H   H159      1.0  0.6998559478924776  0.021464524544723362  0.7651081461661143  1.0000
  H   H160      1.0  0.6942131806112526  0.018125829432668276  0.8283306384108056  1.0000
  C   C241      1.0  0.6533492399101903  0.9362006471950481  0.8917822481938618  1.0000
  C   C242      1.0  0.6616385361263629  0.9352183637546376  0.9260531693473664  1.0000
  C   C243      1.0  0.672348727879829  0.9184810832415099  0.9402681451340708  1.0000
  C   C244      1.0  0.6748805341372413  0.9026764271252212  0.9203198493479215  1.0000
  C   C245      1.0  0.6671142374787261  0.9037527746289904  0.8859040082651382  1.0000
  C   C246      1.0  0.6561755627794482  0.9204450239865785  0.8717559959364503  1.0000
  H   H161      1.0  0.6595657323673261  0.9473197756264017  0.9416575418888201  1.0000
  H   H162      1.0  0.6782969672551098  0.9177429671594546  0.9669261739269848  1.0000
  H   H163      1.0  0.6694440537109522  0.8917554031266935  0.8701626962968817  1.0000
  H   H164      1.0  0.6500827118558622  0.921197340256027  0.845144479687393  1.0000
  C   C247      1.0  0.4814811112278927  0.06052260485118317  0.6436876163411179  1.0000
  C   C248      1.0  0.4645667509674128  0.06940478103436301  0.6714588410555633  1.0000
  C   C249      1.0  0.4838974135121504  0.07433615392339445  0.6994246442758251  1.0000
  C   C250      1.0  0.5200846780733698  0.07033402657394602  0.6995312402000956  1.0000
  C   C251      1.0  0.5361353589438503  0.06018993047136251  0.672946931408924  1.0000
  C   C252      1.0  0.5168763718209158  0.05524654529379606  0.6450578042895333  1.0000
  H   H165      1.0  0.4368199401872705  0.0728787253011918  0.6711106094228959  1.0000
  H   H166      1.0  0.47119980248561055  0.08196925896934847  0.720174370103759  1.0000
  H   H167      1.0  0.563381493188503  0.056110124714611354  0.673735391000135  1.0000
  H   H168      1.0  0.5298253230307195  0.047955281201101846  0.6239945503278901  1.0000
  C   C253      1.0  0.47901529331088727  0.004032195548266948  0.8298181372798078  1.0000
  C   C254      1.0  0.5105144537029233  0.9958423378884335  0.8394121802661206  1.0000
  C   C255      1.0  0.5276584743066706  0.0024850192562499984  0.8675942609139756  1.0000
  C   C256      1.0  0.5137361915875379  0.017550119605429515  0.8855441531313021  1.0000
  C   C257      1.0  0.4830231981014131  0.02610151689769724  0.8750637390652513  1.0000
  C   C258      1.0  0.46569332239174016  0.019329496118125622  0.8473181248464665  1.0000
  H   H169      1.0  0.5209517839400523  0.9839792156956627  0.8260768367449115  1.0000
  H   H170      1.0  0.5510017955627299  0.9955788372129036  0.8760172815137023  1.0000
  H   H171      1.0  0.47232812535413693  0.03787277299189329  0.8884960506661779  1.0000
  H   H172      1.0  0.44167026193225045  0.025904134138352797  0.8398168295465638  1.0000
  C   C259      1.0  0.29722711485822034  0.04002932757577504  0.7475419604305266  1.0000
  C   C260      1.0  0.3130702759004578  0.0531883228454213  0.7672066442056011  1.0000
  C   C261      1.0  0.3224219004919184  0.0702765890189786  0.7529900541860954  1.0000
  C   C262      1.0  0.3167209260102146  0.07412363611426769  0.7187167562565867  1.0000
  C   C263      1.0  0.30058375206550303  0.06104094264752167  0.6989810526184519  1.0000
  C   C264      1.0  0.29031338388501277  0.04410291932770516  0.7135709568661083  1.0000
  H   H173      1.0  0.3183405590682993  0.05015565175540315  0.7933159197453419  1.0000
  H   H174      1.0  0.3351226211231056  0.08034864026371047  0.768172882510591  1.0000
  H   H175      1.0  0.29553680022611156  0.06408911719622772  0.6726202139677367  1.0000
  H   H176      1.0  0.277785536497734  0.03402060690672748  0.6982639339070117  1.0000
  C   C265      1.0  0.3458578314035276  0.055219031066184865  0.9340707567050996  1.0000
  C   C266      1.0  0.3444891026058502  0.0727135707093951  0.9480505816808866  1.0000
  C   C267      1.0  0.3453673064584194  0.07517023560172513  0.48446849736826475  1.0000
  C   C268      1.0  0.32115076969073825  0.06267274080975732  0.49945170437410114  1.0000
  C   C269      1.0  0.31453340027235016  0.0431652566571592  0.9849658086123427  1.0000
  C   C270      1.0  0.33037421274296574  0.04044923674139823  0.9521971834872753  1.0000
  H   H177      1.0  0.35597700891009476  0.08421354775076662  0.9338238532757994  1.0000
  H   H178      1.0  0.3534554685285322  0.08686708777033957  0.49865162183751566  1.0000
  H   H179      1.0  0.3033112810572313  0.031691860159482  0.9994632407246188  1.0000
  H   H180      1.0  0.3312204768358618  0.026905565585501053  0.9413391435114303  1.0000
  C   C271      1.0  0.32727941919481607  0.9401813456812045  0.8809382801213826  1.0000
  C   C272      1.0  0.3217147253242543  0.9386314747119094  0.8462026631732725  1.0000
  C   C273      1.0  0.3253378271501959  0.9216164529193244  0.8303188621344806  1.0000
  C   C274      1.0  0.3343073464019269  0.9060433346313636  0.8491215509968948  1.0000
  C   C275      1.0  0.3396259762994919  0.9075158594251768  0.8839751998794154  1.0000
  C   C276      1.0  0.33581289009145593  0.9245622666233807  0.8999270973867017  1.0000
  H   H181      1.0  0.31407923807265303  0.9504942595656574  0.8316238299038524  1.0000
  H   H182      1.0  0.3208737625660726  0.9204989239080621  0.8033925202531899  1.0000
  H   H183      1.0  0.3470249499714015  0.8956067076076146  0.8985693464747494  1.0000
  H   H184      1.0  0.340119062800832  0.9257332784141511  0.9268693467588554  1.0000
  C   C277      1.0  0.6441819701180872  0.19359215187829523  0.6504669236326426  1.0000
  C   C278      1.0  0.6638203674040882  0.1960648305973063  0.6792210192960961  1.0000
  C   C279      1.0  0.6722923254563191  0.18094073585058168  0.699629194187055  1.0000
  C   C280      1.0  0.661470262970039  0.16331748705292193  0.6911733164687789  1.0000
  C   C281      1.0  0.6422860087166761  0.16085875785202927  0.6620526961533584  1.0000
  C   C282      1.0  0.6334556825703369  0.17599934482427887  0.6418418417656051  1.0000
  H   H185      1.0  0.6722998163331543  0.20961032689888506  0.685970291698227  1.0000
  H   H186      1.0  0.6872329913570339  0.18288136663407575  0.7220843101245811  1.0000
  H   H187      1.0  0.6342601052411416  0.14730779433931632  0.6551420377604894  1.0000
  H   H188      1.0  0.6185022689483336  0.17402990874791213  0.6194373243260627  1.0000
  C   C283      1.0  0.7749420613868305  0.28542425526292575  0.9902334153959853  1.0000
  C   C284      1.0  0.7716280132876604  0.2771404296128666  0.02263608345280521  1.0000
  C   C285      1.0  0.7393242384973068  0.2777951820340017  0.041939639363981485  1.0000
  C   C286      1.0  0.7099263636915415  0.28642529377897136  0.028682658632722013  1.0000
  C   C287      1.0  0.7131284780279008  0.29456735172127546  0.9961095951587672  1.0000
  C   C288      1.0  0.7456699257499638  0.29421460272219735  0.9770151563995029  1.0000
  H   H189      1.0  0.7942666605971442  0.27034213947194907  0.03292348156545133  1.0000
  H   H190      1.0  0.7371545506696053  0.271460903211618  0.06686451008852634  1.0000
  H   H191      1.0  0.690367515490475  0.3011465297166259  0.9856094495731671  1.0000
  H   H192      1.0  0.7478935407917924  0.30038475131334186  0.9518089267251141  1.0000
  C   C289      1.0  0.7733847932754745  0.3087396643172185  0.7882910239532327  1.0000
  C   C290      1.0  0.7627415940331593  0.31064529896893633  0.7547211241300938  1.0000
  C   C291      1.0  0.7519310927381454  0.29531376826080363  0.7367506301302198  1.0000
  C   C292      1.0  0.7509187792957862  0.2780858019985738  0.7526016910602304  1.0000
  C   C293      1.0  0.7623548341868747  0.27613595166738303  0.7858811262848376  1.0000
  C   C294      1.0  0.7737027819024175  0.2914144624431923  0.8036728018065792  1.0000
  H   H193      1.0  0.7626880544894805  0.324031258200581  0.7426437727873173  1.0000
  H   H194      1.0  0.7439216708068633  0.29686979511419953  0.7108405327782334  1.0000
  H   H195      1.0  0.7617846798486159  0.26280281436099245  0.7982094110804068  1.0000
  H   H196      1.0  0.7818158779408324  0.2898252387670047  0.8295702972404397  1.0000
  C   C295      1.0  0.38716789281078356  0.18792607071151068  0.6437826630584855  1.0000
  C   C296      1.0  0.403382727444122  0.1914451702689968  0.6114901040713691  1.0000
  C   C297      1.0  0.4101206432041709  0.1770364419516872  0.5886623004159107  1.0000
  C   C298      1.0  0.4006666799455396  0.15906445992917362  0.5980118985920438  1.0000
  C   C299      1.0  0.3851600958233264  0.15549471342270707  0.6305562095258718  1.0000
  C   C300      1.0  0.3787498542650373  0.16987702310771818  0.6534801555394502  1.0000
  H   H197      1.0  0.41060381690693937  0.20523245909274437  0.6039763365022595  1.0000
  H   H198      1.0  0.42231706556165766  0.17982761153988336  0.5635636749525342  1.0000
  H   H199      1.0  0.37787724840200676  0.14166209837686788  0.6380505825177188  1.0000
  H   H200      1.0  0.3664433302678483  0.16703130230591506  0.6785240105447187  1.0000
  C   C301      1.0  0.5004587651738995  0.2780787403367463  0.6062172518389722  1.0000
  C   C302      1.0  0.4955945075087399  0.2842941591705832  0.6397491497989597  1.0000
  C   C303      1.0  0.5248297956000118  0.29047973066170957  0.6571370277774622  1.0000
  C   C304      1.0  0.5589745327122646  0.29009033420417096  0.6412514476861686  1.0000
  C   C305      1.0  0.5636067284967474  0.2840420396604164  0.6076643492157779  1.0000
  C   C306      1.0  0.5344291786022332  0.27818854582033054  0.5901362526439887  1.0000
  H   H201      1.0  0.4693685352973474  0.2844230575914783  0.652212111543085  1.0000
  H   H202      1.0  0.5210416971534217  0.29526550854434896  0.683057394417184  1.0000
  H   H203      1.0  0.5896041367394174  0.2842418471955445  0.5948785337596884  1.0000
  H   H204      1.0  0.5382432863341045  0.2735955444566679  0.5640826476089976  1.0000
  C   C307      1.0  0.04552252955763328  0.31975300355307595  0.9074382669283138  1.0000
  C   C308      1.0  0.01256019777178374  0.32032405110557494  0.9256703938944584  1.0000
  C   C309      1.0  0.9808884118649708  0.31912446091901453  0.908548104485285  1.0000
  C   C310      1.0  0.982025714316299  0.3171301037813367  0.8730972915156091  1.0000
  C   C311      1.0  0.01499334390105278  0.3165223084918835  0.8548886437271825  1.0000
  C   C312      1.0  0.04665086617626577  0.3179198606353459  0.8719616138865761  1.0000
  H   H205      1.0  0.011467942899704205  0.32170437231138044  0.953109386023619  1.0000
  H   H206      1.0  0.9556563346827205  0.3195427589399117  0.9228212615929932  1.0000
  H   H207      1.0  0.01609990381409032  0.314904215465568  0.827494992944277  1.0000
  H   H208      1.0  0.07188381532803112  0.31729878393247224  0.8576994188766325  1.0000
  C   C313      1.0  0.25687762764725414  0.31216091228268555  0.9847971435561798  1.0000
  C   C314      1.0  0.23589067825236779  0.29653123315135715  0.9828004696523339  1.0000
  C   C315      1.0  0.23653350507746784  0.2829286474780873  0.008396301354727242  1.0000
  C   C316      1.0  0.25843138696695367  0.2847661027858587  0.03593263299837446  1.0000
  C   C317      1.0  0.27989753694367436  0.300228640360224  0.03760698854597111  1.0000
  C   C318      1.0  0.2790071755637009  0.3139156984161184  0.012160227283052771  1.0000
  H   H209      1.0  0.21906943229221412  0.29495324864199296  0.9616258451175643  1.0000
  H   H210      1.0  0.22001964086068257  0.27093661539668357  0.006835514224741379  1.0000
  H   H211      1.0  0.32860189687261215  0.2914026244935603  0.5553383326063892  1.0000
  H   H212      1.0  0.29535249560693033  0.32596342690002345  0.013859428175287292  1.0000
  C   C319      1.0  0.24387784571124013  0.29389783082735504  0.7783443708009137  1.0000
  C   C320      1.0  0.2674900546974764  0.308528592925734  0.7796929458687489  1.0000
  C   C321      1.0  0.2986144257122619  0.30884202046761994  0.7583942702035943  1.0000
  C   C322      1.0  0.3063760019178593  0.29454345249093133  0.7356365367955142  1.0000
  C   C323      1.0  0.282829492352122  0.27988120766390223  0.7343299856230858  1.0000
  C   C324      1.0  0.25163242782519385  0.27961068155386065  0.7555299058205703  1.0000
  H   H213      1.0  0.26167028648315727  0.3196598313006471  0.796939195965919  1.0000
  H   H214      1.0  0.316633252339643  0.3202701448413989  0.7594213101347354  1.0000
  H   H215      1.0  0.2886132795858698  0.26872192303742404  0.7171430403408996  1.0000
  H   H216      1.0  0.23350333413186203  0.2682294255202047  0.7544690720007009  1.0000
  C   C325      1.0  0.8379847891721337  0.6606388718035227  0.6653414342821086  1.0000
  C   C326      1.0  0.8247224043142279  0.6778285247611079  0.6751087440058565  1.0000
  C   C327      1.0  0.8305426795555608  0.6931838373509152  0.6536757227067493  1.0000
  C   C328      1.0  0.849656728631642  0.6913710111121963  0.6223874820932516  1.0000
  C   C329      1.0  0.86371602515841  0.6742739547439629  0.613045003851766  1.0000
  C   C330      1.0  0.8579754554009666  0.6589489116432834  0.634524853522554  1.0000
  H   H217      1.0  0.8093821997563069  0.6792356339228608  0.6990131455898106  1.0000
  H   H218      1.0  0.8194967124777777  0.7063135562856104  0.660996849505568  1.0000
  H   H219      1.0  0.8789348577839945  0.6728891243651427  0.5890636655225062  1.0000
  H   H220      1.0  0.8691975784709735  0.645870747355239  0.6273483307373802  1.0000
  C   C331      1.0  0.8056945049883039  0.5411640207658469  0.9909880818696187  1.0000
  C   C332      1.0  0.797027835501717  0.5465915287332684  0.024525094984201523  1.0000
  C   C333      1.0  0.8542275497849068  0.5772967617965599  0.5333209552244231  1.0000
  C   C334      1.0  0.8175617005787009  0.5760768454927332  0.5308058865180139  1.0000
  C   C335      1.0  0.8482750361414416  0.5659313646908202  0.9848959607693204  1.0000
  C   C336      1.0  0.8307999638182221  0.5510991081136928  0.9709767522453895  1.0000
  H   H221      1.0  0.7771941638599268  0.5391206851906735  0.03991776604991104  1.0000
  H   H222      1.0  0.8650204270231359  0.5846979528839948  0.5540013128195407  1.0000
  H   H223      1.0  0.868009903329972  0.5734391988299066  0.969452883754945  1.0000
  H   H224      1.0  0.8366722782948631  0.5474174032901294  0.9447168432966602  1.0000
  C   C337      1.0  0.8617044126573384  0.5322437119333061  0.7976095561591666  1.0000
  C   C338      1.0  0.8255983106566452  0.5333652236523808  0.8072113914275404  1.0000
  C   C339      1.0  0.8019831369280478  0.5412728743745507  0.7848574976930955  1.0000
  C   C340      1.0  0.8145841997528757  0.5482744638423307  0.753127221981248  1.0000
  C   C341      1.0  0.8506325156312913  0.547060556263191  0.7434945001940937  1.0000
  C   C342      1.0  0.8741571591096174  0.5390603571428728  0.7657340764706381  1.0000
  H   H225      1.0  0.8159695312369107  0.5284420722431591  0.8320360219716274  1.0000
  H   H226      1.0  0.7741083826508564  0.5423470886101934  0.7924500779251958  1.0000
  H   H227      1.0  0.8604631449824426  0.5522543001179994  0.7188648086021895  1.0000
  H   H228      1.0  0.9020732618126998  0.5381486526255126  0.7581890746138127  1.0000
  C   C343      1.0  0.8185191998827209  0.42618129536120536  0.893381778768917  1.0000
  C   C344      1.0  0.8334390516427829  0.4260963993665348  0.925231297428266  1.0000
  C   C345      1.0  0.8399444815329538  0.40946202348945027  0.94203891730863  1.0000
  C   C346      1.0  0.8322798831629368  0.39280737813732913  0.9267905555622536  1.0000
  C   C347      1.0  0.8178619863228775  0.39282842645640875  0.8946739729031542  1.0000
  C   C348      1.0  0.8107140698982016  0.40951134049994786  0.8781338921177411  1.0000
  H   H229      1.0  0.8396078048986929  0.4388351172121721  0.9371519318428015  1.0000
  H   H230      1.0  0.8511348966274234  0.40951054431810896  0.9668414378587831  1.0000
  H   H231      1.0  0.8117117145122635  0.38002350002062296  0.8828302362921139  1.0000
  H   H232      1.0  0.7991323657880599  0.4094864807282172  0.8535227142225281  1.0000
  C   C349      1.0  0.03252656731274806  0.5078552197517332  0.8904402631416701  1.0000
  C   C350      1.0  0.9974027284593749  0.5088906930696869  0.8812941723116033  1.0000
  C   C351      1.0  0.9702950805972902  0.5017459456678918  0.9031033856910403  1.0000
  C   C352      1.0  0.978045096094108  0.49355882686394803  0.9342435558535461  1.0000
  C   C353      1.0  0.013105898960145579  0.4929057422580151  0.9438701333378651  1.0000
  C   C354      1.0  0.04035845927219994  0.49999289151832754  0.921887678657321  1.0000
  H   H233      1.0  0.9910312440719088  0.5149621518424012  0.8570765538453285  1.0000
  H   H234      1.0  0.9434510159976532  0.5025519544366627  0.8954285364041801  1.0000
  H   H235      1.0  0.019224506336715796  0.48674915888608683  0.9680749349488832  1.0000
  H   H236      1.0  0.06727848989274209  0.49921544196932954  0.9292742647468739  1.0000
  C   C355      1.0  0.17245062575049572  0.4333657956375131  0.9067111534199136  1.0000
  C   C356      1.0  0.18536782233366553  0.43506237966107547  0.872780334656144  1.0000
  C   C357      1.0  0.18994319881445276  0.41942336606993696  0.8525707205828992  1.0000
  C   C358      1.0  0.1815113407147942  0.40203982771378916  0.8660969083536192  1.0000
  C   C359      1.0  0.16802419139602512  0.4003868676969969  0.8998751745010493  1.0000
  C   C360      1.0  0.16381930738180792  0.41600318139651293  0.9202280607010033  1.0000
  H   H237      1.0  0.19222149325134227  0.4483974568393957  0.8621742860513766  1.0000
  H   H238      1.0  0.20030502867386193  0.4208020968143136  0.8264087663191058  1.0000
  H   H239      1.0  0.16096507544153107  0.38710792915143727  0.9103886296469257  1.0000
  H   H240      1.0  0.15359424821985998  0.4146578490292773  0.9464272855846773  1.0000
  C   C361      1.0  0.02730815768829441  0.5928957535614598  0.6958322866249196  1.0000
  C   C362      1.0  0.03495550791394786  0.581375502942943  0.6682304981383865  1.0000
  C   C363      1.0  0.007708062096116519  0.5747678348692252  0.6490943940730924  1.0000
  C   C364      1.0  0.9725610841655167  0.5797213141957477  0.6572565181558135  1.0000
  C   C365      1.0  0.9647174746704857  0.591146709403767  0.6850566102504912  1.0000
  C   C366      1.0  0.9920925083411222  0.5976029126905338  0.7045740749691985  1.0000
  H   H241      1.0  0.0619052845210844  0.5774732790395403  0.6614373907472014  1.0000
  H   H242      1.0  0.014126065733927273  0.5659924162237593  0.6276893981822415  1.0000
  H   H243      1.0  0.9377270730640024  0.5951453173023068  0.6913767364127568  1.0000
  H   H244      1.0  0.986064606933202  0.6065439865296398  0.7258764340720594  1.0000
  C   C367      1.0  0.14014082577535947  0.5521759901510125  0.5490401161283787  1.0000
  C   C368      1.0  0.12881303835895613  0.5489880593094689  0.5162650797150636  1.0000
  C   C369      1.0  0.17205918270433307  0.5342644756464222  0.997791487453165  1.0000
  C   C370      1.0  0.19287299797358115  0.5476977207556755  0.9809797151494429  1.0000
  C   C371      1.0  0.20085302907017283  0.5637475466815367  0.9982964391413867  1.0000
  C   C372      1.0  0.17405223570719303  0.5466004046024149  0.5575003122288362  1.0000
  H   H245      1.0  0.10277884757127462  0.5534616232785295  0.5094793079124228  1.0000
  H   H246      1.0  0.16647806431695183  0.5216889574362322  0.9850883538858936  1.0000
  H   H247      1.0  0.21707396197874607  0.5741712946932865  0.9854938495452377  1.0000
  H   H248      1.0  0.18290878238580208  0.5490288736355984  0.582832767577289  1.0000
  C   C373      1.0  0.22910875865909738  0.5520538403274801  0.7259206363607605  1.0000
  C   C374      1.0  0.2577534016584953  0.5399017169373954  0.725514044570392  1.0000
  C   C375      1.0  0.2560843728553664  0.5239488623362087  0.7455790457620447  1.0000
  C   C376      1.0  0.22617655875330386  0.5202652865902042  0.7670089332060669  1.0000
  C   C377      1.0  0.19731454428514467  0.5323948429449229  0.7675940858441371  1.0000
  C   C378      1.0  0.19862372530924044  0.5482316953040911  0.7467105272605936  1.0000
  H   H249      1.0  0.2813852928075232  0.5428569249942984  0.7096196781123166  1.0000
  H   H250      1.0  0.27839172789086913  0.5146181292358514  0.7450093508475364  1.0000
  H   H251      1.0  0.17398272295504694  0.5294644668911856  0.7838214090436836  1.0000
  H   H252      1.0  0.17658439657744274  0.5577086120447304  0.7472556182188387  1.0000
  C   C379      1.0  0.18239922832332067  0.6625860778138779  0.626185973999338  1.0000
  C   C380      1.0  0.17892031085042964  0.6631388671407448  0.6617967729914253  1.0000
  C   C381      1.0  0.18226011214199261  0.6798235506548328  0.678671578590324  1.0000
  C   C382      1.0  0.1886720708719785  0.6960777387550472  0.660052801148901  1.0000
  C   C383      1.0  0.19233452676800986  0.6955306687994832  0.6244229473248583  1.0000
  C   C384      1.0  0.18920041073801327  0.6788124037021914  0.6075466128871048  1.0000
  H   H253      1.0  0.17378965129832608  0.6507175198196176  0.6763786109963074  1.0000
  H   H254      1.0  0.1795013403474899  0.6801529142014047  0.7062488111887435  1.0000
  H   H255      1.0  0.19772005624465896  0.7079409344591922  0.6098608643576845  1.0000
  H   H256      1.0  0.19212220449722292  0.6784469647454117  0.5799908842270651  1.0000
  N   N1        1.0  0.44740107553422154  0.05180624370811704  0.9815334893659896  1.0000
  C   C385      1.0  0.44053116695315825  0.03322915049901143  0.9689862312176017  1.0000
  C   C386      1.0  0.449815775662292  0.06479716969826499  0.9523460410157948  1.0000
  C   C387      1.0  0.4811499373731421  0.0518962229044162  0.9989575771908042  1.0000
  C   C388      1.0  0.41811014874675134  0.05733543140176578  0.0057487815140255805  1.0000
  H   H257      1.0  0.4376478383284516  0.02313107524478175  0.9903729065418182  1.0000
  H   H258      1.0  0.4626072306799619  0.028428759626619282  0.9513788974051085  1.0000
  H   H259      1.0  0.415829149142604  0.032858688246084844  0.9546834175051699  1.0000
  H   H260      1.0  0.45454952319047975  0.07900153367221918  0.9609272714877908  1.0000
  H   H261      1.0  0.4719633874168735  0.06109423819847093  0.9338212531110338  1.0000
  H   H262      1.0  0.4249651022256203  0.06493080792976547  0.9383014787682649  1.0000
  H   H263      1.0  0.48693532384385846  0.0657220431802692  0.008922778110747709  1.0000
  H   H264      1.0  0.5038866495126268  0.04786337086145198  0.9813250588734803  1.0000
  H   H265      1.0  0.48045873627566865  0.0421855501323416  0.021028457882938056  1.0000
  H   H266      1.0  0.4212738991014605  0.07168884267877296  0.014186663157120805  1.0000
  H   H267      1.0  0.4166989126290817  0.04847907144631014  0.029029393599359965  1.0000
  H   H268      1.0  0.3920952071931567  0.056447442328330544  0.994009574081795  1.0000
  N   N2        1.0  0.1742051090302025  0.7579514784621783  0.0008657129972231559  1.0000
  C   C389      1.0  0.1645796691346893  0.7717703429606877  0.02695630716874753  1.0000
  C   C390      1.0  0.18016380874761323  0.7401072129034473  0.017807440857862122  1.0000
  C   C391      1.0  0.20699888493317242  0.763621087585076  0.9813531821004902  1.0000
  C   C392      1.0  0.1450408578091817  0.7563051639907825  0.9774645472906408  1.0000
  H   H269      1.0  0.1855590869665705  0.7730299095970484  0.04553207556841077  1.0000
  H   H270      1.0  0.13962341809551962  0.7680824981254086  0.0418165360635272  1.0000
  H   H271      1.0  0.16071339773487867  0.7855464461051933  0.015349928716039907  1.0000
  H   H272      1.0  0.18719887101179658  0.7292697680106573  0.9989454202465519  1.0000
  H   H273      1.0  0.20228253850260952  0.7409021916398332  0.03546394493558047  1.0000
  H   H274      1.0  0.15614972145560338  0.7355123260351678  0.03325416165170347  1.0000
  H   H275      1.0  0.21400656899859  0.7540302432960292  0.9602356302014273  1.0000
  H   H276      1.0  0.2299434065722084  0.7638741302832354  0.9979638723830141  1.0000
  H   H277      1.0  0.20447755708799553  0.7775923344197657  0.9700665506132576  1.0000
  H   H278      1.0  0.1400982524127805  0.769537799573419  0.9641632226800766  1.0000
  H   H279      1.0  0.11986264062475886  0.752207251960013  0.9915562687946853  1.0000
  H   H280      1.0  0.15114532752825957  0.74585750390043  0.9575808326148618  1.0000
  N   N3        1.0  0.9559083550726585  0.7090992261138639  0.13562220984683004  1.0000
  C   C393      1.0  0.9917256754752162  0.7146854956934472  0.1448047797573416  1.0000
  C   C394      1.0  0.9290930014300778  0.7184348058009524  0.15799529024770814  1.0000
  C   C395      1.0  0.9519584612490579  0.6890704532749244  0.13999249031361113  1.0000
  C   C396      1.0  0.9505826898488836  0.7142725521011205  0.0997085808728185  1.0000
  H   H281      1.0  0.012748355537306688  0.7079623690236367  0.12838020132891734  1.0000
  H   H282      1.0  0.9965037856900567  0.7110430393429743  0.17181740996959632  1.0000
  H   H283      1.0  0.9954442264891568  0.7297595048535386  0.1419492536947779  1.0000
  H   H284      1.0  0.9018372108492064  0.7147559819448506  0.15125140074279805  1.0000
  H   H285      1.0  0.9317174487812462  0.7147276420254092  0.1853370289391008  1.0000
  H   H286      1.0  0.9314829299128617  0.7335631884285001  0.15563818390750164  1.0000
  H   H287      1.0  0.9252740124750991  0.6844420435135058  0.13293669140023254  1.0000
  H   H288      1.0  0.9550704548145333  0.6846919290743845  0.16695004059058155  1.0000
  H   H289      1.0  0.9719435111975012  0.6815219644676334  0.12370271881379387  1.0000
  H   H290      1.0  0.923649955654076  0.7103054342263242  0.09209964784312123  1.0000
  H   H291      1.0  0.9702559818641531  0.7074575126519685  0.08195615032635567  1.0000
  H   H292      1.0  0.9531075492011379  0.7293177166173375  0.095600477739114  1.0000
  N   N4        1.0  0.05548932766959095  0.5525201998759378  0.778870358807332  1.0000
  C   C397      1.0  0.047206207378665585  0.5519454020174951  0.7424941642696876  1.0000
  C   C398      1.0  0.08777858984929257  0.5416076754426397  0.784233892433799  1.0000
  C   C399      1.0  0.025423746765964175  0.5449267875773668  0.8001531843407462  1.0000
  C   C400      1.0  0.061596900553637646  0.5716715789611665  0.788610379363635  1.0000
  H   H293      1.0  0.0689154273807407  0.5580793103824553  0.7257869383115192  1.0000
  H   H294      1.0  0.022700484365815413  0.559853806547758  0.7376345366049595  1.0000
  H   H295      1.0  0.0431449900176751  0.537683066919765  0.733987601074858  1.0000
  H   H296      1.0  0.09536567133318972  0.5422178702274109  0.8112366565219095  1.0000
  H   H297      1.0  0.08376323575529675  0.5269130459989414  0.7784308559580106  1.0000
  H   H298      1.0  0.11070168009364988  0.5466121202784483  0.7677235824581875  1.0000
  H   H299      1.0  0.030479546578616994  0.5455109603356773  0.8278261909345036  1.0000
  H   H300      1.0  0.02067753906164512  0.5303070132514704  0.7942544804941035  1.0000
  H   H301      1.0  0.0004418086676769519  0.5525904748160742  0.796203116832127  1.0000
  H   H302      1.0  0.06693790869830983  0.57271929674934  0.8161260931461105  1.0000
  H   H303      1.0  0.03826781127002851  0.5804841613818229  0.7836682370400869  1.0000
  H   H304      1.0  0.08469230218462946  0.577675153169664  0.7736242530684548  1.0000
  N   N5        1.0  0.5823684506276247  0.05489068555590843  0.2838109998944437  1.0000
  C   C401      1.0  0.5958413688310258  0.049068424300959965  0.3169018670556947  1.0000
  C   C402      1.0  0.5437555252637143  0.0517452771608707  0.2841704260365705  1.0000
  C   C403      1.0  0.6002008715680974  0.04421553463298112  0.2561059434157983  1.0000
  C   C404      1.0  0.5896664217486483  0.07455821579646049  0.2780678892673495  1.0000
  H   H305      1.0  0.6250843841860005  0.05053103214115537  0.31697924168070624  1.0000
  H   H306      1.0  0.589331468327341  0.03451789865311761  0.32287025680274295  1.0000
  H   H307      1.0  0.5841777646714325  0.057396469120323264  0.33826586148592175  1.0000
  H   H308      1.0  0.5296174299520702  0.05953630686975067  0.3049628362827826  1.0000
  H   H309      1.0  0.5327313645311463  0.056102108508485404  0.2595935243523461  1.0000
  H   H310      1.0  0.5372886464247982  0.03701208531720335  0.2883348516998839  1.0000
  H   H311      1.0  0.5955719807579845  0.0292896253606636  0.25988199539433204  1.0000
  H   H312      1.0  0.6293670891025289  0.04647886719478698  0.2548700895583321  1.0000
  H   H313      1.0  0.5904467869025252  0.048193312998350654  0.23075681174303886  1.0000
  H   H314      1.0  0.5771370396610068  0.0830320711044679  0.29876789175405444  1.0000
  H   H315      1.0  0.5795081389542273  0.07945298026124256  0.2534965270731514  1.0000
  H   H316      1.0  0.6185670035465074  0.07739721980119267  0.27714666478466066  1.0000
  N   N6        1.0  0.3037470803684743  0.2930965468153511  0.40196499706119143  1.0000
  C   C405      1.0  0.2673463680904125  0.28829427809708374  0.41449787357556045  1.0000
  C   C406      1.0  0.3269808707171118  0.27693115118035777  0.40504559496155024  1.0000
  C   C407      1.0  0.31705835563693674  0.3081460993258049  0.42259518708876037  1.0000
  C   C408      1.0  0.30353747659269  0.2989734170498717  0.36578067021298244  1.0000
  H   H317      1.0  0.2494145508707471  0.300327566326265  0.41354247768203195  1.0000
  H   H318      1.0  0.26659531114777074  0.2833446066138653  0.4414534809981861  1.0000
  H   H319      1.0  0.25583854840938874  0.2774919867351499  0.3986889200394901  1.0000
  H   H320      1.0  0.35468370504335295  0.2800455330227588  0.3957656523547364  1.0000
  H   H321      1.0  0.32773212146054176  0.2721843915031458  0.43210184252902967  1.0000
  H   H322      1.0  0.31756290313750646  0.2653072011072744  0.3898645478541834  1.0000
  H   H323      1.0  0.30001553683592913  0.32055856327166266  0.4211020429135765  1.0000
  H   H324      1.0  0.3444247478941494  0.31221767299530445  0.4138895188206326  1.0000
  H   H325      1.0  0.31736857863222123  0.30421974987918793  0.45008690782001864  1.0000
  H   H326      1.0  0.33050604556322777  0.30271134832084756  0.355302580767976  1.0000
  H   H327      1.0  0.2862116707367281  0.31113124589729496  0.36257837944595417  1.0000
  H   H328      1.0  0.29326430215494004  0.28802121856178065  0.34948343188148917  1.0000
  N   N7        1.0  0.42219959146986014  0.3143429311964143  0.19938188940332463  1.0000
  C   C409      1.0  0.4157405680311717  0.29845907601469357  0.2225341040108967  1.0000
  C   C410      1.0  0.40902272990525074  0.3311407085987727  0.21643575299691395  1.0000
  C   C411      1.0  0.40317286145458187  0.3117423610143302  0.16789594020987966  1.0000
  C   C412      1.0  0.4606218909873242  0.31598265198376996  0.19059637621019715  1.0000
  H   H329      1.0  0.38689186367568984  0.29661158766424145  0.22908251019192777  1.0000
  H   H330      1.0  0.42932425703605376  0.30003233384288064  0.24677022159850193  1.0000
  H   H331      1.0  0.42566095432655093  0.28557135514532483  0.21060483558377555  1.0000
  H   H332      1.0  0.4129486442431099  0.34336845255305365  0.19949053623306484  1.0000
  H   H333      1.0  0.3800584101432805  0.3301423301037081  0.22347084420373725  1.0000
  H   H334      1.0  0.4228787243314694  0.3336492684791283  0.24024353013952612  1.0000
  H   H335      1.0  0.4112633440155285  0.2987958746175948  0.15516808061965012  1.0000
  H   H336      1.0  0.40848517726451544  0.3230471309502529  0.14910671059850567  1.0000
  H   H337      1.0  0.374020778402551  0.31111366182237504  0.17343202874218047  1.0000
  H   H338      1.0  0.4665474626917155  0.3279575143238472  0.17348460052021025  1.0000
  H   H339      1.0  0.47107150980137646  0.30365521389975625  0.17696719421331797  1.0000
  H   H340      1.0  0.4760563353311591  0.31748887445648544  0.21376648310604865  1.0000
  N   N8        1.0  0.44470378073090344  0.03163556086037178  0.4570823027387864  1.0000
  C   C413      1.0  0.46161823963782533  0.03453057759214739  0.4896997651977228  1.0000
  C   C414      1.0  0.4623825168883533  0.016306413808978126  0.43868921664475913  1.0000
  C   C415      1.0  0.44799742250578284  0.04845768101350773  0.4358951126877357  1.0000
  C   C416      1.0  0.4068016330748917  0.02729653774139185  0.46396216737120144  1.0000
  H   H341      1.0  0.44880925074052586  0.046000695242657354  0.5042360713523536  1.0000
  H   H342      1.0  0.4902571602947174  0.03790662337725248  0.48531409390963876  1.0000
  H   H343      1.0  0.4597445394118657  0.022097414728539322  0.5063310866161232  1.0000
  H   H344      1.0  0.45129402607377167  0.014301745802922206  0.4132450881033547  1.0000
  H   H345      1.0  0.49129385784110385  0.01883709305270287  0.43420581305462114  1.0000
  H   H346      1.0  0.4593523728194286  0.003220452209724112  0.45328160736837847  1.0000
  H   H347      1.0  0.43416562806018044  0.06022150377403945  0.4485289619249693  1.0000
  H   H348      1.0  0.4360345695229486  0.04664055073303288  0.4108526206148108  1.0000
  H   H349      1.0  0.4762440539826257  0.052302831798720445  0.4305194500695272  1.0000
  H   H350      1.0  0.393156407427887  0.025391069997958482  0.4397774507782537  1.0000
  H   H351      1.0  0.3927060994327554  0.03850589591522913  0.4781378504241772  1.0000
  H   H352      1.0  0.40313282580449444  0.014551514260298772  0.4794832096451658  1.0000
  N   N9        1.0  0.9144059840388364  0.8201557425316122  0.10469857436600472  1.0000
  C   C417      1.0  0.9140382726878483  0.8035133816380364  0.08375968402345002  1.0000
  C   C418      1.0  0.9395848462591031  0.8334838696527325  0.08853563472688242  1.0000
  C   C419      1.0  0.9255697428671948  0.8153166640270454  0.1392359306872517  1.0000
  C   C420      1.0  0.8784477701668386  0.8282463696914798  0.10714796749895927  1.0000
  H   H353      1.0  0.8955016255464731  0.793196768128851  0.09549424202717627  1.0000
  H   H354      1.0  0.9407253542594791  0.797072338768054  0.08097605504873906  1.0000
  H   H355      1.0  0.9048399086676157  0.8065049969460836  0.057759824195162235  1.0000
  H   H356      1.0  0.9404598282045884  0.8462554829925027  0.10362166112570836  1.0000
  H   H357      1.0  0.96696549719749  0.8277619482405791  0.086383953662035  1.0000
  H   H358      1.0  0.9319873942667151  0.8373229295340741  0.06235272823052829  1.0000
  H   H359      1.0  0.9070568254304417  0.8053508725390982  0.15229032596635528  1.0000
  H   H360      1.0  0.9264636768513839  0.8275221573067025  0.15580200825912027  1.0000
  H   H361      1.0  0.9523162943770876  0.8088198303968674  0.13832294751824836  1.0000
  H   H362      1.0  0.8689503405051041  0.8317500375439729  0.08145540138852225  1.0000
  H   H363      1.0  0.8775134134211077  0.8408625076088106  0.12271971710509266  1.0000
  H   H364      1.0  0.8587394719345063  0.8184869591985812  0.11904012046621326  1.0000
  N   N10       1.0  0.8077763919420579  0.7948552152643822  0.40228391700954  1.0000
  C   C421      1.0  0.8181589957797616  0.8140154132457573  0.40796487257217273  1.0000
  C   C422      1.0  0.8180756147786021  0.7833203708441706  0.4313646898337203  1.0000
  C   C423      1.0  0.825671560237416  0.7882727780661836  0.3702923087888695  1.0000
  C   C424      1.0  0.7690145442743054  0.7938768889418175  0.3994908462295683  1.0000
  H   H365      1.0  0.8104156335738337  0.8231452523264046  0.38662997829612417  1.0000
  H   H366      1.0  0.8472859066499416  0.8153203133780895  0.40994316536373315  1.0000
  H   H367      1.0  0.8051522703650914  0.8194191497134384  0.4319227639573119  1.0000
  H   H368      1.0  0.8105864381026828  0.7687678176324476  0.4279767602631833  1.0000
  H   H369      1.0  0.8471507760461584  0.7838047917052946  0.4344908391271848  1.0000
  H   H370      1.0  0.8047286197839953  0.7879472544775724  0.45579541147573727  1.0000
  H   H371      1.0  0.8179006131929999  0.7739789070183551  0.3647713644150188  1.0000
  H   H372      1.0  0.8550074229243756  0.7886358461984362  0.3714820367892831  1.0000
  H   H373      1.0  0.8186309224301231  0.7969129523127971  0.34801100955675807  1.0000
  H   H374      1.0  0.7599900088550018  0.7796209691253303  0.39559078356416294  1.0000
  H   H375      1.0  0.7603923488747513  0.8023226722325392  0.3777148610370215  1.0000
  H   H376      1.0  0.7546337138295679  0.7990184442836993  0.4228930897941659  1.0000
  N   N11       1.0  0.2757831625504561  0.6449025415247246  0.18842147891604163  1.0000
  C   C425      1.0  0.24944293624036087  0.6597657289349306  0.19322860975042833  1.0000
  C   C426      1.0  0.2697232294156742  0.6352331856041465  0.15639835766470325  1.0000
  C   C427      1.0  0.27203038112594435  0.6318844465451601  0.21751151469767785  1.0000
  C   C428      1.0  0.3118594701202684  0.6527007758768631  0.1864923914275861  1.0000
  H   H377      1.0  0.2535312338151112  0.667667294570241  0.21673810154780807  1.0000
  H   H378      1.0  0.22200582780366723  0.6542381413446852  0.19554934455195813  1.0000
  H   H379      1.0  0.2506151855655913  0.6695795730132079  0.17125386728029546  1.0000
  H   H380      1.0  0.2427026970624444  0.6293126541142656  0.15687311049415278  1.0000
  H   H381      1.0  0.2720408431008526  0.6446191319545977  0.13380848628649075  1.0000
  H   H382      1.0  0.28874187622886666  0.6237404830497378  0.15202550563610792  1.0000
  H   H383      1.0  0.2904474067905575  0.6200261601280286  0.2142273654663844  1.0000
  H   H384      1.0  0.2447584466262653  0.6261350593882378  0.22016382113583868  1.0000
  H   H385      1.0  0.2772789360303745  0.6385195815443694  0.2420776060236188  1.0000
  H   H386      1.0  0.31542102109370124  0.6625573778084436  0.164712086894331  1.0000
  H   H387      1.0  0.33230779090185963  0.6417942543409033  0.1828847714833173  1.0000
  H   H388      1.0  0.31734842898352067  0.6601381015620689  0.21021820804744787  1.0000
  N   N12       1.0  0.4394878603065013  0.941863842615067  0.8389258988305345  1.0000
  C   C429      1.0  0.47738231190124075  0.9439513969511308  0.8282285326730043  1.0000
  C   C430      1.0  0.4331381835013001  0.923294396744089  0.8532021725485399  1.0000
  C   C431      1.0  0.41776621471775877  0.9446782158451646  0.8090583071847319  1.0000
  C   C432      1.0  0.42958567113706836  0.9555583477132432  0.8651862369188941  1.0000
  H   H389      1.0  0.4826997173881474  0.9576815249335054  0.8164648634715493  1.0000
  H   H390      1.0  0.48603222893084697  0.9335867141926814  0.8089706464419879  1.0000
  H   H391      1.0  0.49458016230924706  0.9425540406428071  0.8502889044945998  1.0000
  H   H392      1.0  0.43959075424061395  0.9125729807979917  0.833919911468452  1.0000
  H   H393      1.0  0.4492748363928592  0.9206058701967612  0.8756311404991599  1.0000
  H   H394      1.0  0.4048558493757009  0.9214652345313973  0.861803468862775  1.0000
  H   H395      1.0  0.3890333901122425  0.9434260972619587  0.8162697079285346  1.0000
  H   H396      1.0  0.4242517740706399  0.9344792901094383  0.7888411361669082  1.0000
  H   H397      1.0  0.4219754144477675  0.9585288775474323  0.7975180136617164  1.0000
  H   H398      1.0  0.43513297177268534  0.9696827012547325  0.8555824266120055  1.0000
  H   H399      1.0  0.44472850731906677  0.9535894486854074  0.88850336670539  1.0000
  H   H400      1.0  0.4008483177639924  0.954847275196872  0.8730902684350949  1.0000
  N   N13       1.0  0.692852546189834  0.22234896711393093  0.050332392781687885  1.0000
  C   C433      1.0  0.6655800339110636  0.21109091665080704  0.0690159534928827  1.0000
  C   C434      1.0  0.6757243132699094  0.23802321840699414  0.033564982644085584  1.0000
  C   C435      1.0  0.7120053258327823  0.21111114535707998  0.024250297392708786  1.0000
  C   C436      1.0  0.7181892634458639  0.22918743385040208  0.07456810879788223  1.0000
  H   H401      1.0  0.6776174724653696  0.19932758704568831  0.0826094519506948  1.0000
  H   H402      1.0  0.6461528932191334  0.20548959890690255  0.05157808723615509  1.0000
  H   H403      1.0  0.6504357192365319  0.21924044361519157  0.08864904026377474  1.0000
  H   H404      1.0  0.6955227118522991  0.24691192011680352  0.019391188359034084  1.0000
  H   H405      1.0  0.6563447117655449  0.23345334345231228  0.01510163140943277  1.0000
  H   H406      1.0  0.6611037663425927  0.24685811682991332  0.0525093113851014  1.0000
  H   H407      1.0  0.6936915142114359  0.20569974897891186  0.005510558161822665  1.0000
  H   H408      1.0  0.7253102852011678  0.19919637804912904  0.03612085639698015  1.0000
  H   H409      1.0  0.7327821413716012  0.2192394412471932  0.009695382315415113  1.0000
  H   H410      1.0  0.7395636353061994  0.23746370758702273  0.06134448690736982  1.0000
  H   H411      1.0  0.730901499895578  0.2177559312208286  0.08847670284783504  1.0000
  H   H412      1.0  0.7046829041500913  0.23798152419848018  0.09420004041933305  1.0000
  N   N14       1.0  0.7589927265492163  0.6178115419960842  0.2133887834182285  1.0000
  C   C437      1.0  0.7372722671328399  0.6060203694079911  0.19241934345405332  1.0000
  C   C438      1.0  0.7894186578162604  0.6071889348019639  0.2251886866432544  1.0000
  C   C439      1.0  0.7372737042809846  0.6242726832072468  0.24329931574492708  1.0000
  C   C440      1.0  0.7720854724061286  0.6337064498561574  0.19273762998284574  1.0000
  H   H413      1.0  0.713827212154354  0.6134538475864987  0.18324626206164388  1.0000
  H   H414      1.0  0.7276636421138315  0.5936591708545164  0.20699282775172387  1.0000
  H   H415      1.0  0.7528497769698457  0.600938609656992  0.16954595975685105  1.0000
  H   H416      1.0  0.8070703789885119  0.6157159400032052  0.240324210605297  1.0000
  H   H417      1.0  0.7806623865311466  0.5951024822026152  0.24100328729122392  1.0000
  H   H418      1.0  0.8058248899683539  0.6018871455289118  0.20322226815792624  1.0000
  H   H419      1.0  0.7270440471963169  0.6125734626285507  0.25937583002131503  1.0000
  H   H420      1.0  0.7140623952350685  0.6323784546761833  0.2353733995582305  1.0000
  H   H421      1.0  0.7530123456822736  0.6331298544681346  0.2596986011131677  1.0000
  H   H422      1.0  0.7888946291730898  0.6428114553020358  0.2076703843291408  1.0000
  H   H423      1.0  0.7499439980747263  0.6420655607223823  0.18324605360253432  1.0000
  H   H424      1.0  0.7888501796486684  0.6293340532916742  0.17007866646550981  1.0000
  N   N15       1.0  0.6554211550342093  0.8168977475685117  0.26130482279657175  1.0000
  C   C441      1.0  0.6220405666529143  0.8247043051947167  0.2494366192755783  1.0000
  C   C442      1.0  0.6763745554025362  0.8090584547018511  0.23206505822157852  1.0000
  C   C443      1.0  0.6470542420034743  0.802400643181631  0.28706552393983625  1.0000
  C   C444      1.0  0.676084160085705  0.8314830519757068  0.27674615794136204  1.0000
  H   H425      1.0  0.6272270911071555  0.8358740396676569  0.23032063016102364  1.0000
  H   H426      1.0  0.6055489187931378  0.8305895574441421  0.2710691642423516  1.0000
  H   H427      1.0  0.6057911282089777  0.8141123755992808  0.23750319503337924  1.0000
  H   H428      1.0  0.7022069681909024  0.8035449079954932  0.2399596318944458  1.0000
  H   H429      1.0  0.6621402781157674  0.7976043850781681  0.22037623143513008  1.0000
  H   H430      1.0  0.682430971601504  0.8195215002512845  0.21176826492362805  1.0000
  H   H431      1.0  0.6715008381824088  0.7960664853405912  0.2964320376833635  1.0000
  H   H432      1.0  0.6310460148644104  0.7912856694854746  0.27645534183863846  1.0000
  H   H433      1.0  0.631659363815391  0.8079292990316165  0.30969265300796556  1.0000
  H   H434      1.0  0.7010550450757528  0.8260865467933133  0.2868433726123136  1.0000
  H   H435      1.0  0.6606997525748618  0.8379321663043391  0.2983854267330073  1.0000
  H   H436      1.0  0.6834578073078671  0.8425104184243694  0.257939859435362  1.0000
  N   N16       1.0  0.7123589097619657  0.3142121410189727  0.4407657670941936  1.0000
  C   C445      1.0  0.7073694831100105  0.32422738267426854  0.4084031797458911  1.0000
  C   C446      1.0  0.6785883750613803  0.305588717244994  0.45286483840378555  1.0000
  C   C447      1.0  0.723841952321314  0.32705675236985016  0.4667899725614887  1.0000
  C   C448      1.0  0.7396638654230884  0.29990451772261284  0.4350714623075471  1.0000
  H   H437      1.0  0.7324392060224384  0.3307419022043868  0.3984540250661295  1.0000
  H   H438      1.0  0.6870772696620395  0.33520279714364903  0.41161786754033586  1.0000
  H   H439      1.0  0.6991307906865022  0.3148922245033443  0.38805418472416564  1.0000
  H   H440      1.0  0.657356649357387  0.31599757864019  0.457408806536517  1.0000
  H   H441      1.0  0.6693224707295415  0.2957200564891183  0.43389633963650504  1.0000
  H   H442      1.0  0.681496953741757  0.297956626007717  0.47733798287142515  1.0000
  H   H443      1.0  0.7272577375840195  0.3199528865918263  0.49165624620761067  1.0000
  H   H444      1.0  0.7043599772325358  0.33830613158654665  0.47133850839342983  1.0000
  H   H445      1.0  0.7497857905205559  0.3334658680318905  0.45898870088611193  1.0000
  H   H446      1.0  0.7426092808635277  0.29137560693103925  0.45836467523942503  1.0000
  H   H447      1.0  0.7660490949707965  0.3059970670764234  0.42785091172165113  1.0000
  H   H448      1.0  0.7330793586432367  0.29061405569774684  0.41406643301770496  1.0000
  N   N17       1.0  0.7884940974217713  0.7810621552838323  0.8845677722511558  1.0000
  C   C449      1.0  0.7929313910991788  0.767056052917627  0.9115181501523725  1.0000
  C   C450      1.0  0.816688925625575  0.779154760048248  0.857242780844445  1.0000
  C   C451      1.0  0.7905009676134912  0.7994341076756047  0.8995795585149569  1.0000
  C   C452      1.0  0.7536043136382125  0.7787168430553288  0.8699482153988741  1.0000
  H   H449      1.0  0.7718423452215614  0.768327237764205  0.9324117392084791  1.0000
  H   H450      1.0  0.8188636748787552  0.7684658986885691  0.9233773897945635  1.0000
  H   H451      1.0  0.791348171675202  0.7529828516311503  0.9012498263605443  1.0000
  H   H452      1.0  0.8434360523737585  0.7809539966947061  0.8672385551701052  1.0000
  H   H453      1.0  0.8158918297659025  0.7654811352876988  0.8451446614728891  1.0000
  H   H454      1.0  0.8136584699940195  0.7896254016345339  0.8366354277344571  1.0000
  H   H455      1.0  0.7877039739416294  0.8103962054885573  0.8799502502306209  1.0000
  H   H456      1.0  0.8161251244741019  0.801610287647904  0.9115790163603366  1.0000
  H   H457      1.0  0.7690407552351585  0.8014456545027495  0.9196806978564708  1.0000
  H   H458      1.0  0.7490786038162418  0.7893496555811959  0.8500908541613134  1.0000
  H   H459      1.0  0.7316931727001645  0.7797932254389649  0.8899802835323577  1.0000
  H   H460      1.0  0.7512965527376411  0.765148409542346  0.8577609583830147  1.0000
  N   N18       1.0  0.9401442323462352  0.8205749327797374  0.6076294051528717  1.0000
  C   C453      1.0  0.9441154320293347  0.8194269011575832  0.6448943365904068  1.0000
  C   C454      1.0  0.9041648448088134  0.8272125843383356  0.6008489570339207  1.0000
  C   C455      1.0  0.9455338274576933  0.8022540696557456  0.5927442950330809  1.0000
  C   C456      1.0  0.9668282677894326  0.8333093092806976  0.5920223416046209  1.0000
  H   H461      1.0  0.9702411384222963  0.8134371140751917  0.6509732143406306  1.0000
  H   H462      1.0  0.9234515323109597  0.8104768832733674  0.6576536429321458  1.0000
  H   H463      1.0  0.941781542787456  0.8330879054272952  0.6569701520846907  1.0000
  H   H464      1.0  0.9001572976154583  0.8282073422555261  0.5729578001752149  1.0000
  H   H465      1.0  0.8834848580720904  0.8177131688748291  0.6118087284162645  1.0000
  H   H466      1.0  0.8988935159758568  0.8409167504295603  0.612058693873234  1.0000
  H   H467      1.0  0.9397978291919119  0.8021241090452172  0.5652162207090901  1.0000
  H   H468      1.0  0.9279618364569642  0.7919899558803395  0.6061090817610514  1.0000
  H   H469      1.0  0.9732857438926716  0.7974425250298459  0.5950130826158014  1.0000
  H   H470      1.0  0.9942493375891747  0.8287372514624786  0.5970897982393857  1.0000
  H   H471      1.0  0.9633425850628696  0.8473483493105268  0.6023533861725663  1.0000
  H   H472      1.0  0.9649447417840409  0.8342050414083059  0.5638256531077603  1.0000
  N   N19       1.0  0.8095367778166417  0.4779408496971428  0.7813812647677386  1.0000
  C   C457      1.0  0.8035377916029359  0.4587540170257747  0.7717767386387011  1.0000
  C   C458      1.0  0.8117137656835721  0.4897622052462208  0.7504823325448164  1.0000
  C   C459      1.0  0.8430758782308867  0.4791210119724201  0.7989002608152509  1.0000
  C   C460      1.0  0.77988741234496  0.48410901397518186  0.8045797197231238  1.0000
  H   H473      1.0  0.8016000417020184  0.4496049658991907  0.7948052952508888  1.0000
  H   H474      1.0  0.825642708880778  0.453541576331441  0.7546698414766292  1.0000
  H   H475      1.0  0.7785012889747431  0.4572962470764137  0.7583837433657027  1.0000
  H   H476      1.0  0.8168922034187901  0.5042736778340957  0.7569922115567573  1.0000
  H   H477      1.0  0.8336038110075926  0.4854113456728822  0.7322431225836129  1.0000
  H   H478      1.0  0.7866309926290121  0.489519731632661  0.7368703498671887  1.0000
  H   H479      1.0  0.842902529703559  0.46986880154769367  0.8216112717643862  1.0000
  H   H480      1.0  0.8476498354371248  0.49319791010015135  0.807943798558832  1.0000
  H   H481      1.0  0.8663162223091163  0.47531748760148596  0.7818492878817694  1.0000
  H   H482      1.0  0.7833390417121856  0.49860184741032765  0.8120924679065483  1.0000
  H   H483      1.0  0.7779253710088213  0.475656117242248  0.828464967803973  1.0000
  H   H484      1.0  0.7540480194300206  0.48313651365637367  0.7924278861593943  1.0000
  N   N20       1.0  0.5236565741298617  0.22415739457627254  0.6413119178090784  1.0000
  C   C461      1.0  0.5454535812779189  0.23739371176782606  0.6591167208751397  1.0000
  C   C462      1.0  0.5314285723549409  0.20542562045739413  0.653471587604476  1.0000
  C   C463      1.0  0.5321603733888715  0.22553474760520947  0.6041585790833959  1.0000
  C   C464      1.0  0.48566952031411903  0.22831440172670875  0.6484179702532671  1.0000
  H   H485      1.0  0.5742859861704861  0.23466003777826938  0.6542735474568595  1.0000
  H   H486      1.0  0.5396656341279696  0.23687006136118702  0.6871992814455664  1.0000
  H   H487      1.0  0.5404477225225695  0.25163168319485935  0.6503440120001751  1.0000
  H   H488      1.0  0.5153535250809663  0.19507684368575967  0.6406513740026104  1.0000
  H   H489      1.0  0.5599134967170182  0.20186387568021297  0.6483746400646421  1.0000
  H   H490      1.0  0.5255244520930653  0.20394692240964815  0.6814670585463596  1.0000
  H   H491      1.0  0.516519161325636  0.2156033549138387  0.5898925777642053  1.0000
  H   H492      1.0  0.5608098348552911  0.22284108156744162  0.5979504535011753  1.0000
  H   H493      1.0  0.5260070505601725  0.2394314275828212  0.594094240106293  1.0000
  H   H494      1.0  0.4790128999993275  0.24235564715582517  0.6394366766229144  1.0000
  H   H495      1.0  0.4781710399784189  0.22749347411154175  0.6762164576797175  1.0000
  H   H496      1.0  0.46835658708084305  0.21863022436133026  0.6353304205030966  1.0000
  N   N21       1.0  0.5132992246836839  0.1398054769731775  0.13382769007673256  1.0000
  C   C465      1.0  0.5213462259601318  0.15761703373303143  0.11697981049747064  1.0000
  C   C466      1.0  0.5203385760810827  0.14084953902517602  0.17047772552007467  1.0000
  C   C467      1.0  0.5359415240767226  0.1254828229785217  0.11768715737933788  1.0000
  C   C468      1.0  0.4756348895162777  0.13520504715367757  0.13017023641895853  1.0000
  H   H497      1.0  0.5166403805174934  0.15720554820886637  0.08924123187381472  1.0000
  H   H498      1.0  0.549607475013982  0.1614796080991463  0.11947897905353422  1.0000
  H   H499      1.0  0.5047613393192175  0.16878623251329483  0.12847096059676977  1.0000
  H   H500      1.0  0.5037566581716588  0.1515238415108534  0.18355013740621495  1.0000
  H   H501      1.0  0.514956922184965  0.12754616217525006  0.18388514513349086  1.0000
  H   H502      1.0  0.5485541900141692  0.14427454108804488  0.17416719483774812  1.0000
  H   H503      1.0  0.5326606968799076  0.11222442955865425  0.1315302994098897  1.0000
  H   H504      1.0  0.5644847047812137  0.1291103478565037  0.11779936499928545  1.0000
  H   H505      1.0  0.5296026906481214  0.1232255365527426  0.09067465186197499  1.0000
  H   H506      1.0  0.4577080532607698  0.1460291623787492  0.14094894649731415  1.0000
  H   H507      1.0  0.4685206770974284  0.12215964494689163  0.14366081606224657  1.0000
  H   H508      1.0  0.46969062014720486  0.13346282992574024  0.1028726486739191  1.0000
  N   N22       1.0  0.24468111370277953  0.9626841908785689  0.30380172883178275  1.0000
  C   C469      1.0  0.24503559989961984  0.9750102251757153  0.3333331156953271  1.0000
  C   C470      1.0  0.2512046399795151  0.9734444373179499  0.2719232664293591  1.0000
  C   C471      1.0  0.20979302179461487  0.9536423435829272  0.3034779721864905  1.0000
  C   C472      1.0  0.27271120200849464  0.9486688555396926  0.3066312557592561  1.0000
  H   H509      1.0  0.24054100803298853  0.9674024234675433  0.3579655841526088  1.0000
  H   H510      1.0  0.22455808403014468  0.9859318105990099  0.3320946368046756  1.0000
  H   H511      1.0  0.2710927992111144  0.981868074611818  0.3343990224274619  1.0000
  H   H512      1.0  0.25080407268889643  0.9646802300032357  0.24898242150161692  1.0000
  H   H513      1.0  0.2310907576650605  0.984479462110027  0.2693306924633554  1.0000
  H   H514      1.0  0.2774590048582439  0.980334701112146  0.2712452882692142  1.0000
  H   H515      1.0  0.20860280310803492  0.9441800536942118  0.28155973914881977  1.0000
  H   H516      1.0  0.18805658584725862  0.9638509732241868  0.3014518744036205  1.0000
  H   H517      1.0  0.20416300117013841  0.9454663817433862  0.3272957384148847  1.0000
  H   H518      1.0  0.27327811083092585  0.9389860858216392  0.2849668508001569  1.0000
  H   H519      1.0  0.2689731176585741  0.940518868028194  0.3307414520725436  1.0000
  H   H520      1.0  0.2993995828773064  0.9550276188919082  0.30696050416640175  1.0000
  N   N23       1.0  0.5266427017559914  0.10708457250488958  0.5900221607413614  1.0000
  C   C473      1.0  0.5420000029362416  0.08879858413206616  0.5830144759301662  1.0000
  C   C474      1.0  0.5107902722656699  0.10745206467335969  0.6252691724061605  1.0000
  C   C475      1.0  0.4988548601638547  0.11106215519529787  0.5658014319568064  1.0000
  C   C476      1.0  0.5549046558948006  0.12099553076380029  0.5860705715618991  1.0000
  H   H521      1.0  0.5212319386869438  0.07805026775260868  0.5838199047559389  1.0000
  H   H522      1.0  0.5615660235659611  0.08490877703112938  0.6020883716310563  1.0000
  H   H523      1.0  0.5561134365323886  0.0883144224669703  0.5573967953715793  1.0000
  H   H524      1.0  0.4885841733844118  0.09758138538526805  0.6286127193026271  1.0000
  H   H525      1.0  0.5304895474604217  0.10376524762877991  0.6443576866035547  1.0000
  H   H526      1.0  0.4998309694344521  0.12119170507946361  0.6318103889091797  1.0000
  H   H527      1.0  0.4861909878689639  0.12464565601492317  0.5706659410400756  1.0000
  H   H528      1.0  0.47729492332545376  0.10067526856766569  0.5680581604717204  1.0000
  H   H529      1.0  0.5097931291775005  0.1110407396654398  0.5389128375968206  1.0000
  H   H530      1.0  0.5677927450076715  0.12091985525237844  0.5598824068053038  1.0000
  H   H531      1.0  0.5762107015674559  0.11830309313802323  0.6040319176088623  1.0000
  H   H532      1.0  0.5443795962473512  0.13498977366279988  0.591054530845051  1.0000
  N   N24       1.0  0.6442274749060013  0.29932759575695933  0.76481751535827  1.0000
  C   C477      1.0  0.664484508939699  0.30202627039200924  0.7319360398963606  1.0000
  C   C478      1.0  0.6685202486433314  0.2932038155908953  0.7910312024531511  1.0000
  C   C479      1.0  0.6167240467047985  0.28528594927060685  0.7608612442609836  1.0000
  C   C480      1.0  0.6272727088828441  0.31677750493451556  0.7751912726630584  1.0000
  H   H533      1.0  0.6470422476554767  0.3064398654705957  0.711368295033724  1.0000
  H   H534      1.0  0.6778405951949896  0.28913287497616363  0.7236095821044185  1.0000
  H   H535      1.0  0.6852524745888361  0.3126694937097562  0.7337449451282965  1.0000
  H   H536      1.0  0.6902813255060187  0.3032314504048283  0.7939803260551659  1.0000
  H   H537      1.0  0.6543672084806339  0.2913197398647614  0.8164071452414211  1.0000
  H   H538      1.0  0.6812916831373189  0.2798917356691494  0.7841169441745505  1.0000
  H   H539      1.0  0.6002726239242517  0.2831537397524174  0.7849303128241898  1.0000
  H   H540      1.0  0.6288265437234529  0.27186817570597227  0.7537212775289298  1.0000
  H   H541      1.0  0.5986636628028292  0.289211946203153  0.7403934788485759  1.0000
  H   H542      1.0  0.6115845057940084  0.3152720073137896  0.7998784866919634  1.0000
  H   H543      1.0  0.6089849554822836  0.3217572765489932  0.7556982198155228  1.0000
  H   H544      1.0  0.647409088330515  0.32764058675293123  0.7783648403817964  1.0000
  N   N25       1.0  0.8082591444048236  0.6080208833649439  0.7853031918373613  1.0000
  C   C481      1.0  0.8352509313531522  0.6218906192766296  0.7748910457916549  1.0000
  C   C482      1.0  0.7881536832062723  0.61408708778533  0.8164951740213588  1.0000
  C   C483      1.0  0.8258464048582268  0.5903704811388968  0.7922407716411815  1.0000
  C   C484      1.0  0.7836699010472371  0.605729211443978  0.7576100153916789  1.0000
  H   H545      1.0  0.8509572519823719  0.617749475158395  0.7514335536283552  1.0000
  H   H546      1.0  0.8542124296263547  0.6240854058807058  0.7951675501590599  1.0000
  H   H547      1.0  0.8228663945027942  0.6353157663768948  0.768861777766774  1.0000
  H   H548      1.0  0.767513655731001  0.6039148467387944  0.8249443849592691  1.0000
  H   H549      1.0  0.8058641556399405  0.6158864781962363  0.8379890735547861  1.0000
  H   H550      1.0  0.7745618574519617  0.6273802956567636  0.8121401386259355  1.0000
  H   H551      1.0  0.8061857932246711  0.5795979262924772  0.8000463801091857  1.0000
  H   H552      1.0  0.844717014773775  0.5915034053795878  0.8129238127740459  1.0000
  H   H553      1.0  0.841030291379033  0.5852759934763098  0.7691803351840629  1.0000
  H   H554      1.0  0.7630212654505975  0.5952651752718364  0.7643786797891917  1.0000
  H   H555      1.0  0.7979042866177994  0.6010384372068125  0.7338229676873409  1.0000
  H   H556      1.0  0.7702408910663356  0.6188110953841119  0.7512578540143559  1.0000
  N   N26       1.0  0.2593584594162599  0.5592505092647428  0.8443574864771944  1.0000
  C   C485      1.0  0.277015729046515  0.563543849860033  0.8106895360225524  1.0000
  C   C486      1.0  0.27749204049360005  0.5688023245604137  0.8714315670263476  1.0000
  C   C487      1.0  0.260803511687799  0.5393069251247907  0.8507659418116645  1.0000
  C   C488      1.0  0.22199313920696914  0.5652969320380541  0.8445784866156077  1.0000
  H   H557      1.0  0.26378604398117245  0.5564873762749553  0.7898745972367686  1.0000
  H   H558      1.0  0.3052180105467409  0.5590812152105853  0.8093662815197321  1.0000
  H   H559      1.0  0.2762438648166679  0.5784610523789484  0.8047462262724  1.0000
  H   H560      1.0  0.26452344572897246  0.5657879552787629  0.8971105755498904  1.0000
  H   H561      1.0  0.3056755593846377  0.5644456413331346  0.8722032125564364  1.0000
  H   H562      1.0  0.2769268116721394  0.5838945819242206  0.8675051997924366  1.0000
  H   H563      1.0  0.24832718031219475  0.5355878852905107  0.8762217417738887  1.0000
  H   H564      1.0  0.2885217735710792  0.5341179828508604  0.8499365531008567  1.0000
  H   H565      1.0  0.24657592394305822  0.5316798726174694  0.8314108193311439  1.0000
  H   H566      1.0  0.20782315259236392  0.5622244592343151  0.8696339361392023  1.0000
  H   H567      1.0  0.2075373217993667  0.5583156756659996  0.8244511757852876  1.0000
  H   H568      1.0  0.21990076758656693  0.5802813996384261  0.8398103716405798  1.0000
  N   N27       1.0  0.39834941512740324  0.023771103873376557  0.6979251909095473  1.0000
  C   C489      1.0  0.4218629926244591  0.025077626396897482  0.6667128450434444  1.0000
  C   C490      1.0  0.3950462717733892  0.04196351343078764  0.7138457228058435  1.0000
  C   C491      1.0  0.41347810277574276  0.010653060450271255  0.7221978774475915  1.0000
  C   C492      1.0  0.3630077411687272  0.017414225930412863  0.6888770899174161  1.0000
  H   H569      1.0  0.42453714935020465  0.011724389347037345  0.653546091828522  1.0000
  H   H570      1.0  0.4489563334183223  0.029546913333558637  0.672599268258561  1.0000
  H   H571      1.0  0.41148145414263115  0.035131783284468206  0.6481446870921592  1.0000
  H   H572      1.0  0.37764625895128  0.041432382056073136  0.7375568326685449  1.0000
  H   H573      1.0  0.4212448091005856  0.04727518175558159  0.7207863581557725  1.0000
  H   H574      1.0  0.3833621964130828  0.052220242340486035  0.69640994108064  1.0000
  H   H575      1.0  0.4398029345545127  0.015266590721337181  0.7302762286441646  1.0000
  H   H576      1.0  0.41709456643150633  0.9968687523406454  0.7108325774760664  1.0000
  H   H577      1.0  0.39598489946108717  0.009032500042779114  0.7457509800524911  1.0000
  H   H578      1.0  0.3448965361634271  0.01565994126202308  0.7119609915180671  1.0000
  H   H579      1.0  0.36454776752648504  0.004008729412611878  0.6757847418513079  1.0000
  H   H580      1.0  0.350285273795233  0.02737641506333355  0.6715764601418095  1.0000
  N   N28       1.0  0.26451815286472247  0.06981499671694671  0.8617782371979854  1.0000
  C   C493      1.0  0.2409830790956787  0.08590678559837794  0.8658948664611869  1.0000
  C   C494      1.0  0.3005757314839525  0.07597561767159866  0.8506661162228357  1.0000
  C   C495      1.0  0.25081462691740525  0.057554758789356286  0.8358333855902035  1.0000
  C   C496      1.0  0.26574256944162394  0.05987133483712012  0.8947412084292422  1.0000
  H   H581      1.0  0.21358434143398883  0.08180366692429765  0.8745544398669943  1.0000
  H   H582      1.0  0.23933884343442963  0.0936545606436435  0.841394412042023  1.0000
  H   H583      1.0  0.25077963735512826  0.09550070645326574  0.8851021830041236  1.0000
  H   H584      1.0  0.31884714021348237  0.06417529554676105  0.8465081920988982  1.0000
  H   H585      1.0  0.30066641205447714  0.0839291519197131  0.8262815681263314  1.0000
  H   H586      1.0  0.3123228492045687  0.08470124553829497  0.8701895116812312  1.0000
  H   H587      1.0  0.2674635902828803  0.045037071786820704  0.8325969041464402  1.0000
  H   H588      1.0  0.25044290020319676  0.06443735715515574  0.8103486268223994  1.0000
  H   H589      1.0  0.22336413191969792  0.05293370402992255  0.8429801109700493  1.0000
  H   H590      1.0  0.28408978427868603  0.047950638381303624  0.892743990825795  1.0000
  H   H591      1.0  0.23919307572245124  0.05462709021616812  0.9036569838231063  1.0000
  H   H592      1.0  0.2753781858078543  0.06879454437911234  0.9150962052968505  1.0000
  N   N29       1.0  0.9822843776543887  0.5479487700923454  0.5422581377018126  1.0000
  C   C497      1.0  0.9622258720617602  0.5406546352400755  0.5140554422793449  1.0000
  C   C498      1.0  0.020734464061909152  0.5467997360693719  0.5332606882154106  1.0000
  C   C499      1.0  0.9738273991220218  0.537106308722571  0.5736737693939302  1.0000
  C   C500      1.0  0.972283274227386  0.5672582955002929  0.5481853089533747  1.0000
  H   H593      1.0  0.9331445502290877  0.540732439310424  0.5204602087677558  1.0000
  H   H594      1.0  0.9698685286544775  0.5262918339798657  0.5080792628912616  1.0000
  H   H595      1.0  0.9667070161172536  0.5488827155259683  0.49013237186886865  1.0000
  H   H596      1.0  0.03667583779407879  0.5522800837829357  0.5539762353134039  1.0000
  H   H597      1.0  0.029369357387557526  0.5324149493342688  0.5288411086458504  1.0000
  H   H598      1.0  0.02796318369192008  0.5547744551539499  0.5095709853295514  1.0000
  H   H599      1.0  0.9885784861334934  0.5421793660699552  0.5954526192651991  1.0000
  H   H600      1.0  0.9805648223417394  0.5224106965746583  0.5701313635992931  1.0000
  H   H601      1.0  0.9451028718888524  0.5380496425808883  0.5815748980646737  1.0000
  H   H602      1.0  0.9875786643934433  0.5733018665758224  0.5687721747863417  1.0000
  H   H603      1.0  0.9437499287495567  0.5685517939323164  0.5565063420250526  1.0000
  H   H604      1.0  0.9770516897520851  0.5757941106850106  0.5247469384081859  1.0000
  N   N30       1.0  0.2649045423672023  0.3127382666887999  0.6392266385486632  1.0000
  C   C501      1.0  0.2689928836985605  0.2927043922164868  0.6425845715036739  1.0000
  C   C502      1.0  0.2395569164204289  0.3169257795174122  0.6127584018923767  1.0000
  C   C503      1.0  0.29966250260352034  0.32100184122795056  0.6293069138719357  1.0000
  C   C504      1.0  0.25154089031028487  0.3202623096268505  0.672300799711394  1.0000
  H   H605      1.0  0.2882532778422672  0.2891193218217793  0.6620506275593875  1.0000
  H   H606      1.0  0.278872103915338  0.2865381196935137  0.6181000961641312  1.0000
  H   H607      1.0  0.24346127472347298  0.2859648680194325  0.6505197197665099  1.0000
  H   H608      1.0  0.2361778289814719  0.3319431605236007  0.609124404073506  1.0000
  H   H609      1.0  0.2487181636847518  0.3112320374590468  0.587579735538814  1.0000
  H   H610      1.0  0.21298361786401898  0.3110042584529252  0.6195914581814524  1.0000
  H   H611      1.0  0.29773170985821346  0.3361444701026257  0.62689453944059  1.0000
  H   H612      1.0  0.3104699173135671  0.3157117643711371  0.604377265681063  1.0000
  H   H613      1.0  0.3195377475946818  0.31788900128659525  0.6486095473516834  1.0000
  H   H614      1.0  0.24722902732496552  0.33529828800744077  0.6706037924638741  1.0000
  H   H615      1.0  0.2706662687142905  0.31778865158007363  0.692490028384559  1.0000
  H   H616      1.0  0.22602553332327144  0.3138277129289743  0.6813981747417381  1.0000
  N   N31       1.0  0.23508170794340258  0.8867975108744983  0.8938327974303342  1.0000
  C   C505      1.0  0.221253610030666  0.8705721737896607  0.8768063457767452  1.0000
  C   C506      1.0  0.2688191356437768  0.8820205576925397  0.9090783196694684  1.0000
  C   C507      1.0  0.2092191564714817  0.8927853334834507  0.9210348763681537  1.0000
  C   C508      1.0  0.24124576686247762  0.9017508340146374  0.8684949321010856  1.0000
  H   H617      1.0  0.19500324674238412  0.873376606378703  0.8662757584477981  1.0000
  H   H618      1.0  0.21825597357049167  0.8586711848145521  0.8948023759990414  1.0000
  H   H619      1.0  0.23946586463543285  0.8662411905839593  0.8551285834104462  1.0000
  H   H620      1.0  0.27997631808973567  0.8938710171487564  0.9223811183623707  1.0000
  H   H621      1.0  0.2653743370574227  0.8706969285279533  0.9281536667393264  1.0000
  H   H622      1.0  0.28892084349040537  0.8775002383678523  0.889217214225225  1.0000
  H   H623      1.0  0.20428943005974218  0.8817577215646062  0.9405777571817815  1.0000
  H   H624      1.0  0.18332558283532116  0.8964778516731423  0.9105444976128353  1.0000
  H   H625      1.0  0.21896454487573594  0.9049957405887039  0.9343910569265884  1.0000
  H   H626      1.0  0.25280750718150485  0.9140350575403162  0.8802177777005644  1.0000
  H   H627      1.0  0.2162617104182855  0.9060100381597339  0.8568701307104039  1.0000
  H   H628      1.0  0.26018354642625274  0.897462707475869  0.8473016462651587  1.0000
  N   N32       1.0  0.04414126655070948  0.5658295507665987  0.06588437314475101  1.0000
  C   C509      1.0  0.06383601375333145  0.5753199252425708  0.09195084948706896  1.0000
  C   C510      1.0  0.012435894996633888  0.5569756149696129  0.08233402581550381  1.0000
  C   C511      1.0  0.06726618568493785  0.5518305330654736  0.04925570417032633  1.0000
  C   C512      1.0  0.03312837418021097  0.579252956964027  0.040015100323195885  1.0000
  H   H629      1.0  0.07323009437604178  0.5655472949418127  0.11152796317091612  1.0000
  H   H630      1.0  0.04724728690170332  0.585840068801277  0.10554223288174697  1.0000
  H   H631      1.0  0.08784410833964218  0.5821922399935494  0.08026289292623838  1.0000
  H   H632      1.0  0.9970363090619856  0.5495388222684049  0.06352686354706194  1.0000
  H   H633      1.0  0.019734979849168794  0.5469675250347005  0.10241651810807872  1.0000
  H   H634      1.0  0.9943407326564289  0.5672214923284931  0.09488807445607818  1.0000
  H   H635      1.0  0.05334939140026412  0.5441611045558564  0.0296676550273014  1.0000
  H   H636      1.0  0.0768588556639111  0.5417416616934131  0.06821513374349893  1.0000
  H   H637      1.0  0.0913265001546427  0.5581331948951275  0.03638603119785034  1.0000
  H   H638      1.0  0.018222720262122793  0.5725578948651097  0.01987771623256429  1.0000
  H   H639      1.0  0.05650069914730214  0.5862150569012801  0.0271936928437051  1.0000
  H   H640      1.0  0.0156764514691079  0.5900261723415328  0.05176931804948451  1.0000
  N   N33       1.0  0.2866843324193354  0.19660087182605476  0.6038863480661988  1.0000
  C   C513      1.0  0.29501942330067865  0.1815253248659338  0.6276491441594709  1.0000
  C   C514      1.0  0.3199399560909784  0.20501111433901356  0.5899647721156095  1.0000
  C   C515      1.0  0.26513269462984257  0.21059854134631967  0.6223656993385911  1.0000
  C   C516      1.0  0.26687323878361974  0.18934409659810572  0.5755594331155092  1.0000
  H   H641      1.0  0.31233276263958415  0.17100492251693197  0.6148493055258584  1.0000
  H   H642      1.0  0.2706341595261502  0.17453478998555771  0.6381401149087481  1.0000
  H   H643      1.0  0.3093238539988996  0.18664389772389287  0.6497381378568422  1.0000
  H   H644      1.0  0.3147941559893126  0.21657243873797472  0.5721033977886201  1.0000
  H   H645      1.0  0.33535727466367676  0.21056120125920638  0.6108026213618086  1.0000
  H   H646      1.0  0.3371688607799296  0.1948843401001693  0.5760127267376173  1.0000
  H   H647      1.0  0.27930796647032285  0.2160619792637769  0.644248565448275  1.0000
  H   H648      1.0  0.2394832353327104  0.20488784007999733  0.6327975308406543  1.0000
  H   H649      1.0  0.25928021766400766  0.22246075660140918  0.6054078963286563  1.0000
  H   H650      1.0  0.2603613747814023  0.20040554744336928  0.5571277464258011  1.0000
  H   H651      1.0  0.24155773748440965  0.18288182397083613  0.5851025588170347  1.0000
  H   H652      1.0  0.28261322598692223  0.17875990865590155  0.5611875376029555  1.0000
  N   N34       1.0  0.7823011426107063  0.3428987962011211  0.023387235405718965  1.0000
  C   C517      1.0  0.8143946687380682  0.33282170718565685  0.011173291508659311  1.0000
  C   C518      1.0  0.7597268578466365  0.3465879530216403  0.9944395328991003  1.0000
  C   C519      1.0  0.7927925657781021  0.36042845647469895  0.03824280358000176  1.0000
  C   C520      1.0  0.7623493276006276  0.3317651829043943  0.04956823540286415  1.0000
  H   H653      1.0  0.8316305858425926  0.3292925411653741  0.03239809929321291  1.0000
  H   H654      1.0  0.8305928430779193  0.3410208750794339  0.9920962440993915  1.0000
  H   H655      1.0  0.8075423615802897  0.3198469179388618  0.9986535780573501  1.0000
  H   H656      1.0  0.7353125747560851  0.35423253852261605  0.002654515585037709  1.0000
  H   H657      1.0  0.7740521661240058  0.35492421146481334  0.9741471283712719  1.0000
  H   H658      1.0  0.7513509014266779  0.3336640360091648  0.9825662120750398  1.0000
  H   H659      1.0  0.7692628333969385  0.3684087109817533  0.04778781800799203  1.0000
  H   H660      1.0  0.8077298106857106  0.36914684245876134  0.018898417393738542  1.0000
  H   H661      1.0  0.8101989317942383  0.35819812349083996  0.059911958371690055  1.0000
  H   H662      1.0  0.7375721809150357  0.3387598122907339  0.05897663540335407  1.0000
  H   H663      1.0  0.778393086393924  0.3288559651046653  0.07198977373561721  1.0000
  H   H664      1.0  0.7545712751203859  0.31835492655292946  0.03917337039482138  1.0000
  N   N35       1.0  0.2840289041226034  0.381803266275668  0.9021109224738465  1.0000
  C   C521      1.0  0.27817049337262895  0.38661915260883206  0.8661223870160888  1.0000
  C   C522      1.0  0.24947472665248338  0.37918863008278597  0.9209070460180045  1.0000
  C   C523      1.0  0.30345057076484455  0.3967440151278603  0.9178767198643604  1.0000
  C   C524      1.0  0.3048360305487244  0.36467307978368696  0.9036057772332835  1.0000
  H   H665      1.0  0.26149256254012776  0.3991499463252182  0.8641197862349873  1.0000
  H   H666      1.0  0.2640493652009253  0.37549537459167937  0.8532651252388891  1.0000
  H   H667      1.0  0.3035611375936769  0.38910446431417667  0.8511734643442297  1.0000
  H   H668      1.0  0.2526690734891293  0.37420942876327806  0.9475046585561576  1.0000
  H   H669      1.0  0.23397547240432787  0.3921431031610912  0.9221851767650933  1.0000
  H   H670      1.0  0.23321495499289072  0.36894933263227575  0.9081673916727282  1.0000
  H   H671      1.0  0.28846943210569326  0.40988614691691094  0.9168623725193165  1.0000
  H   H672      1.0  0.3298233450167783  0.399019524248791  0.9045265339794923  1.0000
  H   H673      1.0  0.3078143375644877  0.39363899670262387  0.9451932002031849  1.0000
  H   H674      1.0  0.30958498167386467  0.36057676831060764  0.9304304879676168  1.0000
  H   H675      1.0  0.330991593955999  0.36601231178638627  0.8894247921068755  1.0000
  H   H676      1.0  0.2906197893634823  0.3530690441394469  0.8923883712366641  1.0000
  N   N36       1.0  0.7847954016707724  0.2556643945202171  0.22212599002754682  1.0000
  C   C525      1.0  0.8022421430457897  0.2722847851914049  0.23421643152324592  1.0000
  C   C526      1.0  0.7976200578508098  0.23940653306090723  0.24054950456414337  1.0000
  C   C527      1.0  0.7928973535572337  0.25365180426559436  0.18508034484662722  1.0000
  C   C528      1.0  0.7461019687458269  0.2573321643868141  0.22856611280187905  1.0000
  H   H677      1.0  0.7938342211398346  0.2846934851038736  0.21994293403958287  1.0000
  H   H678      1.0  0.8315860624232218  0.271337075776356  0.2308070529829798  1.0000
  H   H679      1.0  0.7953608582990774  0.27475147246190496  0.2617657266699413  1.0000
  H   H680      1.0  0.7845842824168149  0.22670255610233692  0.23205723942979964  1.0000
  H   H681      1.0  0.8267434582178803  0.23760748741623958  0.2361405564786553  1.0000
  H   H682      1.0  0.7918336022420146  0.24055754634793186  0.268576434688036  1.0000
  H   H683      1.0  0.7793345172505045  0.24148283506746254  0.17498505101285092  1.0000
  H   H684      1.0  0.8218452696180879  0.25207782422874553  0.17915792555862414  1.0000
  H   H685      1.0  0.7838088001035288  0.2658429919265738  0.17059631719684934  1.0000
  H   H686      1.0  0.7387787591296778  0.2589528459345809  0.2562130302923028  1.0000
  H   H687      1.0  0.73193180109878  0.24508080068586618  0.21966996795189486  1.0000
  H   H688      1.0  0.7357013743392742  0.2694630844877906  0.21494435638909531  1.0000
  N   N37       1.0  0.41706352800483026  0.03838863930471281  0.20762933811131792  1.0000
  C   C529      1.0  0.3923118212468017  0.023356816915200307  0.21736912814386616  1.0000
  C   C530      1.0  0.4170900654686126  0.051822515954082826  0.23547156525908067  1.0000
  C   C531      1.0  0.4055472562349959  0.04745019509772219  0.17621324289268925  1.0000
  C   C532      1.0  0.4532497889059777  0.03094517678707631  0.20152828305834297  1.0000
  H   H689      1.0  0.3648585576884461  0.028547539311557513  0.22272851866705123  1.0000
  H   H690      1.0  0.4003417486884068  0.016054134449597468  0.24076051870998239  1.0000
  H   H691      1.0  0.39130996481522473  0.013039480153222982  0.19685709701887436  1.0000
  H   H692      1.0  0.43494740129977055  0.0635381912099584  0.22875138297853992  1.0000
  H   H693      1.0  0.39009510846686696  0.057504401766418356  0.24124618150421037  1.0000
  H   H694      1.0  0.426202155174818  0.04545005507584299  0.2593947815834197  1.0000
  H   H695      1.0  0.4234902633861082  0.05884652814333702  0.1680371213417693  1.0000
  H   H696      1.0  0.3785445427031186  0.05337945948480938  0.18014935386008096  1.0000
  H   H697      1.0  0.4049561533877917  0.03772154836720376  0.15467441532828352  1.0000
  H   H698      1.0  0.4543516902859413  0.02077892624597255  0.1806320870149009  1.0000
  H   H699      1.0  0.46254464914895693  0.02389412520836709  0.2247962900881942  1.0000
  H   H700      1.0  0.4726758071758861  0.041966296892126165  0.1943404668974632  1.0000
  N   N38       1.0  0.3081330240132404  0.8099657695718123  0.6203662622121324  1.0000
  C   C533      1.0  0.3263593101217216  0.7957549970547768  0.5993976396536324  1.0000
  C   C534      1.0  0.30853442914154716  0.8047196880110506  0.6568506721063248  1.0000
  C   C535      1.0  0.27107754946273993  0.8116755746978969  0.6105717651092515  1.0000
  C   C536      1.0  0.32630582982083295  0.8276870454788672  0.6145980356549215  1.0000
  H   H701      1.0  0.3255733674022976  0.7990223575782865  0.5716402800440412  1.0000
  H   H702      1.0  0.3134336681497416  0.782152695667518  0.603481797566933  1.0000
  H   H703      1.0  0.35459094716440925  0.7942247299236115  0.6055692756442158  1.0000
  H   H704      1.0  0.3359763332295957  0.8028899904200721  0.6652159362327084  1.0000
  H   H705      1.0  0.2952756119253246  0.815253736459872  0.6734043131852525  1.0000
  H   H706      1.0  0.2940696282339474  0.7916547537608596  0.6621687202682851  1.0000
  H   H707      1.0  0.257580918208347  0.7982213297234226  0.6123792316228192  1.0000
  H   H708      1.0  0.26953428583751327  0.816650757591317  0.5837785163257708  1.0000
  H   H709      1.0  0.25551270366867795  0.8212265877317694  0.6275048775364592  1.0000
  H   H710      1.0  0.31275185886366125  0.8387144785245726  0.6297140821277454  1.0000
  H   H711      1.0  0.32661185459376985  0.8319154896251401  0.5871893084971688  1.0000
  H   H712      1.0  0.35427294142007365  0.8269696517977198  0.6220578371981229  1.0000
  N   N39       1.0  0.44148300450061867  0.7860574416075272  0.8266625064831375  1.0000
  C   C537      1.0  0.4286179944818053  0.7691509518271834  0.8111862479202909  1.0000
  C   C538      1.0  0.4790146482859492  0.783807239741805  0.8348374196308822  1.0000
  C   C539      1.0  0.4198688374054343  0.7898022991887956  0.8582931871925085  1.0000
  C   C540      1.0  0.438158028177127  0.8015068090267927  0.8023704478563101  1.0000
  H   H713      1.0  0.4302314314163748  0.7572315565379367  0.8289628540592189  1.0000
  H   H714      1.0  0.4443278528172352  0.7658110986581649  0.7872687493537275  1.0000
  H   H715      1.0  0.40032970829197567  0.770575371501354  0.8046353666111543  1.0000
  H   H716      1.0  0.4825261225054246  0.7721446784509927  0.8528572957130724  1.0000
  H   H717      1.0  0.49631010774704226  0.7812934755149407  0.8115043999445992  1.0000
  H   H718      1.0  0.48921039822648904  0.7962481029767905  0.8471581826519242  1.0000
  H   H719      1.0  0.4280129819388307  0.8027530852473355  0.8702179558989871  1.0000
  H   H720      1.0  0.4223308439933613  0.778688414103226  0.8776532987872943  1.0000
  H   H721      1.0  0.39130787107701326  0.7910560125982661  0.8530659477701076  1.0000
  H   H722      1.0  0.4478326468890587  0.8144735424453098  0.8130765848446814  1.0000
  H   H723      1.0  0.4100101041898917  0.8037306250294592  0.7961079651741829  1.0000
  H   H724      1.0  0.45373939216367015  0.7990590516765156  0.7779913877277949  1.0000
  N   N40       1.0  0.7227748438556109  0.8009788674191535  0.6264609705471725  1.0000
  C   C541      1.0  0.7174700387241687  0.7814932028227698  0.6185104255115049  1.0000
  C   C542      1.0  0.7099772009451863  0.8125507071754648  0.5984664868965773  1.0000
  C   C543      1.0  0.7608749673033393  0.8044470494611994  0.6301055017319228  1.0000
  C   C544      1.0  0.7029042055294241  0.8053808288726031  0.6588265103330848  1.0000
  H   H725      1.0  0.727097661997659  0.7723589923965294  0.639010588329031  1.0000
  H   H726      1.0  0.7320692424258218  0.7776698479844821  0.5942618413405937  1.0000
  H   H727      1.0  0.6889892680024837  0.778341925361958  0.6157910926027211  1.0000
  H   H728      1.0  0.7131779534508136  0.8273596816676633  0.6037513697210085  1.0000
  H   H729      1.0  0.7249179658264219  0.8097346001251255  0.5738288609971498  1.0000
  H   H730      1.0  0.6814519080890364  0.810069818887267  0.5944847475687064  1.0000
  H   H731      1.0  0.7768790867743209  0.8007443154694548  0.606587872579755  1.0000
  H   H732      1.0  0.7711297055744387  0.7962822960291251  0.6515684579998985  1.0000
  H   H733      1.0  0.7660340248530677  0.8190905584062783  0.6353332435131512  1.0000
  H   H734      1.0  0.6739874051923017  0.803048454664102  0.6570607509180469  1.0000
  H   H735      1.0  0.7067545787732723  0.8198952059330676  0.6660058064076242  1.0000
  H   H736      1.0  0.7118700179556943  0.7966992936687222  0.6803211581030909  1.0000
  N   N41       1.0  0.7194626486111005  0.03777891952338197  0.6194290841800034  1.0000
  C   C545      1.0  0.6878540923387514  0.029260344872121147  0.6367851719767732  1.0000
  C   C546      1.0  0.7515182707659538  0.03146846665118774  0.6361590522471416  1.0000
  C   C547      1.0  0.7166862926095142  0.05789766189381429  0.6218296204972847  1.0000
  C   C548      1.0  0.7218012062201592  0.03252006843136268  0.5831024410363644  1.0000
  H   H737      1.0  0.6855555887117282  0.032785426976809307  0.6643457685359404  1.0000
  H   H738      1.0  0.688748951751428  0.014087813029081131  0.6350325257589995  1.0000
  H   H739      1.0  0.6631163411382843  0.03397108706006047  0.6253836082078282  1.0000
  H   H740      1.0  0.7503642045863826  0.03520199497992915  0.663694290295968  1.0000
  H   H741      1.0  0.754490542538021  0.01634265307583882  0.6348173498316  1.0000
  H   H742      1.0  0.775912851558197  0.0377601374375498  0.6240418594514499  1.0000
  H   H743      1.0  0.7397872414485639  0.06483235931800779  0.6085841863635415  1.0000
  H   H744      1.0  0.7155382326026044  0.062308531555490765  0.6488940006641691  1.0000
  H   H745      1.0  0.6924100674172444  0.06317479793521352  0.6101268841925981  1.0000
  H   H746      1.0  0.745915191097529  0.03824163669968428  0.5694423196989021  1.0000
  H   H747      1.0  0.6986493411540642  0.03769635167785279  0.5695086771080742  1.0000
  H   H748      1.0  0.7223697690974427  0.017394486531951747  0.5801361492102318  1.0000
  N   N42       1.0  0.30107383950099037  0.8098987685061243  0.1461688385968195  1.0000
  C   C549      1.0  0.2631278818519344  0.8143008401278362  0.14343871956216594  1.0000
  C   C550      1.0  0.3070608091155632  0.8031002145976851  0.18103450988454878  1.0000
  C   C551      1.0  0.32239775860111336  0.8265453265949239  0.13898905595933503  1.0000
  C   C552      1.0  0.31161366628865184  0.7956310590936567  0.12122505825696096  1.0000
  H   H749      1.0  0.2573494912905484  0.8191279677566436  0.1172932462589005  1.0000
  H   H750      1.0  0.25411587696300975  0.8250417545116427  0.16187587020212083  1.0000
  H   H751      1.0  0.2462796838970869  0.802130368132129  0.14928633089872043  1.0000
  H   H752      1.0  0.2917099481005367  0.7903804950401176  0.18699252590202467  1.0000
  H   H753      1.0  0.33547300404361846  0.7998879182912119  0.18435436399659047  1.0000
  H   H754      1.0  0.29864633841168875  0.8133382052932056  0.2006712845680011  1.0000
  H   H755      1.0  0.3512054289780752  0.8237269862295447  0.1408091629900265  1.0000
  H   H756      1.0  0.3150395542263829  0.8375438727603675  0.15747420001005458  1.0000
  H   H757      1.0  0.3183883935817224  0.8320213822727349  0.11285596025626493  1.0000
  H   H758      1.0  0.34011538929812146  0.7919702007197302  0.12237330327703028  1.0000
  H   H759      1.0  0.3070291499928458  0.800153338788977  0.09459719770293942  1.0000
  H   H760      1.0  0.2960323833595214  0.7828560336189905  0.12603981310162424  1.0000
  N   N43       1.0  0.9664069202670638  0.3876873630581478  0.37761313436047494  1.0000
  C   C553      1.0  0.9793197416275948  0.3771684395552906  0.40690096882820326  1.0000
  C   C554      1.0  0.9954785524211973  0.39910981145721985  0.36234155804417045  1.0000
  C   C555      1.0  0.9366412215627076  0.3995914833042308  0.3894241849014969  1.0000
  C   C556      1.0  0.9542143261312018  0.37493002538010706  0.3517342818267662  1.0000
  H   H761      1.0  0.958388590015481  0.36799901184661815  0.4184802226291803  1.0000
  H   H762      1.0  0.987937150889146  0.3863503476024254  0.4272859536228793  1.0000
  H   H763      1.0  0.00236538502715411  0.3683945676002111  0.39905303599905384  1.0000
  H   H764      1.0  0.9866027075714681  0.40729620523638166  0.3402296547230405  1.0000
  H   H765      1.0  0.005360932645819272  0.40889625034734034  0.3811784404317148  1.0000
  H   H766      1.0  0.018414001604660557  0.3905796488266211  0.3530930291576947  1.0000
  H   H767      1.0  0.9447073261669118  0.40946805459098495  0.40890304356951257  1.0000
  H   H768      1.0  0.9140919962467191  0.39145989491207067  0.4009581240619608  1.0000
  H   H769      1.0  0.9261651562778738  0.4076535373216985  0.3678925733252781  1.0000
  H   H770      1.0  0.943862414159433  0.38240678807030304  0.32944288055853044  1.0000
  H   H771      1.0  0.9322748525246219  0.36609452819204197  0.36228912358201226  1.0000
  H   H772      1.0  0.9758658208268108  0.36563324321191876  0.3422958867846294  1.0000
  N   N44       1.0  0.7466159718055876  0.05080163602191701  0.9793240652366648  1.0000
  C   C557      1.0  0.780456558837755  0.040836753261171754  0.9737263063263861  1.0000
  C   C558      1.0  0.7443967781255091  0.06565528062129755  0.9536117804641753  1.0000
  C   C559      1.0  0.7445424363387223  0.058649256389365245  0.013919271781772657  1.0000
  C   C560      1.0  0.7169100670929205  0.03799124014562838  0.9759768722652533  1.0000
  H   H773      1.0  0.7825396266818012  0.03461377646663455  0.9479010159436322  1.0000
  H   H774      1.0  0.7828023882203023  0.029538265966840838  0.9927957262157292  1.0000
  H   H775      1.0  0.8035410816162654  0.05008198651028528  0.9758594546737467  1.0000
  H   H776      1.0  0.7468141477057773  0.06023012539406425  0.9271723992474359  1.0000
  H   H777      1.0  0.7184648536212683  0.07292254043600721  0.9562644928203224  1.0000
  H   H778      1.0  0.7657279296466207  0.07593273156083158  0.9559894003636107  1.0000
  H   H779      1.0  0.7194339133954128  0.06642342915515398  0.018868722528514015  1.0000
  H   H780      1.0  0.7667458963987078  0.06822146486584701  0.017761792031186552  1.0000
  H   H781      1.0  0.745349263720286  0.047782292229532564  0.03399513937176746  1.0000
  H   H782      1.0  0.6909754729875446  0.0449774496990627  0.9806842223146748  1.0000
  H   H783      1.0  0.7179449473330491  0.026361252325274975  0.9945025648143265  1.0000
  H   H784      1.0  0.7171657713221794  0.03211162464454609  0.94994260494237  1.0000
  N   N45       1.0  0.571996099817106  0.8786480878309642  0.9271010575275132  1.0000
  C   C561      1.0  0.5769045073381666  0.8656521380653139  0.955638513340033  1.0000
  C   C562      1.0  0.5808504602623102  0.8973223875069909  0.937912112361005  1.0000
  C   C563      1.0  0.5348048303202486  0.8780863408097339  0.9172848226848352  1.0000
  C   C564      1.0  0.5956003303137744  0.8734593785386189  0.8975547669620397  1.0000
  H   H785      1.0  0.5706365878074723  0.8513952328031249  0.9483939369740857  1.0000
  H   H786      1.0  0.5596085362733256  0.8691448742056125  0.9784651129826776  1.0000
  H   H787      1.0  0.6048701651656436  0.8657241641033384  0.9634834116971889  1.0000
  H   H788      1.0  0.6079251939939706  0.897783086714091  0.9477138117544408  1.0000
  H   H789      1.0  0.5804078571005229  0.9073707314356375  0.9163636977679839  1.0000
  H   H790      1.0  0.562260019959455  0.9021762828325873  0.9588120925185242  1.0000
  H   H791      1.0  0.5303140829194558  0.8877835225700332  0.8958751665149975  1.0000
  H   H792      1.0  0.5160982183043077  0.8816463659971236  0.9390714718961276  1.0000
  H   H793      1.0  0.527553716173863  0.8641735473008664  0.9087332312195227  1.0000
  H   H794      1.0  0.5936555435258228  0.8832281815429776  0.8757661057335856  1.0000
  H   H795      1.0  0.589300507094119  0.85960318496146  0.8882971404274996  1.0000
  H   H796      1.0  0.6237124951238981  0.8731690286014109  0.9043599753443148  1.0000
  N   N46       1.0  0.27884826289271963  0.1410165307459885  0.196552182092507  1.0000
  C   C565      1.0  0.2653999477546654  0.12203297002203602  0.19728652140644112  1.0000
  C   C566      1.0  0.3177468037917689  0.1407651164188124  0.1988882341827388  1.0000
  C   C567      1.0  0.2625816485777203  0.15114282194311532  0.22578929923921245  1.0000
  C   C568      1.0  0.2697629308051418  0.15015343660479216  0.1643223143064699  1.0000
  H   H797      1.0  0.2723894075565042  0.11460369229366923  0.2209857017517744  1.0000
  H   H798      1.0  0.2771600300284933  0.11404234713700954  0.17553926919083648  1.0000
  H   H799      1.0  0.23610968887233075  0.12160865645008974  0.19581623451350927  1.0000
  H   H800      1.0  0.32860954852491997  0.15483006339819416  0.2002419378834367  1.0000
  H   H801      1.0  0.3257016401656745  0.13308559359365413  0.22196377777221848  1.0000
  H   H802      1.0  0.3310547290236582  0.134003945830208  0.17637464300031208  1.0000
  H   H803      1.0  0.272191709619228  0.16555320776776172  0.2258890043036436  1.0000
  H   H804      1.0  0.26914417058632095  0.14465672243104516  0.25050573555381644  1.0000
  H   H805      1.0  0.23320447033252203  0.15159310260117898  0.22493717052107862  1.0000
  H   H806      1.0  0.27883093235559603  0.16464427679434215  0.16330203103700539  1.0000
  H   H807      1.0  0.240681147353225  0.1502241477451433  0.16124080896297824  1.0000
  H   H808      1.0  0.2824558400886214  0.1431931083906099  0.14166892804036954  1.0000
  N   N47       1.0  0.8887895835956038  0.3231608817321199  0.7600568546401424  1.0000
  C   C569      1.0  0.9201422562123373  0.3327526678651909  0.7719920188205696  1.0000
  C   C570      1.0  0.876432460892307  0.3095214535381249  0.7860490950730787  1.0000
  C   C571      1.0  0.8983234596634297  0.31378267258278625  0.7277015874102322  1.0000
  C   C572      1.0  0.8601563256864049  0.3365503796174952  0.7547139760226778  1.0000
  H   H809      1.0  0.9422061222320722  0.3230286790914054  0.7765917859113841  1.0000
  H   H810      1.0  0.913882604662731  0.3397352195608158  0.7967043590152031  1.0000
  H   H811      1.0  0.9302162950477594  0.34326521194703885  0.7532319331471918  1.0000
  H   H812      1.0  0.8529757028954452  0.30181660876376537  0.7779934919715233  1.0000
  H   H813      1.0  0.8976481945173092  0.2995131562030505  0.7918362279775899  1.0000
  H   H814      1.0  0.8684218870549905  0.31631348661302383  0.8103446915625343  1.0000
  H   H815      1.0  0.8751386058660787  0.3064144586874036  0.7181356280406361  1.0000
  H   H816      1.0  0.9197285458009575  0.3035145428958451  0.731097448190805  1.0000
  H   H817      1.0  0.9078783790068677  0.3236542338810357  0.7074682161309046  1.0000
  H   H818      1.0  0.8358065343900108  0.3297165567350957  0.7464266344370775  1.0000
  H   H819      1.0  0.8682844794418312  0.3470282586645048  0.7350868053488161  1.0000
  H   H820      1.0  0.852419049998348  0.3438587534482833  0.7787669953094831  1.0000
  N   N48       1.0  0.7262299423498354  0.20732915522406048  0.5592015331486803  1.0000
  C   C573      1.0  0.7293961193811564  0.1947769782212435  0.5299588554492836  1.0000
  C   C574      1.0  0.7596098191608138  0.2176706289465245  0.5613043779672438  1.0000
  C   C575      1.0  0.7191393579132511  0.19660740410307698  0.5910479294097767  1.0000
  C   C576      1.0  0.696705648398404  0.2202520463421823  0.554365511984302  1.0000
  H   H821      1.0  0.7045785206366492  0.18680725322461536  0.5276341849818933  1.0000
  H   H822      1.0  0.7513727031854572  0.18478803052404144  0.5328030504471788  1.0000
  H   H823      1.0  0.7347563607097292  0.20241220883556732  0.5055063134494946  1.0000
  H   H824      1.0  0.7653887892608447  0.22620002191122976  0.5379518179476982  1.0000
  H   H825      1.0  0.7582042022042117  0.2272731356319316  0.5831100823587283  1.0000
  H   H826      1.0  0.78259073651222  0.20841812334771614  0.5647484624184458  1.0000
  H   H827      1.0  0.7160297324610936  0.20560569555481248  0.6136790410664803  1.0000
  H   H828      1.0  0.7409529314321543  0.18680532262294383  0.5958074816791691  1.0000
  H   H829      1.0  0.6941444630763723  0.1886221792238819  0.5902742838359524  1.0000
  H   H830      1.0  0.6935915835321498  0.2299093080179248  0.5759315407244935  1.0000
  H   H831      1.0  0.6709676397810996  0.21299671196936412  0.5529826830209013  1.0000
  H   H832      1.0  0.7012572601417323  0.22873003925954105  0.5307882962339803  1.0000
  N   N49       1.0  0.2503809791883121  0.7866893410982565  0.3928400195554845  1.0000
  C   C577      1.0  0.22714285601406162  0.7838458449174974  0.42397386777869656  1.0000
  C   C578      1.0  0.2350590812788628  0.7776197830074864  0.3635760453786208  1.0000
  C   C579      1.0  0.28577748872936454  0.7788710897463643  0.398328342751288  1.0000
  C   C580      1.0  0.2536872203559566  0.8064906730066  0.3854529093103712  1.0000
  H   H833      1.0  0.2380273847505427  0.790695330605804  0.44637472513425475  1.0000
  H   H834      1.0  0.2243078058875192  0.7690620136903163  0.4306319479243247  1.0000
  H   H835      1.0  0.2001725201774966  0.7895586813831716  0.4208254777154426  1.0000
  H   H836      1.0  0.2524416723607247  0.7793934140146993  0.3398963696910296  1.0000
  H   H837      1.0  0.23176371522859734  0.7626697924055561  0.36828549788374637  1.0000
  H   H838      1.0  0.20865584367319265  0.7834459041400853  0.3582063583040375  1.0000
  H   H839      1.0  0.30430519790340793  0.7811475665383779  0.3756123871700421  1.0000
  H   H840      1.0  0.2844044080132094  0.7638792067258766  0.40336600999020455  1.0000
  H   H841      1.0  0.29787020541797965  0.7852121068835168  0.4205816201206616  1.0000
  H   H842      1.0  0.2703158561395356  0.8091642984996054  0.36169228847619334  1.0000
  H   H843      1.0  0.2662332962205436  0.8136641901730077  0.4064369672570324  1.0000
  H   H844      1.0  0.22744785709597398  0.8130238997714236  0.38218840423669953  1.0000
  N   N50       1.0  0.20521021201950482  0.4624083770186037  0.484851645505992  1.0000
  C   C581      1.0  0.2082624654006706  0.4489586796031878  0.4569895593927869  1.0000
  C   C582      1.0  0.20608712304683272  0.4527699501461888  0.5181065056771862  1.0000
  C   C583      1.0  0.17136446591510188  0.47244793346375025  0.48311613473552334  1.0000
  C   C584      1.0  0.23497309621676424  0.47549398916627367  0.48117588059680644  1.0000
  H   H845      1.0  0.2074069578806582  0.45577725776748174  0.4315136382837991  1.0000
  H   H846      1.0  0.1859943642704168  0.43898125957849116  0.45880188387018545  1.0000
  H   H847      1.0  0.23345207977607885  0.4410705516329687  0.45726172439700996  1.0000
  H   H848      1.0  0.20368610433497042  0.46255970055242945  0.5396393787569063  1.0000
  H   H849      1.0  0.18388398007172585  0.44281619484988755  0.5215696795407115  1.0000
  H   H850      1.0  0.23128371084353266  0.445027444195516  0.5202885998446758  1.0000
  H   H851      1.0  0.16836992373004384  0.4831112524121121  0.5030993391303207  1.0000
  H   H852      1.0  0.1481590391328168  0.4630817656080961  0.48581557795075303  1.0000
  H   H853      1.0  0.16972493543431563  0.47950766016360635  0.4580980592985666  1.0000
  H   H854      1.0  0.23498494275000062  0.4830528264589625  0.45636933335487967  1.0000
  H   H855      1.0  0.26102579351330496  0.46847468472162684  0.4823654904243483  1.0000
  H   H856      1.0  0.2331802257222013  0.48603457880802947  0.5014801106425779  1.0000
  N   N51       1.0  0.18468704671382866  0.6042350274571299  0.5162704573002754  1.0000
  C   C585      1.0  0.20685480601444978  0.6178743227073548  0.5326037830654629  1.0000
  C   C586      1.0  0.1795468904388162  0.6098650464373961  0.4805751362011551  1.0000
  C   C587      1.0  0.14982183042437516  0.6029680877861794  0.5351127106741589  1.0000
  C   C588      1.0  0.20249961213834802  0.5862190350743269  0.5167670324946494  1.0000
  H   H857      1.0  0.21127406492602882  0.6140010416660501  0.5595975497496055  1.0000
  H   H858      1.0  0.1940593768351027  0.6316218399653976  0.5331654694780665  1.0000
  H   H859      1.0  0.23333879431455182  0.619294567686383  0.5190953846258547  1.0000
  H   H860      1.0  0.16287635265011172  0.5998097392355838  0.46761170886888065  1.0000
  H   H861      1.0  0.16617246902973065  0.6234299476152146  0.4793297588651561  1.0000
  H   H862      1.0  0.2053115040341888  0.6108988164678452  0.46555869379698056  1.0000
  H   H863      1.0  0.13227985032035755  0.5928091565124489  0.5235456413235035  1.0000
  H   H864      1.0  0.13589356838081865  0.616404613838997  0.5359790006281501  1.0000
  H   H865      1.0  0.15258784091981759  0.5985192066132953  0.5619952401293528  1.0000
  H   H866      1.0  0.18682854920847197  0.5756610699436131  0.504083688829967  1.0000
  H   H867      1.0  0.20607905699501408  0.5813624298521551  0.5433807143600321  1.0000
  H   H868      1.0  0.22916150202357627  0.5866782355190474  0.503332102363973  1.0000
  N   N52       1.0  0.0802717744207581  0.7149814777464989  0.6555210350889836  1.0000
  C   C589      1.0  0.043212602275048424  0.7155793119011271  0.6452624702992281  1.0000
  C   C590      1.0  0.08585870954035986  0.7295107592738896  0.6805283596244358  1.0000
  C   C591      1.0  0.10449425766237946  0.7179458307358922  0.6251577907516578  1.0000
  C   C592      1.0  0.08771355397170937  0.6969582713157843  0.6711199105737691  1.0000
  H   H869      1.0  0.02412151255645963  0.7134985180929065  0.667561272966136  1.0000
  H   H870      1.0  0.03814810402750628  0.7048153223756758  0.6263144201544135  1.0000
  H   H871      1.0  0.036887534491030556  0.7290365595178615  0.6334289230038023  1.0000
  H   H872      1.0  0.08155087957330087  0.7433208589453849  0.6692273050459137  1.0000
  H   H873      1.0  0.06750081530020674  0.7280287674975278  0.7034995905929893  1.0000
  H   H874      1.0  0.11344388343917113  0.7291615537261945  0.6892998439069974  1.0000
  H   H875      1.0  0.13254302135542725  0.7181983361104671  0.632295509381118  1.0000
  H   H876      1.0  0.0991070239389874  0.7312340605674256  0.6122247662203858  1.0000
  H   H877      1.0  0.10210896737930067  0.7069209067695796  0.6061290047914498  1.0000
  H   H878      1.0  0.08521260866313547  0.6856648280614114  0.6526117575369864  1.0000
  H   H879      1.0  0.06936037504031417  0.6940268348502356  0.6936216933427927  1.0000
  H   H880      1.0  0.11516252655115077  0.6963595995314442  0.6800539033314322  1.0000
  N   N53       1.0  0.7398014522409907  0.4731846643949601  0.35890718642182357  1.0000
  C   C593      1.0  0.7032028763314857  0.46628990191402314  0.36425288632475494  1.0000
  C   C594      1.0  0.748414103270135  0.48464435386401666  0.38807091308849956  1.0000
  C   C595      1.0  0.7429283618380524  0.4842628049311794  0.3270982430129865  1.0000
  C   C596      1.0  0.7647441820891391  0.4575795011643621  0.35634289719395057  1.0000
  H   H881      1.0  0.6957868234480126  0.4575820569102515  0.3426957708458527  1.0000
  H   H882      1.0  0.6838063814797654  0.4777673664930558  0.3664646160330845  1.0000
  H   H883      1.0  0.7001102191085572  0.4578858091520958  0.3880956394014295  1.0000
  H   H884      1.0  0.746351859697443  0.4768232238623125  0.4126455127802009  1.0000
  H   H885      1.0  0.7760210278998828  0.4896885882221819  0.3850398639620162  1.0000
  H   H886      1.0  0.730918711528832  0.4968958753339976  0.3904073944341586  1.0000
  H   H887      1.0  0.72491402598424  0.4963595956671288  0.3283580140524808  1.0000
  H   H888      1.0  0.7366012107543791  0.4761296692042323  0.3044586367417699  1.0000
  H   H889      1.0  0.7702494725472713  0.48972699341875586  0.32239035087218915  1.0000
  H   H890      1.0  0.7925820096548197  0.4623518179812142  0.35210998979942215  1.0000
  H   H891      1.0  0.7590231899334439  0.44843713106384875  0.33488133143161136  1.0000
  H   H892      1.0  0.7637488820734017  0.44917686067575907  0.38026706757105505  1.0000
  N   N54       1.0  0.08851622217115966  0.28320513728723484  0.382108514639571  1.0000
  C   C597      1.0  0.08325380082546628  0.2708522639994562  0.35329701436751265  1.0000
  C   C598      1.0  0.10232433390982111  0.30088398967877966  0.3687376644880589  1.0000
  C   C599      1.0  0.11433404651357804  0.27502953024346705  0.40489707575287176  1.0000
  C   C600      1.0  0.05436927654597259  0.2862073475233835  0.40148091377556844  1.0000
  H   H893      1.0  0.06393591606732592  0.2767345915033064  0.3356597342912206  1.0000
  H   H894      1.0  0.07295386874297251  0.2573084240494236  0.36237802968255267  1.0000
  H   H895      1.0  0.10860206599825001  0.268499337378417  0.33809775789076624  1.0000
  H   H896      1.0  0.12809307777000167  0.29923823930532795  0.35396530824657885  1.0000
  H   H897      1.0  0.08364164418604059  0.3075726214064385  0.35145781576999574  1.0000
  H   H898      1.0  0.10668476666879229  0.3104276725791365  0.3899557368078064  1.0000
  H   H899      1.0  0.11820655791490818  0.28394023925601997  0.4272418685671495  1.0000
  H   H900      1.0  0.14078899974603076  0.2732288387946116  0.391319107544522  1.0000
  H   H901      1.0  0.1053254555079108  0.2614379727869306  0.41494291517166704  1.0000
  H   H902      1.0  0.05761254335635612  0.2953825291465515  0.42358811802348145  1.0000
  H   H903      1.0  0.04283979918315683  0.2731534852029627  0.4117113863590756  1.0000
  H   H904      1.0  0.034461849899627216  0.2927937994343261  0.385287833001838  1.0000
  N   N55       1.0  0.7865548846405592  0.6427188554112669  0.5628093275541028  1.0000
  C   C601      1.0  0.784771047050246  0.6629196615530174  0.5635589111594499  1.0000
  C   C602      1.0  0.7618583519805189  0.6357987458198003  0.5380009469414183  1.0000
  C   C603      1.0  0.7765221384140362  0.6352344179765406  0.5971248097398018  1.0000
  C   C604      1.0  0.8230201100397883  0.63684998972581  0.5525565974739878  1.0000
  H   H905      1.0  0.8020665295473657  0.6685427058718321  0.5829353275726844  1.0000
  H   H906      1.0  0.7574065904646149  0.6678164393049176  0.5702463426671286  1.0000
  H   H907      1.0  0.7935221906841657  0.6691273820734196  0.5384879611569002  1.0000
  H   H908      1.0  0.7628552526552402  0.6205786827224675  0.5366223658397047  1.0000
  H   H909      1.0  0.733981674552295  0.6396588092121467  0.5451893037477629  1.0000
  H   H910      1.0  0.7685308373452109  0.6412227200612989  0.511838959105912  1.0000
  H   H911      1.0  0.795186989033311  0.6396859487179373  0.6164119845906383  1.0000
  H   H912      1.0  0.7766419994878526  0.6200253038081314  0.5971467353866804  1.0000
  H   H913      1.0  0.749484517747497  0.6396863788492763  0.6061042066029794  1.0000
  H   H914      1.0  0.8252205760146103  0.6216451547846522  0.5518635774153559  1.0000
  H   H915      1.0  0.8424179837968351  0.6417956183059892  0.570660526828565  1.0000
  H   H916      1.0  0.8314840589497053  0.642153268175747  0.5267199205233815  1.0000
  N   N56       1.0  0.06045343414580817  0.44624491328735977  0.8896375507118379  1.0000
  C   C605      1.0  0.08930922511253389  0.43738419118293964  0.8688723651043441  1.0000
  C   C606      1.0  0.04468028248316102  0.461134008265801  0.8695528028824262  1.0000
  C   C607      1.0  0.07490081768597727  0.4538800642932147  0.9207000178844589  1.0000
  C   C608      1.0  0.03290368526431365  0.43258270890886263  0.8995250079841022  1.0000
  H   H917      1.0  0.11103497171088136  0.44718902365048335  0.8618425464409827  1.0000
  H   H918      1.0  0.07969173324857758  0.43178844591938415  0.8448157072807115  1.0000
  H   H919      1.0  0.10133069594870729  0.4258459264831364  0.8830272417963119  1.0000
  H   H920      1.0  0.022153286261896697  0.46775855307872166  0.8841676411243526  1.0000
  H   H921      1.0  0.06442984289997669  0.4720284271039784  0.8625876766146245  1.0000
  H   H922      1.0  0.034327156560349896  0.4559968137931924  0.8454625088423593  1.0000
  H   H923      1.0  0.09479662400490686  0.4647629939047614  0.914273341032463  1.0000
  H   H924      1.0  0.08848578100968128  0.44319270675701833  0.935738862522519  1.0000
  H   H925      1.0  0.05371291012194623  0.46002917270580207  0.937686947891629  1.0000
  H   H926      1.0  0.010629149735805981  0.43886861140905786  0.915116148518895  1.0000
  H   H927      1.0  0.043870646252286566  0.42121908449658096  0.9149464117682095  1.0000
  H   H928      1.0  0.02151541536481329  0.4264563288357709  0.8767098654333668  1.0000
  N   N57       1.0  0.3125987668457777  0.22793518170828975  0.011198601668718666  1.0000
  C   C609      1.0  0.27988802224464454  0.22576761985173616  0.033242153194576796  1.0000
  C   C610      1.0  0.34120413026459734  0.21671764252109546  0.025169517811612696  1.0000
  C   C611      1.0  0.32318053694954335  0.24740921339577826  0.009972512794488297  1.0000
  C   C612      1.0  0.30599264711815205  0.2218407320855816  0.9763290392468693  1.0000
  H   H929      1.0  0.25806031693275777  0.23455346577688066  0.02421002590024668  1.0000
  H   H930      1.0  0.2841725267226912  0.229825096354283  0.05999206680939562  1.0000
  H   H931      1.0  0.2704380460511611  0.21137560302595587  0.03396519726160396  1.0000
  H   H932      1.0  0.34646676837217444  0.22074291078536917  0.05169622090581916  1.0000
  H   H933      1.0  0.33422268839806596  0.20191157317442704  0.026108517105253304  1.0000
  H   H934      1.0  0.3664987760545753  0.21822287476919425  0.009547797006318914  1.0000
  H   H935      1.0  0.3480806766671577  0.24959722457325817  0.9940411161634927  1.0000
  H   H936      1.0  0.32760154514026235  0.25265921569815963  0.03586940728083832  1.0000
  H   H937      1.0  0.3022406478407693  0.2562293014011442  0.999350659910718  1.0000
  H   H938      1.0  0.330091989787752  0.22338976917597456  0.9589482027731725  1.0000
  H   H939      1.0  0.28439212544988973  0.22998803139836768  0.9651676766535898  1.0000
  H   H940      1.0  0.2980355289725933  0.20718573607392538  0.9762237475985841  1.0000
  N   N58       1.0  0.46823745962536184  0.8894727780721023  0.3835684632847887  1.0000
  C   C613      1.0  0.49926118226586436  0.9016042514270186  0.3776688274562525  1.0000
  C   C614      1.0  0.4621366262413299  0.8793537909002607  0.3520425549130065  1.0000
  C   C615      1.0  0.43653335466369086  0.9005703110671403  0.3930666861148165  1.0000
  C   C616      1.0  0.4750138418937994  0.876323253993623  0.41141125144643875  1.0000
  H   H941      1.0  0.5236836548850795  0.8936346282081793  0.37056845637238955  1.0000
  H   H942      1.0  0.5046063130922355  0.9095023696034725  0.40093281003453457  1.0000
  H   H943      1.0  0.4951096454245195  0.9116513100184401  0.35668752775450596  1.0000
  H   H944      1.0  0.43953345600096594  0.8696875332639222  0.35596674057549343  1.0000
  H   H945      1.0  0.45552352065056967  0.8887755203112689  0.3307728445261263  1.0000
  H   H946      1.0  0.48583414918107365  0.871221313574042  0.3435119300479551  1.0000
  H   H947      1.0  0.4125207263025378  0.8918596239691177  0.3971058692897701  1.0000
  H   H948      1.0  0.4307337651947485  0.9106612550048666  0.3725964507194145  1.0000
  H   H949      1.0  0.4398742739914246  0.9082822161053149  0.41693634525164325  1.0000
  H   H950      1.0  0.49897982359157406  0.8678512355769991  0.4051613115414853  1.0000
  H   H951      1.0  0.452396927871807  0.8667123229945111  0.41617114854338627  1.0000
  H   H952      1.0  0.47929429741608637  0.8833961101538488  0.4357773581228438  1.0000
  N   N59       1.0  0.13936702310297988  0.3209676747809522  0.018533704715480104  1.0000
  C   C617      1.0  0.14110007947182376  0.30617954336053205  0.9931578780958641  1.0000
  C   C618      1.0  0.11452042565907854  0.3352959176155365  0.007665996759690152  1.0000
  C   C619      1.0  0.1750081426173636  0.32895615543486856  0.021125957192384748  1.0000
  C   C620      1.0  0.12683052713524023  0.31339504603607404  0.05211149544910798  1.0000
  H   H953      1.0  0.15076873335757363  0.3114310146809768  0.9676493594086062  1.0000
  H   H954      1.0  0.1144952088863668  0.30012996218009835  0.9898031009106742  1.0000
  H   H955      1.0  0.1592263643497767  0.2949796547186654  0.0005974908458210582  1.0000
  H   H956      1.0  0.11219588055930471  0.34666172603326606  0.02622997622564127  1.0000
  H   H957      1.0  0.1232391393250902  0.3412764528301239  0.9823730951620184  1.0000
  H   H958      1.0  0.08749656092510205  0.329647232611351  0.004741876009891621  1.0000
  H   H959      1.0  0.17461270685870434  0.3405144383197308  0.03931385494855877  1.0000
  H   H960      1.0  0.185789728509496  0.33425132670890595  0.9959280212644245  1.0000
  H   H961      1.0  0.19421752349251406  0.31862427420511563  0.030143872220623313  1.0000
  H   H962      1.0  0.1252358951920766  0.32418038353037454  0.07192093591594495  1.0000
  H   H963      1.0  0.14503867007614027  0.3025142717071128  0.060968518486215206  1.0000
  H   H964      1.0  0.10000883315733339  0.3072346026745226  0.05094694381452847  1.0000
  N   N60       1.0  0.1166897203181515  0.5598394046950556  0.2791995330568448  1.0000
  C   C621      1.0  0.13518522158450977  0.5770507503296862  0.269379236101398  1.0000
  C   C622      1.0  0.11928703940063538  0.5469677478092105  0.25041420198608455  1.0000
  C   C623      1.0  0.07901612609463177  0.5637991542611489  0.2883179384125752  1.0000
  C   C624      1.0  0.13335046272624354  0.5514813356998962  0.3088067029043111  1.0000
  H   H965      1.0  0.1227329346956244  0.5840018610749631  0.24764609542060315  1.0000
  H   H966      1.0  0.16350489935370166  0.574533798304432  0.2615066581992403  1.0000
  H   H967      1.0  0.13453724801658862  0.5868393858016059  0.29088131589185445  1.0000
  H   H968      1.0  0.14742732998040092  0.5439509637497356  0.24256808379495406  1.0000
  H   H969      1.0  0.1063988561185986  0.5336590612804263  0.257364357487367  1.0000
  H   H970      1.0  0.10648297101311037  0.5526093925132868  0.2277280024448141  1.0000
  H   H971      1.0  0.07618513975431415  0.5729464790372384  0.3107986526860298  1.0000
  H   H972      1.0  0.06419085061089044  0.5510557873352476  0.2952866065252326  1.0000
  H   H973      1.0  0.06591853721369403  0.5706163515261671  0.26676088452967095  1.0000
  H   H974      1.0  0.16184220249656078  0.5485486310538168  0.30295803889298195  1.0000
  H   H975      1.0  0.12058019243398443  0.5382769367403026  0.3164830420473503  1.0000
  H   H976      1.0  0.13132660291067558  0.5605381563004336  0.3314273604234574  1.0000
  N   N61       1.0  0.8799259468261273  0.5090602428941116  0.04643833798506858  1.0000
  C   C625      1.0  0.8839925600061784  0.5190018536404261  0.013479140473626972  1.0000
  C   C626      1.0  0.881819579954391  0.4891615113522297  0.04031124448006108  1.0000
  C   C627      1.0  0.8452058181051052  0.5136337442428377  0.0633798197944125  1.0000
  C   C628      1.0  0.908609398696425  0.5144735914059252  0.06839395081343468  1.0000
  H   H977      1.0  0.8828622168827521  0.5340881673586991  0.016987868839799747  1.0000
  H   H978      1.0  0.8624269964243828  0.5153743208420458  0.9965975076823183  1.0000
  H   H979      1.0  0.9095876742491276  0.5156485844521941  0.9995058934642645  1.0000
  H   H980      1.0  0.8605065054242821  0.484714044609168  0.023731716791032698  1.0000
  H   H981      1.0  0.9075539232612125  0.48524491544868936  0.027190689430678153  1.0000
  H   H982      1.0  0.8789390890901029  0.48115408067324816  0.06457376942184043  1.0000
  H   H983      1.0  0.8431776314926704  0.52850405622527  0.06893073259242381  1.0000
  H   H984      1.0  0.8407334782699211  0.5060889409850298  0.0880101430774972  1.0000
  H   H985      1.0  0.8230105502318581  0.5102208628410039  0.046927762221129495  1.0000
  H   H986      1.0  0.9062327520575155  0.5073393041585061  0.09363394616316328  1.0000
  H   H987      1.0  0.9079451387429588  0.5294659130281093  0.0732465796977907  1.0000
  H   H988      1.0  0.9351152886955485  0.5111206831538452  0.05626790785682693  1.0000
  N   N62       1.0  0.9392374097936624  0.5565292783386705  0.27080338136977505  1.0000
  C   C629      1.0  0.9422434152883544  0.5590141520158408  0.3078233126755132  1.0000
  C   C630      1.0  0.9392173168473568  0.5746009741354576  0.2536470328851644  1.0000
  C   C631      1.0  0.9058145363798232  0.5469381816314374  0.2647758140423844  1.0000
  C   C632      1.0  0.969498602980002  0.5455711767049457  0.25687845418160643  1.0000
  H   H989      1.0  0.92067909822745  0.5678717819976351  0.3189109510892102  1.0000
  H   H990      1.0  0.9680940416253866  0.5651689100048825  0.3136485881286095  1.0000
  H   H991      1.0  0.9400519307502166  0.5457117772892798  0.32157859852899345  1.0000
  H   H992      1.0  0.9646394368600273  0.5819696584709884  0.25635970072511943  1.0000
  H   H993      1.0  0.9354672215333547  0.5730951717333038  0.22599028372764585  1.0000
  H   H994      1.0  0.917303868189243  0.5834433790277946  0.26408706770776963  1.0000
  H   H995      1.0  0.9027930733867944  0.5447205776170932  0.23703678951909904  1.0000
  H   H996      1.0  0.882469779138211  0.5548926025769824  0.2747948601656242  1.0000
  H   H997      1.0  0.9048397017667488  0.5332273252038885  0.277567371858023  1.0000
  H   H998      1.0  0.9702312806812277  0.5318195878786175  0.26928992409069513  1.0000
  H   H999      1.0  0.9952189818034464  0.5523689580792671  0.2607557310610487  1.0000
  H   H1000     1.0  0.9677764864431484  0.5433472555101209  0.22899881762428184  1.0000
  N   N63       1.0  0.5844172098089293  0.045882638313830534  0.8074949994048607  1.0000
  C   C633      1.0  0.6054098588772852  0.05866198189116369  0.7851945740229356  1.0000
  C   C634      1.0  0.5954993146471502  0.02691297828016115  0.7997976073362038  1.0000
  C   C635      1.0  0.5463876766364693  0.048096812275797506  0.8013295918815682  1.0000
  C   C636      1.0  0.5904650437494442  0.04990767930959764  0.8435523612931116  1.0000
  H   H1001     1.0  0.6341048548441467  0.05773049439242685  0.7898680645847892  1.0000
  H   H1002     1.0  0.5969627942382314  0.0730865136934158  0.7895686093929005  1.0000
  H   H1003     1.0  0.6023453515507101  0.0557785660026696  0.757722055970093  1.0000
  H   H1004     1.0  0.6240394655843001  0.024745232704028734  0.8043683841680882  1.0000
  H   H1005     1.0  0.579976378368096  0.016871483531849977  0.8159953586514102  1.0000
  H   H1006     1.0  0.5916417406354955  0.023551745744666567  0.772668362877105  1.0000
  H   H1007     1.0  0.5297280139267431  0.03875567681572045  0.8179567300149733  1.0000
  H   H1008     1.0  0.5409534208756878  0.04513216003740217  0.7743351563749395  1.0000
  H   H1009     1.0  0.5372312083930566  0.06235885479407356  0.8063004409341943  1.0000
  H   H1010     1.0  0.5749384510036488  0.04058547808320401  0.8612140233797477  1.0000
  H   H1011     1.0  0.5825339030992484  0.06415914165130056  0.85009227983265  1.0000
  H   H1012     1.0  0.6189517308751145  0.048319332952131734  0.8491086933333222  1.0000
  N   N64       1.0  0.7169027299504396  0.9623921227141726  0.3413475050369813  1.0000
  C   C637      1.0  0.6799663658393066  0.9688696348838053  0.33974659508866956  1.0000
  C   C638      1.0  0.7381440226132162  0.9696607387466364  0.31150478190712927  1.0000
  C   C639      1.0  0.717515254268505  0.9421639900719564  0.3412076044118358  1.0000
  C   C640      1.0  0.7318513341383605  0.9689746176841044  0.3730093714970598  1.0000
  H   H1013     1.0  0.6671045066247873  0.9635027274197552  0.31708590994161256  1.0000
  H   H1014     1.0  0.6786158624413261  0.9840488015342942  0.3383916007177887  1.0000
  H   H1015     1.0  0.6636256272105356  0.9644696167410037  0.3627116716548618  1.0000
  H   H1016     1.0  0.7661813858216104  0.9650006100457955  0.31169822351837095  1.0000
  H   H1017     1.0  0.7272760996641617  0.9652278061717183  0.2871354600920953  1.0000
  H   H1018     1.0  0.7382632607896931  0.9849378319351317  0.31127499672213027  1.0000
  H   H1019     1.0  0.7448475483474373  0.9367118998971014  0.34328186890652657  1.0000
  H   H1020     1.0  0.7068310406896768  0.9366995465846443  0.31750501890516497  1.0000
  H   H1021     1.0  0.7010040563833034  0.9363450468513244  0.36306384212825926  1.0000
  H   H1022     1.0  0.759893423269201  0.9645959412350497  0.3748729100751271  1.0000
  H   H1023     1.0  0.7167097535084165  0.9635655585602546  0.39606684400462516  1.0000
  H   H1024     1.0  0.7311208285428  0.9842062317879996  0.3742194119011489  1.0000
