data_image0
_chemical_formula_structural       FeS2FeS2FeSFeS3FeS2FeS2Fe2S2H6CS2FeS2FeS2FeHFeS3FeS2FeSHFeSFeS3HCHCHSC2HCH2CSCHNC2HSCH7SHC7H4C6H4C6H4C2H3CH3CH3NHCSC8H4C2HC3HC2HC6H4C3HC7H4CHFe2HCNHC2H4NC4H14SCSHSCH2NH2FeHCH2SH3CH3CH3NCNHNCHCH2FeH3CHSHCH2C2HC2H2NC4H14C2H6C2H2CHCNSC2H4CSH6C2NH3CHC3SH4CH3CH2FeH5NH3CH3C2HC2H2C2HCHNHCH3CH2CH6NH4C2H2C3H2CH2CHCHC2HC4HC2H2C2H3C2HSC3H3CHS2CHCH2CH3CFeC3H4CSHCHCHSHNSHSHCFeH3CH2NSHSHC2H6CSCHCH3CH2C2HC2NSHCH5CH3SH6CH2SH2SC2H2SH2CH3C3FeCH2C2H2FeS2FeSHCH2FeS2FeS2FeHFeS3FeS2FeS2FeHFeHS2CS2H5S2H2SHSCH2CSHNHC3H2CH2SHC2H4C4H2CS2HCHNH4NCFeSFeCH2CHSHCSH2CH2C4H3CHC6H4FeH2C4NH2C2H3CHCH2C6H5NC6H5CHCH3CH2CHCH2FeCSFeH2CH2C2H6CH7FeH3CNC3H7CH2C3H3C2H4SC2H2FeC2HC3FeH3CHNCHCHC3HCH2NCH5CH2CFeHSH3CNH4C2HSHSCHFeH2CFeHSHCHCHC2SHS2HCHCHCFeCHS3C2FeH6CHCHCHCHCSHCHCSH2C2HFeCH2SH6CHCNHSCHSNH2C2HCH3CH2SH4CHSHC2HCH3CH4CH4SHCSNHC2H3SH3NCNSH2CH6CH4SCHC4SH7C2H4SH2CHCH3CH3NH4C2H5C2HCHCH3CH2CSC2SCSCH3C2SH2SH3C2S2HC3H4C3HCH2CHFeS2FeS2FeSFeS3FeS2FeS2FeSFeS3H2CFeS2FeS2FeHFeS4CSCH3FeS2FeS2FeSFeHS2H3C2H7SHCNH2SCH10SHC2HCH2CHC2HCHCSCHC2NHFeS2FeSHC2H2C3HSH3C3SCSH4CH3C3H3CHNH5CH6SHNH3C3NCH2CHFeHC2HCHCH2C5H6CHC2H4C6H4SH3NHCHC2H2C4H6CHCH3SHC3H2CH4C6H4C6H4C6H4C6H6C3SH7CH2FeH3NCH3CHFe2HCH3CNC2H3NH4CH2CSC2H4C2SFeSH2C2H3FeC2H3NC2N2H2CHNH3C2H2CHCSH4C5H5CH3CHCH7CHC2HNHCH2CH2CHCHCHCH2C2H2CHSH8N2C4HSCH2CHSNSHFeSHFeS2FeSFeS3FeHSFeNSHCFeSHSHSCHSCFeSHS2HFeHFe2CSCSFeSHSFeCS2H3SCSCHSH4CSH3CNHSH2S2NHC3H2NHCH3CHCNCNHCHCFeH5CH2C2H2CH3C2HCHC2H2FeC3HSH5FeNCHSHNCHFeH2CH8CH3C2NHCHCHNHNCH4FeCH4CH2C2FeHCNCH3CHCH2SHCH3SH4C4HC6H5C2FeHCS2CSHCH5C6H4C7H3C3HC2H4C6HSH2C2H2S2H2C2H3CH4CSHFeH3CHSH6SH2CH6CH2CH2SHFeHFeHSHC3HCH2CHSFeS2FeS2FeSFeS4FeSHFeS2FeSFeS3FeS2FeS2FeSFeS5FeS2HCHSHCSH2CNHSH2SFeSCH2SH2CFeS2FeSFeS3HC6H4C6H6C3HSH3C6H4CNCH5CFeH2SHSCHC2HC3SH4C3SC6H4C6H4C6H4C6H4CSCH2C6H4CFeHNFeHC3H5NC4H13CSHNH3NH3C3H2CHCSC4HNH2C4HCHCH2CH3C2HCHSCH2CH3FeH2NC4H12CNC3H2CH6NC2NC4H12NC4H2CH4FeHSHCH2CHC3H3SHCHCHC2HC2HFeHCHC2SHCSH5CH2FeH2CH3C2HCH3S2H2SH2CH2C5H2SH2CH2FeC3H5CHSH3SH2NSH3CSHFeHSFeCH3C2FeSHCH2C2H3NCSHCH3FeCFeHS2H2C3HSCHCH2Fe2CSHC2H3SCFeCHC2H2FeH2NHSH4FeCHCHNCNHSHCSHSHCH3CSCSCH2CHS2FeSH4CHFeH4NSHC3H2CH2CH2CH2C2HC2HNH6FeH2FeHC2SCHSHCH2FeH3C3HCH2CHCSH3NCHCHCNHC2H3CH5CSCH2CH3C2HCSH5FeSC2HSH3SH2FeH2FeHC3HSCFeSHFeCHFeCHC4NH3CHCHCH2CH8SFeS2FeS2FeSFeS3FeS2FeS2FeSFeS3FeS2FeS2FeSFeS3HSFeHSFeS2FeS2FeSFeS3HNSH2FeHC2H2SHCHFeCH2FeHC2HSHCHFeH3CSH2C7H4C2SC2HC6SH3CFeH2C2HCH5CHC7H5FeHC6H4C6H5C3H3C4HFeH3C6H4CHFeCHCFeC6H4CHC6HCH3C2H2C2HNH4CH2CSH10FeCHCH2SH6S2C2H3C2H2CHC3HNC4H15CHC2HSCSH5SNC4H13SHCH5SHNCH2CHCSNCH2NHC2H4CHCH4NH9C2NHSNC2H6NC5HFeCHCH2CH2C2H3NH6SCH2NHFeSH4CSHC2HCHCH4CH2C2H2CH2N2H2SCH3C3HCSC3H2CHCH4FeH5C2H4SHNCNH2CH5C3H2CH2CH7SCH3CSHN2HC2HCH6CS2CHCHCH4SCH6NFeHCHCH3SNH5SH3CHNSHCHCH3CFeS2FeS2FeSFeS3FeS2FeS2FeSFeS3HFeHFeH2C2FeS2FeS2FeSFeS3HCFeSHCHSFeS2FeSFeS3CH2CHFeSH2CSHFeS2FeS2FeSFeS3HSHCSCFeSFeCHC6H5CHC5H4C2SCHC2HCH4SHCSC2HCHNHC2H2CHC6H4C6H4NCHCH2C6H4C6H4FeHC3H2CH2CH6C7H4C3H2CH4C6H4C6H4CH3CSH3C4H2CH2CH3SC7H4CHCH6CHSC2HFeNCHFeCH2FeSNC4H12NC4H10SNH2CH4C3H4CHCH3SNC4H12NC4H12N2FeNHC2H5SC2H3NHCH3SFeCH2C3H3CH2CH2SCHC2HC3H2NSH3FeS2CH4SH2SCHCHS2CH4C3HNHCH2C2HSCHCFeH2CHFeNH5C3NSHC3H4CHCHCH2C2HCH2FeCS2CHSH2NH2C2H3CSFeH2CH2FeCSCSHC2H2SH2CSFeHNHCH2C2H2CHSHCHCFeCH2SHCH6FeCS2CH2SC3H2SH2CH6SH2CH4SFeC2H2SCHCSH3NCH2C2SHSH2SH3CFeC2HFeHCFeHSH5CHCHFeCSHFeC2H2CNHC4SCNH2SH3CHSH2SH4CH4FeCH2NHCH3NC2H2CSHFeHCH11CFeSHFeS2FeSFeS4HS2HFeS2FeSFeS3FeHSFeS2HSFeS3H2CH5SH2SHFeSHNFeS2FeS2FeHFeHS2CHCHFeH3C6H5CFeHFeH2NSFe2SH3CNHSHCHC4HCH2C6H4C6H4C3HC7H4C6H4C6H5C2H4C2HNH2SH3FeH2CHSHCNH2CH5SNSH4NCFeHSCSCH2CHCHCH3S2CH3CHFeCH2FeNSC2HFeH2CH2CHCHCHC2HSCH5CH3C3H2C2NCH7NH2SH2SH2FeHCH2SH2SCSH2SFeH6CSC2H2CHCH5FeCHSHC2HCH2FeH3C3HCH4CHCFeS2FeS2FeSFeS3CH2CHC2HCFeNFeS2FeS2FeSFeS3FeS2FeS2FeSFeS3FeS3H4FeS2HCHC2HFeS2FeSFeSCS2HSCH3FeHSC2H2C6H3C2H2CHFeHCHCNCHCFeH3SH5C2FeH2C6H4C4HCH4CH3CH2CHC7H4C6H6CH3CH2SC6H4CH5CH3C2SC5H2C3SCH3NCH5S2HC2H3NC2H2C2HCH3CHNH2CFeHCHCH2CH3SH2NHCH2NHCH4C3HCHCH6SH2C3HFeCH3CH6SCH3C3H2CHCHFeHSCH3SH3NSHCHCH4CNSHCH2CNCSNFeH2CH2CFeCHC2H3C3H5NC4H16CH2C2HCHC4H2SH2CH2CH2CSHCHCSH4CH4C2H2S2HSCH2C2HCHCHNH2SCHC3HCH2CNC2HCH5SFeS2FeS2FeSFeHS2HSCFeSHFeSFeSH2FeHS2CHCFeS2H2Fe2SFeS3FeHSH2SH3CSHSHFeSH2CHFeSFe2S2FeSFeCSC2H2Fe2SCFeS2FeSCFeSFeS3C6H4CH3CHSHCSHCHSH6CHC6H6SCHC2HC2HNSCH3SHC7H3C6H2CHC2HCSHSCFeHC6HSH2FeHC3H4SC6H4C2SC2H4CH2C2H2CHFeH3FeSHSC6H4C6H4CSC4H4C3HCNC3H8NC4H4SH4C2NC2H6FeSHCH4SHSFeHSHFeH5S2HNH4CSH2CHSC4H2CHCHSH2SHN2C4H9CH2FeCHC3H2Fe2SCH2C2H4CHNHCHNC2S2HC2H2C2Fe2H2SHSC2SH3NCFeHCSCH2CHNH7S2CHNH5CH3C2HC2SH5SC2HNHCH3C2H6FeCH3CSHCFeHC2H3CSH4CHNCNH3SFeCH6SFeH5CH2C2HCH2FeCHCH5C2FeSHFeSH4CHSCH4FeS2H3FeHCFeSNH2CHCFeHSFeS2FeSHNS2FeSC2H2FeSH2CHCHSHNHSFeH2FeCH2FeH2SH7CHCHSHCHFeH2C3SFeC3H2CH2SCHSCFe2H5C4HCH4C3HCHC3FeCH3C6H4C6H2CH3C4H4NSHSH4CS2HC3H3CH2C2HNCHCHCH2C2SH3S2CNCHS2C2HC2H2CH2C2HCS2CFeHC2H2CSHCHNH2FeSFeHC2HSH4SH3CH4FeHSCH2FeH2CH3CH2C2H2C3HSHCHSC3S2FeHSCSFeCHFeHNHCH2SH2CHSFeSHSCHFeSNHSH6CSHSCH5CHC2SFe2H2FeS2FeS2FeNFeS3H2FeS2H2FeS2HC2FeCSFeSHFeS3CH2C8H4CH3SH3CHC4HSH2NHC6H4C6H3CH3CSNSCH6NHCHFeSC3FeH6SCH3C7H3SHCSH2CS2C6H5C3HCHSHC4FeH4CHCHCSC3HCFe2H2C2FeCH2C2SCFeH2SHCFeCH2CH6NHC2HCH5FeHCNC2H6C2H10CH6CHNFeCH2CFeH2SHSHSHCHNC4H12CH3CSHNSHC2SH2SHFeHCSH4S2HFeHCHCSH5SH2C2FeCHCHC2H2FeC2SHFeSC3SFeHFeH4CH2C2SH3S2HFeNH2CH2C3H3CHC2FeSH2CNSC2H4CHSHC2H4NSHCH2C2NCHFeHCFe2CHSFeNH3SC2HCS3C3H5CH2CH3CSH2FeCHCH3CH3SHNCHCH2CH2FeSCNSHCH5SHCHC3H3C2FeHC3HCHCNHSCH2FeHCH2CHC2H6C2H2NH4CHC2HCHCH5SH7CH2CH2CS2CHSH2CSNCHCHC3HCHSCH3FeH6CFeH6C2H3S2H3CHCSCNHFeS2CH2FeS2FeS2FeSFeS2FeS2FeS2FeSFeS3H2CHFeS2FeS2FeSFeS3FeS2FeS2FeSFeS3CFeCSCHSHCFeCH4SH2CHCH2CH6C4H2CH2NH3C2H2C6H4C6H4C6H7C3HCH4C6H5CFeH2SH2C7H4C6H4C6H4C4HSH4C5NH2C2HC6H6NCH2CHCH4CHSH3CH3CNH5CSH4SHCH2SC2HCFeNHCNH5CHNC4H13C4NH3CHCH2SCHCH6NC4H12NSCNSCSHNCH4SFeSHC2H5C3H2C4NC3H11CH2CH6C3NC4H12CHCSH2SH7CH2NC4H6CH2C2HC5H2C2HCH7SC2SH2CHSH2CH5CH3CH5CH2CH6CHSCHCH2CSH4NSH4C4HCH3CHSHC3HCNCH4CH2C3HC2H4SH2CHC2NSH2CH2C4H2C2H6C3H2CH7SH3SH3CFeS2FeSHFeSFeS3FeSCFeS2FeSFeCS2FeS2FeS2FeHFeS3FeS2FeS2FeHFeS3FeS2Fe2S2CHSH5CH3C2FeH4SH3NH6CHC3H2C6H4NHCH5CHC6H4C6H4C2H5C6H4C6H4C6H6SH2C2H2C2HSHC5H6FeH2CHNCH2CHCNCH4CNCHC2H8CH3NCH3C2H6CH3CHCH2CH2SCHSHCH2CNHCSH4CNHNCH2FeHSH2C2H5C4HCH2C2HCHSHNFeS2FeS2FeSFeS3FeS2FeS2FeHFeS3FeS2FeS2FeHFeS3FeS2FeS2FeHFeS3HFeS2HFe2CSCSC6H4C6H4C4H3CHCH6C6H6FeH2C6H4C6H4C6H6C4NH6SHNSC2H6CH3CSHCH4SNCSC2H2CH2CH5CNC4H13C2H2NHC2H2SH2CH5NCH2FeHC3HC2SH9S2CH2FeCHCH4SC2HNC4H2CH3C2HSHCNH2C2HC2FeHCH3SHC2HCHCHSH2NC2HCH6CH4CHCHCHC2HSNC2H2CH5NH3C2H4C4SH2CHCHCHC2NCH5CFeH3SH2C2H2CH3CH2CH5CH3CH3NSH2C4HCH2C2HCH2CH4C3HC2HC2HCH7NH2SCH3CH8SHCNH2CHCH2C2H3C2SHCSHSH2CHCH6NHCH3CHCH2CHNSHSH2CNSFeH2SCH4CSCH5CH2CH3FeHS3CH3CHS2H3CHSCFeC2FeCSHSHSC2HCHSHCHCHCHC4NFeHNFeCH4CHCSH2FeC2H7C2HCHCNH2SCHC2SH4CHCNC2H3SH3CNSHCFeCSCFeCHCHSHCHC5HSH5S2CHCSCSHSHC2HC3FeHSHSHFeH3SHCHSC2HFeCFeHSC2HC2HCFe3CH3S2HSHCH3FeHSC2HSFeH2SH7Fe3HCHCSH6NH2SCHCSC2HSHFeH7NFeH2CHCH2FeHSNSHSC2FeC3H3CHNHC2H3CH3SHC3SHSH2CH2C2HCH2C2HCH4SC3HCHCSH2CHC2HCH4SCH2FeC2H3CFeHCHCSNH3CHCSH3CH7CFeCS2HSC2NCHFeS2CH4SH3FeNSH4C2FeS2FeS2FeSFeS3FeS2FeS2FeSFeS3FeSFeCS2CHCS2HCFeS3FeSH2SFe2SFeS2FeCH2FeNC2H3SCFeS2FeS2FeSFeS3HSFeS2FeSH2SHFeS2FeS2FeSFeS4HFeS2FeS2FeSFeS3FeS2FeS2FeSFeS5HCSH2CH11C2SFeHC2H2CFeH5CH2C7H6C6HCH2C2H2C2H4C6H4C6H5C2H2C6H4C6H6FeC2H5C6H4SHCHC3H3CHC2H3SH3C6H6CH2C6H4C6H4C6H4C6H4C6H4C6H5CH2CHCSNHC6H7C2HC7H4C2H5CHC2HNH3FeH4CSCSHFeNHCH2NCH3SHCH2CHNC4H12NC4H12FeNC3H6NC4H9NC4H12FeHCSH2CH6SH2C3H8C2HFeCSNC4H2FeHCH4CH2SH6C3NHSCH3SH5FeHCSH11C2H3SH3FeH2CSNCNH2CH2C3HC2H2NH4NH2C3H5CH5SCHFeHC2HNH2FeHCSH2NHFeSCH3CH2SC4HNC2H4CHCH4C2HCH4CH3CH2CHCSCHCHCH3NC2HCHCSH2CHNCHCH3CH2FeC2H3CH3C2H4CNC3H3C2H6CSH4CNFeCHFeH6CFeH3CH2C2HCH3S2CH2CS2HFeSC2HNSFeS2FeSFeS3FeS2FeS2FeSFeS3FeS2FeS2FeSFeS3FeS2FeSCFeSFeS4H2FeS2FeHSFeSCH2S2FeS2FeH6S2FeS2HCH3FeS2FeS2FeS2FeSFeS3FeS2FeS2FeSFeS3Fe2S2FeSFeHS2HCHFeHSCHCHCH2FeSHFeS2FeSFeS3FeS2FeS2FeSFeS3H4SH2FeH3SCH6C6H2CHC6H5CNH2CH2CH3CH5C2HCSCH4C6H4C6H4C6H4C6H4C6H6SHNH5CHCHNH3CH2S2H3C3SHCH3C3HCHCHC6H4C6H4C6H4C6H4C6H4C6H4C6H4C6H4C6H4C6H4CNFeH3SHFeH2CHCFeCHCH2SC2HSC2HCHCH3CNHCH2C2HCH2NC4H14CFeHC3HCHSHC2NC3H11NSHC2H3NC4H10NC4H12NC4H12C2HCSHFeHCH2CHCH2CNC4H12CH2CSNCH3NCSCHSHCH2C2SCFeH4FeCH2CH5C2HSH2CNC2H3CH4CNH7NCHC2HCHCH6CH3NH3CH3FeSCSHNH2C2H2CHN2H2NCH7CH2C3H2CH3CHCH4CHC2SH2SH3FeCHCHCH4CHCNCH2CH4CHC2H2CH4FeH3CH3CH2CH5NHCH4CHCH2CH3CHCSH5C2HCFeC2SHSC2SC2FeS2FeS2FeHFeHS2FeS2FeS2FeSFeS3FeHSCHCFeCS2CSH3S2FeS2FeS2CH2S2FeS2FeS2FeSFeS3FeS2FeS2FeSFeS3H6SH2C2FeS2FeS2FeSFeS3FeS2FeSFeSFeS3HSHSFeS2FeS2FeSFe2S2FeS2FeSHCSNC7H4C6H4C6H2SH3C6H4C6H4C6H4C6H4FeC3HCHCH10CH2SHCHNH2C6H4C6H4C6H4C7H4C6H4C2H2CHCH4C6H4C6H6CH4C6H4C6H6Fe2SH2C2HC6H4NHFeHSFeCH2SH2NHCNC4H13C2HSH3S2H2C2SCSFeH3C2NH3CH2CH3NH3CH4NSC2HFeH2NH2C2H4S2H7FeCNC2H6SCH2CH3SH2CH6CFeCHCH2CSHNCH2C2SC2HCHCHN2H2NC5H2CH3CSH7CH2CH3SFe2H5C2H3FeHNCH4SC2H4CFeH3FeH2CNH2CSFeHCHNCNHCH3CNC3FeHC3HFeSHC2H2Fe2CHSCH9CH5CSCHCH3FeSH6CH2SHC2HCHCH2CNH2CH4CSCHNFeHC3H3SCH3NH2CH7FeH3CH2SHCHNC2HCNSH4CH4CH2CSFeH4CHSHC2HSH2SH2C2H4CH3CHFeHN2CH3CH2NCHC3H5CHCHSHSC2H2CHFeH2CHCHCH2SHCFeHCHCH3CH4S2CHC2FeH2C2HCHS2H5CH2SCH2CFeH2C2H2C2H3C2HCH2C2HSHSHC2NCHFe2C2FeHCH6C2SCHCH2CSH2C2HCHNFeHSHC2NHCH5C3H6C3HSC3H4CHSHCHCHCH4CH2CH2NHCHC2H6CH2CH4FeS2FeS2FeSFeS3FeS2FeHSHFeSHS2HSH3CNHFeSHSH2S2HFeSHFeS2FeSFeS3CSHFeS2FeSFeHSHFeS2FeS2FeSFeS3FeS2FeS2FeSFeS3FeSHFeS2FeS2FeSFeS3FeS2FeS2FeSFeS3C6H4C6H4C6H4C6H4C6H4C6H4C6H4C6H4C6H5C2H2SH4C6H2C6H4C6H5SH3C2H2CHSHCH9C6H4C2H2C3H3C6H6C6H4C6H3NC2H8CH6NC4H13CH3CHCH4NC4H12NC4H12NC4H13FeCH2FeHCSCHCNC4H10CHNH3CH2C2H3CH2CH2C2HCHNCH4CSHCH2CH3SHCFeC3H6CHC2HSH2NHNHCH2NFeHCHCHCHSFeNSH4C2H2FeH3SFeH8SH2SHCHCHNC3H3CNC2H3CNSFeSFeHCHCH7FeNCHCSH2CHCH3CSH3C2FeH3CH2CH2SCH2CH2CH3CHSH2C2H4C2H2SFeCH4CFeHCH4CSCHCSNC2H3SH5C2H4SHCH2CHNHCHCN2H3SCSH2SCHCHC2H2FeSH2SHCH2FeHFeHFeHSFeSH2CHNCSFeHC2HC4H2C2S2C3SH3CH2CHC2HSC2FeC3SH2CH2CH5SFeSCHNH3NH2C2H4NH5CH2NFeS2FeS2FeSFeS3FeS2FeS2FeSFeS3HSHFeS2FeS2FeSFeS3FeS2FeS2FeSFeS3FeS2FeS2FeSFeS3FeS2FeS2FeSFeS3HFeS2HFeSFeSHNH3CHCH12CH3C5H2C2HC6H4C2H6C8H4C6H4C6H4C6H4C6H4NHC3NH4C6H4C6H4C6H4C3H2CH2CHC3HNCH4C6H4C6H4FeHC3SH2C2S2HC3HFeH4NC4H15SH2SC2H3CH2C2NHCNCH4FeH3FeHNC4H15CFeH6CS2H3NC5H2SHCHCH2C2H3CH3CH2CH2CH2FeC3H2C3H2NH2CHCH8C2HC2HSHCS2CSHCHCHCHNCHCH2SNH3C2H10CHCH4CSNH2CH2CH2SHC2SHCHC3HSNFeSHNH2CHCH4C2SHCHCNHCHC5HCH4CH11SCH2C2H2CHSNFeCH2CHNCFeSCFeH2S2FeCH7C4HCHFeHCSH2SH2CH2CHFeS2HFeNCHCHSHCH4CH4SH7CHSFeSCNH4C2FeHCHSCHNCH2CHSH3CSHCHC3HCHCH3SH2SHFeSH2CHC2H2CSC2FeHCSH3FeCFeSHC3HFe2H3CH3CHSC2SCH3CS3H3SFeH4NH3CSFeH3SH4SH2C3HCHCHC2HCHC2NH4SHC2HSCHCHFeSFeC2SH2C2HC2H2CH8CHC2H5SH2CHCHCHC2HCHNHCHCH2SHNHCH2
_chemical_formula_sum              "Fe768 S1536 H6144 C3840 N384"
_cell_length_a       131.19
_cell_length_b       129.508
_cell_length_c       129.347
_cell_angle_alpha    73.7951
_cell_angle_beta     73.7923
_cell_angle_gamma    73.7655

_space_group_name_H-M_alt    "P 1"
_space_group_IT_number       1

loop_
  _space_group_symop_operation_xyz
  'x, y, z'

loop_
  _atom_site_type_symbol
  _atom_site_label
  _atom_site_symmetry_multiplicity
  _atom_site_fract_x
  _atom_site_fract_y
  _atom_site_fract_z
  _atom_site_occupancy
  Fe  Fe1       1.0  0.06547  0.02661  0.45476  1.0000
  S   S1        1.0  0.04997  0.02636  0.45098  1.0000
  S   S2        1.0  0.07078  0.01653  0.47014  1.0000
  Fe  Fe2       1.0  0.07132  0.04389  0.43435  1.0000
  S   S3        1.0  0.05609  0.04540  0.42864  1.0000
  S   S4        1.0  0.08350  0.05430  0.42449  1.0000
  Fe  Fe3       1.0  0.04754  0.04483  0.44645  1.0000
  S   S5        1.0  0.03187  0.05458  0.45507  1.0000
  Fe  Fe4       1.0  0.05974  0.02687  0.43373  1.0000
  S   S6        1.0  0.06031  0.01467  0.42408  1.0000
  S   S7        1.0  0.06246  0.04494  0.45165  1.0000
  S   S8        1.0  0.07561  0.02549  0.43795  1.0000
  Fe  Fe5       1.0  0.08220  0.05525  0.49631  1.0000
  S   S9        1.0  0.06458  0.05946  0.50469  1.0000
  S   S10       1.0  0.08990  0.05153  0.47959  1.0000
  Fe  Fe6       1.0  0.09044  0.05551  0.51597  1.0000
  S   S11       1.0  0.07357  0.06010  0.52613  1.0000
  S   S12       1.0  0.10607  0.04847  0.52194  1.0000
  Fe  Fe7       1.0  0.06970  0.04755  0.51969  1.0000
  Fe  Fe8       1.0  0.06974  0.07172  0.51041  1.0000
  S   S13       1.0  0.08674  0.04222  0.51064  1.0000
  S   S14       1.0  0.08714  0.06827  0.50086  1.0000
  H   H1        1.0  0.09772  0.03441  0.54442  1.0000
  H   H2        1.0  0.11177  0.02294  0.53277  1.0000
  H   H3        1.0  0.04586  0.11056  0.50595  1.0000
  H   H4        1.0  0.23648  0.03240  0.50462  1.0000
  H   H5        1.0  0.09990  0.99273  0.50826  1.0000
  H   H6        1.0  0.18624  0.99548  0.56397  1.0000
  C   C1        1.0  0.00363  0.17768  0.48119  1.0000
  S   S15       1.0  0.22157  0.04972  0.43577  1.0000
  S   S16       1.0  0.99624  0.25317  0.51499  1.0000
  Fe  Fe9       1.0  0.14358  0.04157  0.43238  1.0000
  S   S17       1.0  0.13537  0.04757  0.44799  1.0000
  S   S18       1.0  0.13448  0.03961  0.42082  1.0000
  Fe  Fe10      1.0  0.16653  0.03699  0.43636  1.0000
  S   S19       1.0  0.16004  0.04254  0.45214  1.0000
  S   S20       1.0  0.18449  0.02884  0.43264  1.0000
  Fe  Fe11      1.0  0.14718  0.03332  0.45545  1.0000
  H   H7        1.0  0.20105  0.99650  0.50227  1.0000
  Fe  Fe12      1.0  0.14897  0.05644  0.44339  1.0000
  S   S21       1.0  0.14654  0.07184  0.44928  1.0000
  S   S22       1.0  0.15435  0.02642  0.44037  1.0000
  S   S23       1.0  0.15644  0.05174  0.42695  1.0000
  Fe  Fe13      1.0  0.17821  0.05902  0.49206  1.0000
  S   S24       1.0  0.17268  0.07380  0.49956  1.0000
  S   S25       1.0  0.18483  0.05946  0.47408  1.0000
  Fe  Fe14      1.0  0.17309  0.04307  0.51392  1.0000
  S   S26       1.0  0.16688  0.05644  0.52342  1.0000
  H   H8        1.0  0.00127  0.31341  0.46567  1.0000
  Fe  Fe15      1.0  0.15871  0.06588  0.50940  1.0000
  S   S27       1.0  0.14173  0.07639  0.51131  1.0000
  Fe  Fe16      1.0  0.18140  0.06305  0.51276  1.0000
  S   S28       1.0  0.19155  0.06831  0.52097  1.0000
  S   S29       1.0  0.16364  0.05190  0.50077  1.0000
  S   S30       1.0  0.18821  0.04893  0.50435  1.0000
  H   H9        1.0  0.00587  0.13637  0.47180  1.0000
  C   C2        1.0  0.99163  0.26355  0.44162  1.0000
  H   H10       1.0  0.16825  0.99717  0.42133  1.0000
  C   C3        1.0  0.00425  0.19634  0.48065  1.0000
  H   H11       1.0  0.17724  0.99723  0.43600  1.0000
  S   S31       1.0  0.99814  0.11667  0.44768  1.0000
  C   C4        1.0  0.99964  0.13238  0.47755  1.0000
  C   C5        1.0  0.01563  0.14039  0.54780  1.0000
  H   H12       1.0  0.16488  0.01192  0.41823  1.0000
  C   C6        1.0  0.11337  0.02467  0.41173  1.0000
  H   H13       1.0  0.01079  0.10645  0.48482  1.0000
  H   H14       1.0  0.00722  0.20390  0.47574  1.0000
  C   C7        1.0  0.20446  0.00068  0.47073  1.0000
  S   S32       1.0  0.13618  0.99196  0.52985  1.0000
  C   C8        1.0  0.00119  0.31188  0.47436  1.0000
  H   H15       1.0  0.13425  0.03523  0.49105  1.0000
  N   N1        1.0  0.09576  0.01998  0.54068  1.0000
  C   C9        1.0  0.12949  0.04287  0.49397  1.0000
  C   C10       1.0  0.14898  0.08406  0.53230  1.0000
  H   H16       1.0  0.03391  0.11701  0.54242  1.0000
  S   S33       1.0  0.99684  0.22655  0.45704  1.0000
  C   C11       1.0  0.99160  0.17300  0.52963  1.0000
  H   H17       1.0  0.99170  0.27080  0.48312  1.0000
  H   H18       1.0  0.99458  0.17990  0.48305  1.0000
  H   H19       1.0  0.15557  0.09031  0.51019  1.0000
  H   H20       1.0  0.22334  0.02497  0.47036  1.0000
  H   H21       1.0  0.02527  0.10201  0.48337  1.0000
  H   H22       1.0  0.16912  0.08409  0.53349  1.0000
  H   H23       1.0  0.99419  0.16618  0.51546  1.0000
  S   S34       1.0  0.11824  0.99318  0.44648  1.0000
  H   H24       1.0  0.08859  0.00694  0.51838  1.0000
  C   C12       1.0  0.01198  0.25894  0.48369  1.0000
  C   C13       1.0  0.20535  0.06745  0.51433  1.0000
  C   C14       1.0  0.21315  0.06501  0.52068  1.0000
  C   C15       1.0  0.22427  0.06362  0.51563  1.0000
  C   C16       1.0  0.22762  0.06493  0.50418  1.0000
  C   C17       1.0  0.21978  0.06789  0.49777  1.0000
  C   C18       1.0  0.20867  0.06894  0.50284  1.0000
  H   H25       1.0  0.21061  0.06394  0.52955  1.0000
  H   H26       1.0  0.23026  0.06147  0.52063  1.0000
  H   H27       1.0  0.22233  0.06903  0.48889  1.0000
  H   H28       1.0  0.20268  0.07096  0.49789  1.0000
  C   C19       1.0  0.15735  0.06984  0.45564  1.0000
  C   C20       1.0  0.15535  0.07203  0.46612  1.0000
  C   C21       1.0  0.16382  0.06907  0.47177  1.0000
  C   C22       1.0  0.17434  0.06415  0.46683  1.0000
  C   C23       1.0  0.17639  0.06234  0.45621  1.0000
  C   C24       1.0  0.16791  0.06511  0.45065  1.0000
  H   H29       1.0  0.14721  0.07574  0.46999  1.0000
  H   H30       1.0  0.16220  0.07060  0.47995  1.0000
  H   H31       1.0  0.18450  0.05858  0.45236  1.0000
  H   H32       1.0  0.16949  0.06350  0.44252  1.0000
  C   C25       1.0  0.21078  0.04353  0.43671  1.0000
  C   C26       1.0  0.20075  0.05034  0.43492  1.0000
  C   C27       1.0  0.19240  0.04585  0.43428  1.0000
  C   C28       1.0  0.19406  0.03451  0.43527  1.0000
  C   C29       1.0  0.20393  0.02763  0.43750  1.0000
  C   C30       1.0  0.21221  0.03210  0.43836  1.0000
  H   H33       1.0  0.19953  0.05918  0.43368  1.0000
  H   H34       1.0  0.18485  0.05123  0.43250  1.0000
  H   H35       1.0  0.20530  0.01883  0.43828  1.0000
  H   H36       1.0  0.21981  0.02671  0.43989  1.0000
  C   C31       1.0  0.11789  0.00487  0.41782  1.0000
  C   C32       1.0  0.99603  0.12457  0.47465  1.0000
  H   H37       1.0  0.12117  0.00381  0.40918  1.0000
  H   H38       1.0  0.22985  0.02301  0.56071  1.0000
  H   H39       1.0  0.15813  0.00089  0.47588  1.0000
  C   C33       1.0  0.99088  0.26384  0.52231  1.0000
  H   H40       1.0  0.15494  0.03399  0.51511  1.0000
  H   H41       1.0  0.00059  0.30641  0.50556  1.0000
  H   H42       1.0  0.21817  0.01598  0.52625  1.0000
  C   C34       1.0  0.00086  0.29938  0.49222  1.0000
  H   H43       1.0  0.10151  0.00889  0.43530  1.0000
  H   H44       1.0  0.01688  0.09203  0.48757  1.0000
  H   H45       1.0  0.09231  0.01189  0.55781  1.0000
  N   N2        1.0  0.12499  0.05135  0.48508  1.0000
  H   H46       1.0  0.02480  0.11325  0.49642  1.0000
  C   C35       1.0  0.17988  0.00475  0.43056  1.0000
  S   S35       1.0  0.06062  0.08958  0.50752  1.0000
  C   C36       1.0  0.00559  0.24539  0.47901  1.0000
  C   C37       1.0  0.05231  0.99546  0.39294  1.0000
  C   C38       1.0  0.11582  0.05645  0.51873  1.0000
  C   C39       1.0  0.12645  0.05113  0.51987  1.0000
  C   C40       1.0  0.13446  0.05722  0.51744  1.0000
  C   C41       1.0  0.13182  0.06869  0.51401  1.0000
  C   C42       1.0  0.12118  0.07403  0.51285  1.0000
  C   C43       1.0  0.11319  0.06791  0.51514  1.0000
  H   H47       1.0  0.12851  0.04226  0.52266  1.0000
  H   H48       1.0  0.14260  0.05305  0.51847  1.0000
  H   H49       1.0  0.11912  0.08291  0.51020  1.0000
  H   H50       1.0  0.10498  0.07206  0.51429  1.0000
  C   C44       1.0  0.02382  0.06599  0.44766  1.0000
  C   C45       1.0  0.01561  0.07315  0.45349  1.0000
  H   H51       1.0  0.12291  0.04049  0.50113  1.0000
  C   C46       1.0  0.01020  0.08403  0.43651  1.0000
  C   C47       1.0  0.01837  0.07683  0.43066  1.0000
  C   C48       1.0  0.02524  0.06788  0.43621  1.0000
  H   H52       1.0  0.01446  0.07174  0.46235  1.0000
  C   C49       1.0  0.99184  0.18388  0.51096  1.0000
  C   C50       1.0  0.02897  0.12556  0.54057  1.0000
  H   H53       1.0  0.03152  0.06237  0.43165  1.0000
  C   C51       1.0  0.09757  0.05021  0.42433  1.0000
  C   C52       1.0  0.10466  0.05493  0.41510  1.0000
  C   C53       1.0  0.11591  0.05194  0.41435  1.0000
  C   C54       1.0  0.12024  0.04450  0.42302  1.0000
  C   C55       1.0  0.11316  0.03998  0.43249  1.0000
  C   C56       1.0  0.10182  0.04276  0.43311  1.0000
  H   H54       1.0  0.10146  0.06075  0.40832  1.0000
  H   H55       1.0  0.12131  0.05533  0.40695  1.0000
  H   H56       1.0  0.11646  0.03406  0.43915  1.0000
  H   H57       1.0  0.09643  0.03907  0.44033  1.0000
  C   C57       1.0  0.05118  0.00588  0.43016  1.0000
  C   C58       1.0  0.04008  0.00998  0.43393  1.0000
  C   C59       1.0  0.22048  0.03306  0.46498  1.0000
  H   H58       1.0  0.03703  0.01871  0.43366  1.0000
  C   C60       1.0  0.11788  0.04693  0.48114  1.0000
  C   C61       1.0  0.07660  0.02528  0.47371  1.0000
  C   C62       1.0  0.07031  0.03181  0.48119  1.0000
  C   C63       1.0  0.07455  0.03958  0.48336  1.0000
  C   C64       1.0  0.08503  0.04098  0.47786  1.0000
  C   C65       1.0  0.09139  0.03439  0.47043  1.0000
  C   C66       1.0  0.08716  0.02655  0.46833  1.0000
  H   H59       1.0  0.06208  0.03100  0.48512  1.0000
  H   H60       1.0  0.06956  0.04472  0.48902  1.0000
  H   H61       1.0  0.09954  0.03542  0.46619  1.0000
  H   H62       1.0  0.09202  0.02158  0.46245  1.0000
  C   C67       1.0  0.03670  0.99159  0.43748  1.0000
  H   H63       1.0  0.03227  0.02751  0.50130  1.0000
  Fe  Fe17      1.0  0.22156  0.99689  0.50604  1.0000
  Fe  Fe18      1.0  0.22296  0.99222  0.52987  1.0000
  H   H64       1.0  0.21300  0.03746  0.50185  1.0000
  C   C68       1.0  0.02968  0.12940  0.55753  1.0000
  N   N3        1.0  0.18166  0.99500  0.54944  1.0000
  H   H65       1.0  0.10568  0.01483  0.55269  1.0000
  C   C69       1.0  0.15220  0.10162  0.53200  1.0000
  C   C70       1.0  0.15308  0.09690  0.51494  1.0000
  H   H66       1.0  0.14338  0.10553  0.53280  1.0000
  H   H67       1.0  0.15685  0.10815  0.52755  1.0000
  H   H68       1.0  0.14424  0.10035  0.51524  1.0000
  H   H69       1.0  0.15756  0.10347  0.51009  1.0000
  N   N4        1.0  0.17567  0.02779  0.47725  1.0000
  C   C71       1.0  0.18147  0.02396  0.48637  1.0000
  C   C72       1.0  0.18316  0.03178  0.46691  1.0000
  C   C73       1.0  0.16623  0.03678  0.47984  1.0000
  C   C74       1.0  0.17183  0.01858  0.47602  1.0000
  H   H70       1.0  0.17626  0.02037  0.49415  1.0000
  H   H71       1.0  0.18395  0.03083  0.48794  1.0000
  H   H72       1.0  0.18886  0.01747  0.48458  1.0000
  H   H73       1.0  0.17921  0.03453  0.45976  1.0000
  H   H74       1.0  0.18595  0.03894  0.46742  1.0000
  H   H75       1.0  0.19046  0.02520  0.46490  1.0000
  H   H76       1.0  0.16077  0.03411  0.48789  1.0000
  H   H77       1.0  0.16122  0.03954  0.47356  1.0000
  H   H78       1.0  0.16884  0.04409  0.48024  1.0000
  H   H79       1.0  0.16750  0.02117  0.46914  1.0000
  H   H80       1.0  0.16601  0.01548  0.48361  1.0000
  H   H81       1.0  0.17869  0.01152  0.47432  1.0000
  H   H82       1.0  0.13643  0.01747  0.45684  1.0000
  H   H83       1.0  0.16965  0.08068  0.52087  1.0000
  S   S36       1.0  0.14322  0.02417  0.47282  1.0000
  C   C75       1.0  0.03772  0.03931  0.48056  1.0000
  S   S37       1.0  0.98864  0.14923  0.43384  1.0000
  H   H84       1.0  0.05649  0.03853  0.51079  1.0000
  S   S38       1.0  0.06253  0.03372  0.53167  1.0000
  C   C76       1.0  0.09223  0.01230  0.49604  1.0000
  H   H85       1.0  0.99609  0.19333  0.46509  1.0000
  H   H86       1.0  0.04663  0.01957  0.47446  1.0000
  N   N5        1.0  0.22087  0.03131  0.51550  1.0000
  H   H87       1.0  0.23628  0.01974  0.51467  1.0000
  H   H88       1.0  0.99977  0.24386  0.47506  1.0000
  Fe  Fe19      1.0  0.99148  0.10782  0.43929  1.0000
  H   H89       1.0  0.22635  0.02877  0.53041  1.0000
  C   C77       1.0  0.09140  0.03120  0.54283  1.0000
  H   H90       1.0  0.19792  0.99469  0.41802  1.0000
  H   H91       1.0  0.21618  0.01015  0.46905  1.0000
  S   S39       1.0  0.17549  0.02496  0.52150  1.0000
  H   H92       1.0  0.00623  0.17430  0.48919  1.0000
  H   H93       1.0  0.14315  0.99269  0.48825  1.0000
  H   H94       1.0  0.09865  0.02358  0.43072  1.0000
  C   C78       1.0  0.02029  0.18409  0.47276  1.0000
  H   H95       1.0  0.11099  0.04455  0.48790  1.0000
  H   H96       1.0  0.21242  0.01974  0.51435  1.0000
  H   H97       1.0  0.15134  0.07697  0.52823  1.0000
  C   C79       1.0  0.21522  0.04048  0.50799  1.0000
  H   H98       1.0  0.01943  0.07821  0.42182  1.0000
  H   H99       1.0  0.03116  0.04694  0.48031  1.0000
  H   H100      1.0  0.08439  0.03139  0.55004  1.0000
  N   N6        1.0  0.15533  0.09254  0.52612  1.0000
  C   C80       1.0  0.01524  0.12149  0.55707  1.0000
  N   N7        1.0  0.21646  0.04194  0.47115  1.0000
  H   H101      1.0  0.14010  0.08738  0.53276  1.0000
  N   N8        1.0  0.00831  0.18729  0.47464  1.0000
  C   C81       1.0  0.22273  0.03554  0.52417  1.0000
  H   H102      1.0  0.14476  0.02662  0.50637  1.0000
  C   C82       1.0  0.19582  0.99313  0.48944  1.0000
  H   H103      1.0  0.09323  0.02141  0.41471  1.0000
  H   H104      1.0  0.11689  0.00190  0.49425  1.0000
  Fe  Fe20      1.0  0.99358  0.14637  0.53145  1.0000
  H   H105      1.0  0.01544  0.11184  0.50959  1.0000
  H   H106      1.0  0.02360  0.17726  0.46827  1.0000
  H   H107      1.0  0.22045  0.04642  0.50340  1.0000
  C   C83       1.0  0.01734  0.10018  0.48846  1.0000
  H   H108      1.0  0.06017  0.00024  0.44912  1.0000
  S   S40       1.0  0.98972  0.20626  0.50509  1.0000
  H   H109      1.0  0.02401  0.09168  0.51358  1.0000
  C   C84       1.0  0.02486  0.09188  0.50472  1.0000
  H   H110      1.0  0.01393  0.24171  0.47485  1.0000
  H   H111      1.0  0.22741  0.03478  0.45807  1.0000
  C   C85       1.0  0.03224  0.10901  0.51980  1.0000
  C   C86       1.0  0.23222  0.02886  0.41562  1.0000
  H   H112      1.0  0.02371  0.12551  0.53518  1.0000
  C   C87       1.0  0.99457  0.24078  0.45114  1.0000
  C   C88       1.0  0.19722  0.99444  0.47807  1.0000
  H   H113      1.0  0.02055  0.25570  0.47975  1.0000
  H   H114      1.0  0.20537  0.00190  0.46192  1.0000
  N   N9        1.0  0.08216  0.07041  0.44881  1.0000
  C   C89       1.0  0.08356  0.05835  0.45265  1.0000
  C   C90       1.0  0.08252  0.07513  0.45784  1.0000
  C   C91       1.0  0.07156  0.07509  0.44559  1.0000
  C   C92       1.0  0.09103  0.07298  0.43920  1.0000
  H   H115      1.0  0.09165  0.05448  0.45474  1.0000
  H   H116      1.0  0.08292  0.05452  0.44626  1.0000
  H   H117      1.0  0.07723  0.05612  0.46011  1.0000
  H   H118      1.0  0.08140  0.08425  0.45535  1.0000
  H   H119      1.0  0.07607  0.07315  0.46531  1.0000
  H   H120      1.0  0.09044  0.07171  0.46043  1.0000
  H   H121      1.0  0.07019  0.08420  0.44264  1.0000
  H   H122      1.0  0.06470  0.07320  0.45263  1.0000
  H   H123      1.0  0.07109  0.07161  0.43879  1.0000
  H   H124      1.0  0.09043  0.08202  0.43628  1.0000
  H   H125      1.0  0.09077  0.06981  0.43213  1.0000
  H   H126      1.0  0.09918  0.06916  0.44119  1.0000
  H   H127      1.0  0.09002  0.00775  0.53699  1.0000
  H   H128      1.0  0.06140  0.99761  0.47297  1.0000
  C   C93       1.0  0.13209  0.01419  0.46500  1.0000
  C   C94       1.0  0.99538  0.13476  0.48801  1.0000
  H   H129      1.0  0.01107  0.26786  0.48331  1.0000
  H   H130      1.0  0.21744  0.01188  0.56023  1.0000
  H   H131      1.0  0.20333  0.04649  0.48430  1.0000
  H   H132      1.0  0.22842  0.04122  0.52063  1.0000
  H   H133      1.0  0.01052  0.14347  0.55525  1.0000
  H   H134      1.0  0.10272  0.01315  0.40555  1.0000
  C   C95       1.0  0.02701  0.02827  0.49559  1.0000
  C   C96       1.0  0.23143  0.02622  0.50915  1.0000
  H   H135      1.0  0.21217  0.04338  0.40193  1.0000
  H   H136      1.0  0.15028  0.08073  0.54085  1.0000
  C   C97       1.0  0.21408  0.02306  0.52064  1.0000
  H   H137      1.0  0.15381  0.09861  0.54046  1.0000
  C   C98       1.0  0.21048  0.00546  0.47476  1.0000
  N   N10       1.0  0.02238  0.12921  0.55074  1.0000
  S   S41       1.0  0.99967  0.29074  0.47585  1.0000
  C   C99       1.0  0.00087  0.30794  0.49683  1.0000
  C   C100      1.0  0.99302  0.26181  0.48373  1.0000
  H   H138      1.0  0.00611  0.17088  0.47668  1.0000
  H   H139      1.0  0.99203  0.29048  0.51982  1.0000
  H   H140      1.0  0.05127  0.99395  0.46856  1.0000
  H   H141      1.0  0.16816  0.99586  0.50916  1.0000
  C   C101      1.0  0.22925  0.02655  0.39891  1.0000
  S   S42       1.0  0.98970  0.27764  0.43499  1.0000
  H   H142      1.0  0.21408  0.03222  0.46135  1.0000
  H   H143      1.0  0.21145  0.03268  0.41424  1.0000
  H   H144      1.0  0.17218  0.09364  0.52057  1.0000
  H   H145      1.0  0.07973  0.01666  0.54489  1.0000
  H   H146      1.0  0.11172  0.01650  0.43356  1.0000
  H   H147      1.0  0.98973  0.14351  0.45691  1.0000
  C   C102      1.0  0.99008  0.19355  0.51466  1.0000
  C   C103      1.0  0.16705  0.08756  0.52525  1.0000
  N   N11       1.0  0.22767  0.03453  0.40575  1.0000
  H   H148      1.0  0.18700  0.01500  0.40303  1.0000
  H   H149      1.0  0.03518  0.13517  0.55300  1.0000
  H   H150      1.0  0.10874  0.01173  0.52939  1.0000
  C   C104      1.0  0.00090  0.24459  0.44083  1.0000
  H   H151      1.0  0.02068  0.14647  0.54291  1.0000
  C   C105      1.0  0.21340  0.05260  0.46355  1.0000
  C   C106      1.0  0.21592  0.03920  0.40916  1.0000
  C   C107      1.0  0.05503  0.99461  0.43047  1.0000
  S   S43       1.0  0.21816  0.99921  0.54501  1.0000
  H   H152      1.0  0.10264  0.00377  0.54910  1.0000
  H   H153      1.0  0.09935  0.01225  0.49910  1.0000
  H   H154      1.0  0.23230  0.04959  0.40439  1.0000
  H   H155      1.0  0.00683  0.19397  0.48865  1.0000
  C   C108      1.0  0.06819  0.99689  0.45146  1.0000
  H   H156      1.0  0.02303  0.18125  0.48070  1.0000
  H   H157      1.0  0.04305  0.03990  0.47214  1.0000
  H   H158      1.0  0.05379  0.00212  0.39587  1.0000
  C   C109      1.0  0.23189  0.01850  0.55425  1.0000
  H   H159      1.0  0.02019  0.03554  0.49660  1.0000
  H   H160      1.0  0.09523  0.01029  0.48775  1.0000
  Fe  Fe21      1.0  0.99662  0.13824  0.51106  1.0000
  H   H161      1.0  0.03025  0.03120  0.46800  1.0000
  H   H162      1.0  0.17353  0.99474  0.53724  1.0000
  H   H163      1.0  0.04269  0.03937  0.48623  1.0000
  H   H164      1.0  0.02356  0.02075  0.49848  1.0000
  H   H165      1.0  0.13897  0.04720  0.47234  1.0000
  N   N12       1.0  0.03323  0.02930  0.48403  1.0000
  H   H166      1.0  0.18738  0.00533  0.43260  1.0000
  H   H167      1.0  0.22506  0.01968  0.40359  1.0000
  H   H168      1.0  0.11431  0.05309  0.47444  1.0000
  C   C110      1.0  0.04799  0.09411  0.51606  1.0000
  H   H169      1.0  0.00061  0.29128  0.49738  1.0000
  H   H170      1.0  0.20039  0.03886  0.47632  1.0000
  H   H171      1.0  0.02257  0.02258  0.47903  1.0000
  C   C111      1.0  0.15796  0.02576  0.51364  1.0000
  C   C112      1.0  0.02593  0.03010  0.47682  1.0000
  H   H172      1.0  0.13091  0.06083  0.46900  1.0000
  C   C113      1.0  0.13399  0.05441  0.47585  1.0000
  C   C114      1.0  0.05545  0.03033  0.51513  1.0000
  H   H173      1.0  0.12243  0.03948  0.47782  1.0000
  H   H174      1.0  0.04776  0.07862  0.52777  1.0000
  C   C115      1.0  0.04235  0.10508  0.51323  1.0000
  C   C116      1.0  0.04224  0.01951  0.48314  1.0000
  H   H175      1.0  0.01898  0.03735  0.47738  1.0000
  C   C117      1.0  0.04346  0.08708  0.52552  1.0000
  H   H176      1.0  0.22051  0.05471  0.45697  1.0000
  N   N13       1.0  0.10910  0.01488  0.41845  1.0000
  H   H177      1.0  0.16547  0.00290  0.54695  1.0000
  C   C118      1.0  0.05760  0.02605  0.52566  1.0000
  H   H178      1.0  0.00699  0.23877  0.43648  1.0000
  H   H179      1.0  0.21501  0.04010  0.52867  1.0000
  H   H180      1.0  0.99861  0.10435  0.50336  1.0000
  C   C119      1.0  0.16753  0.01923  0.51677  1.0000
  H   H181      1.0  0.17280  0.00326  0.56261  1.0000
  H   H182      1.0  0.23103  0.99705  0.43744  1.0000
  C   C120      1.0  0.15217  0.02157  0.50877  1.0000
  H   H183      1.0  0.07112  0.01323  0.49809  1.0000
  H   H184      1.0  0.03305  0.09350  0.50029  1.0000
  H   H185      1.0  0.22822  0.02197  0.42065  1.0000
  H   H186      1.0  0.04840  0.01917  0.48770  1.0000
  H   H187      1.0  0.11499  0.06775  0.48298  1.0000
  H   H188      1.0  0.05014  0.02745  0.50215  1.0000
  N   N14       1.0  0.00423  0.25729  0.47822  1.0000
  H   H189      1.0  0.03930  0.01170  0.48656  1.0000
  H   H190      1.0  0.12390  0.00547  0.45910  1.0000
  H   H191      1.0  0.03488  0.12108  0.55988  1.0000
  H   H192      1.0  0.07714  0.01650  0.51356  1.0000
  C   C121      1.0  0.05183  0.02404  0.51024  1.0000
  C   C122      1.0  0.13370  0.01651  0.47428  1.0000
  H   H193      1.0  0.08733  0.02089  0.49489  1.0000
  H   H194      1.0  0.01061  0.25474  0.49259  1.0000
  C   C123      1.0  0.22490  0.01218  0.55400  1.0000
  C   C124      1.0  0.00632  0.26304  0.46647  1.0000
  C   C125      1.0  0.99262  0.17361  0.51842  1.0000
  H   H195      1.0  0.07619  0.00258  0.52033  1.0000
  H   H196      1.0  0.00417  0.24079  0.48777  1.0000
  C   C126      1.0  0.11859  0.06120  0.48942  1.0000
  H   H197      1.0  0.07126  0.99921  0.50496  1.0000
  H   H198      1.0  0.11180  0.05914  0.49646  1.0000
  C   C127      1.0  0.09924  0.01230  0.55052  1.0000
  H   H199      1.0  0.10694  0.03238  0.41202  1.0000
  C   C128      1.0  0.18552  0.01470  0.41199  1.0000
  H   H200      1.0  0.20889  0.03190  0.48597  1.0000
  C   C129      1.0  0.20685  0.03967  0.47986  1.0000
  C   C130      1.0  0.08719  0.01635  0.53815  1.0000
  H   H201      1.0  0.20712  0.05242  0.45934  1.0000
  C   C131      1.0  0.15585  0.01081  0.50715  1.0000
  C   C132      1.0  0.03337  0.09104  0.53214  1.0000
  C   C133      1.0  0.00888  0.08221  0.44793  1.0000
  C   C134      1.0  0.17112  0.00836  0.51537  1.0000
  H   H202      1.0  0.00997  0.14050  0.54276  1.0000
  C   C135      1.0  0.20939  0.00381  0.48613  1.0000
  C   C136      1.0  0.19000  0.99479  0.41634  1.0000
  H   H203      1.0  0.23116  0.03461  0.42099  1.0000
  H   H204      1.0  0.20763  0.04507  0.51263  1.0000
  C   C137      1.0  0.05626  0.01537  0.53123  1.0000
  C   C138      1.0  0.05068  0.01330  0.51567  1.0000
  H   H205      1.0  0.13496  0.04590  0.49709  1.0000
  H   H206      1.0  0.02801  0.11748  0.51754  1.0000
  H   H207      1.0  0.08472  0.02168  0.53049  1.0000
  C   C139      1.0  0.17173  0.99519  0.54604  1.0000
  C   C140      1.0  0.99409  0.27392  0.51789  1.0000
  H   H208      1.0  0.99133  0.25787  0.49266  1.0000
  S   S44       1.0  0.14884  0.00584  0.50060  1.0000
  C   C141      1.0  0.03282  0.00285  0.43745  1.0000
  C   C142      1.0  0.08173  0.00779  0.51450  1.0000
  C   C143      1.0  0.12500  0.00738  0.46627  1.0000
  H   H209      1.0  0.08845  0.03710  0.53563  1.0000
  H   H210      1.0  0.00420  0.09806  0.51540  1.0000
  H   H211      1.0  0.12373  0.06476  0.49244  1.0000
  C   C144      1.0  0.23332  0.04350  0.39935  1.0000
  H   H212      1.0  0.12015  0.02562  0.41477  1.0000
  S   S45       1.0  0.00151  0.09507  0.42946  1.0000
  S   S46       1.0  0.00842  0.13793  0.52081  1.0000
  C   C145      1.0  0.02770  0.10198  0.52925  1.0000
  H   H213      1.0  0.01044  0.11794  0.49724  1.0000
  C   C146      1.0  0.17890  0.99558  0.56117  1.0000
  H   H214      1.0  0.23030  0.02242  0.50293  1.0000
  H   H215      1.0  0.13954  0.05775  0.47854  1.0000
  C   C147      1.0  0.10519  0.02008  0.53120  1.0000
  H   H216      1.0  0.02993  0.08557  0.53948  1.0000
  H   H217      1.0  0.99946  0.12262  0.46664  1.0000
  H   H218      1.0  0.05794  0.01201  0.53939  1.0000
  C   C148      1.0  0.20207  0.99764  0.49347  1.0000
  Fe  Fe22      1.0  0.00361  0.12222  0.53103  1.0000
  C   C149      1.0  0.23410  0.99830  0.41996  1.0000
  C   C150      1.0  0.16525  0.00414  0.51056  1.0000
  C   C151      1.0  0.11943  0.00305  0.47681  1.0000
  H   H219      1.0  0.19152  0.99440  0.40754  1.0000
  H   H220      1.0  0.02418  0.00610  0.43992  1.0000
  H   H221      1.0  0.00426  0.25873  0.42803  1.0000
  H   H222      1.0  0.17863  0.00335  0.51757  1.0000
  C   C152      1.0  0.05294  0.00893  0.52617  1.0000
  S   S47       1.0  0.01500  0.10662  0.53765  1.0000
  H   H223      1.0  0.07919  0.00249  0.49114  1.0000
  C   C153      1.0  0.16012  0.99429  0.47118  1.0000
  H   H224      1.0  0.00947  0.12133  0.55227  1.0000
  C   C154      1.0  0.22507  0.04237  0.47626  1.0000
  H   H225      1.0  0.00262  0.08771  0.45251  1.0000
  S   S48       1.0  0.98973  0.13068  0.54265  1.0000
  H   H226      1.0  0.05968  0.99282  0.38667  1.0000
  N   N15       1.0  0.18169  0.00470  0.41879  1.0000
  S   S49       1.0  0.04662  0.00560  0.50890  1.0000
  H   H227      1.0  0.12480  0.00518  0.42107  1.0000
  S   S50       1.0  0.20972  0.99257  0.52187  1.0000
  H   H228      1.0  0.09530  0.99029  0.49749  1.0000
  C   C155      1.0  0.99937  0.25590  0.43606  1.0000
  Fe  Fe23      1.0  0.98845  0.29664  0.46419  1.0000
  H   H229      1.0  0.03460  0.13107  0.53565  1.0000
  H   H230      1.0  0.01469  0.25981  0.46203  1.0000
  H   H231      1.0  0.00055  0.26207  0.46211  1.0000
  C   C156      1.0  0.17136  0.00461  0.41634  1.0000
  H   H232      1.0  0.00014  0.27487  0.51027  1.0000
  H   H233      1.0  0.19325  0.01505  0.41377  1.0000
  N   N16       1.0  0.01610  0.10035  0.50014  1.0000
  S   S51       1.0  0.21725  0.00932  0.49120  1.0000
  H   H234      1.0  0.23010  0.04802  0.39185  1.0000
  S   S52       1.0  0.23397  0.99837  0.51395  1.0000
  H   H235      1.0  0.02498  0.13213  0.56528  1.0000
  C   C157      1.0  0.22748  0.00635  0.54566  1.0000
  C   C158      1.0  0.04021  0.99005  0.41032  1.0000
  H   H236      1.0  0.05202  0.00066  0.53043  1.0000
  H   H237      1.0  0.11492  0.99732  0.42273  1.0000
  H   H238      1.0  0.00820  0.19848  0.45880  1.0000
  H   H239      1.0  0.17352  0.01197  0.43273  1.0000
  H   H240      1.0  0.17237  0.00462  0.40750  1.0000
  H   H241      1.0  0.01031  0.12383  0.56492  1.0000
  C   C159      1.0  0.10509  0.01598  0.43003  1.0000
  S   S53       1.0  0.22130  0.99632  0.42033  1.0000
  C   C160      1.0  0.10004  0.01401  0.41427  1.0000
  H   H242      1.0  0.08098  0.99021  0.46601  1.0000
  C   C161      1.0  0.00507  0.19107  0.46391  1.0000
  H   H243      1.0  0.99520  0.19875  0.48256  1.0000
  H   H244      1.0  0.22594  0.03051  0.39136  1.0000
  H   H245      1.0  0.12919  0.01416  0.49197  1.0000
  C   C162      1.0  0.12795  0.01237  0.48479  1.0000
  H   H246      1.0  0.04137  0.99663  0.41360  1.0000
  H   H247      1.0  0.02477  0.08349  0.50415  1.0000
  C   C163      1.0  0.12086  0.00557  0.48606  1.0000
  C   C164      1.0  0.07644  0.00485  0.49929  1.0000
  H   H248      1.0  0.21444  0.04541  0.41418  1.0000
  C   C165      1.0  0.00541  0.09804  0.50653  1.0000
  C   C166      1.0  0.98843  0.11895  0.48234  1.0000
  N   N17       1.0  0.08574  0.00453  0.50378  1.0000
  S   S54       1.0  0.00103  0.14288  0.49262  1.0000
  H   H249      1.0  0.00801  0.18451  0.45908  1.0000
  C   C167      1.0  0.01674  0.11132  0.50087  1.0000
  H   H250      1.0  0.11652  0.02415  0.40293  1.0000
  H   H251      1.0  0.10288  0.02576  0.52360  1.0000
  H   H252      1.0  0.09663  0.00670  0.41923  1.0000
  H   H253      1.0  0.20993  0.05947  0.46797  1.0000
  H   H254      1.0  0.22764  0.03435  0.48192  1.0000
  C   C168      1.0  0.00072  0.30140  0.48108  1.0000
  H   H255      1.0  0.18049  0.01248  0.54363  1.0000
  H   H256      1.0  0.02001  0.11288  0.55908  1.0000
  H   H257      1.0  0.17947  0.02232  0.41375  1.0000
  S   S55       1.0  0.99290  0.12175  0.52049  1.0000
  H   H258      1.0  0.20610  0.02664  0.52559  1.0000
  H   H259      1.0  0.00456  0.08988  0.50607  1.0000
  H   H260      1.0  0.22228  0.04897  0.48102  1.0000
  H   H261      1.0  0.02405  0.19115  0.46777  1.0000
  H   H262      1.0  0.23247  0.04402  0.46993  1.0000
  H   H263      1.0  0.16897  0.99298  0.46735  1.0000
  C   C169      1.0  0.23669  0.99851  0.42965  1.0000
  H   H264      1.0  0.08353  0.99261  0.53639  1.0000
  H   H265      1.0  0.04539  0.99915  0.38872  1.0000
  S   S56       1.0  0.99272  0.30248  0.44581  1.0000
  H   H266      1.0  0.00541  0.27204  0.46556  1.0000
  H   H267      1.0  0.99259  0.18433  0.50235  1.0000
  S   S57       1.0  0.11121  0.99392  0.47855  1.0000
  C   C170      1.0  0.09252  0.99321  0.50532  1.0000
  C   C171      1.0  0.18630  0.00452  0.54260  1.0000
  H   H268      1.0  0.18821  0.00447  0.53367  1.0000
  H   H269      1.0  0.07053  0.00371  0.45329  1.0000
  S   S58       1.0  0.99294  0.16017  0.53902  1.0000
  H   H270      1.0  0.98875  0.18229  0.54202  1.0000
  H   H271      1.0  0.19397  0.00451  0.54474  1.0000
  C   C172      1.0  0.00108  0.31848  0.49023  1.0000
  H   H272      1.0  0.06358  0.99146  0.42759  1.0000
  H   H273      1.0  0.15554  0.99755  0.46446  1.0000
  H   H274      1.0  0.07424  0.99450  0.44409  1.0000
  C   C173      1.0  0.05947  0.99091  0.47052  1.0000
  C   C174      1.0  0.00167  0.32036  0.47890  1.0000
  C   C175      1.0  0.98961  0.18269  0.53336  1.0000
  Fe  Fe24      1.0  0.14366  0.99104  0.51230  1.0000
  C   C176      1.0  0.98881  0.19295  0.52589  1.0000
  H   H275      1.0  0.99197  0.31740  0.56130  1.0000
  H   H276      1.0  0.03291  0.99348  0.40667  1.0000
  C   C177      1.0  0.98948  0.28274  0.52328  1.0000
  C   C178      1.0  0.23720  0.00669  0.53770  1.0000
  H   H277      1.0  0.98832  0.29946  0.56111  1.0000
  H   H278      1.0  0.23729  0.99126  0.48019  1.0000
  Fe  Fe25      1.0  0.05860  0.55078  0.03758  1.0000
  S   S59       1.0  0.06959  0.53578  0.04536  1.0000
  S   S60       1.0  0.04637  0.56309  0.04690  1.0000
  Fe  Fe26      1.0  0.06776  0.52817  0.03264  1.0000
  S   S61       1.0  0.06865  0.51004  0.03684  1.0000
  H   H279      1.0  0.14756  0.50051  0.99088  1.0000
  C   C179      1.0  0.14179  0.44785  0.99736  1.0000
  H   H280      1.0  0.99875  0.51938  0.27600  1.0000
  H   H281      1.0  0.03508  0.57775  0.06078  1.0000
  Fe  Fe27      1.0  0.03317  0.48406  0.02501  1.0000
  S   S62       1.0  0.02197  0.47788  0.01919  1.0000
  S   S63       1.0  0.02672  0.49819  0.03349  1.0000
  Fe  Fe28      1.0  0.05317  0.46731  0.01704  1.0000
  S   S64       1.0  0.04360  0.45937  0.01074  1.0000
  S   S65       1.0  0.07139  0.46116  0.01397  1.0000
  Fe  Fe29      1.0  0.03536  0.47673  0.00401  1.0000
  H   H282      1.0  0.02038  0.55597  0.20674  1.0000
  Fe  Fe30      1.0  0.03111  0.46116  0.02651  1.0000
  S   S66       1.0  0.02368  0.44797  0.03942  1.0000
  S   S67       1.0  0.04582  0.48450  0.00928  1.0000
  S   S68       1.0  0.04146  0.46751  0.03333  1.0000
  Fe  Fe31      1.0  0.14078  0.46206  0.04069  1.0000
  S   S69       1.0  0.14793  0.46870  0.02303  1.0000
  S   S70       1.0  0.15097  0.45586  0.05349  1.0000
  Fe  Fe32      1.0  0.11823  0.46514  0.03625  1.0000
  S   S71       1.0  0.12367  0.47194  0.01821  1.0000
  S   S72       1.0  0.10035  0.46570  0.04366  1.0000
  Fe  Fe33      1.0  0.13872  0.45852  0.01934  1.0000
  H   H283      1.0  0.99121  0.49208  0.20205  1.0000
  Fe  Fe34      1.0  0.13232  0.48143  0.02362  1.0000
  H   H284      1.0  0.99101  0.57764  0.08587  1.0000
  S   S73       1.0  0.13260  0.45076  0.03705  1.0000
  S   S74       1.0  0.12590  0.47566  0.04166  1.0000
  C   C180      1.0  0.02122  0.55953  0.07980  1.0000
  S   S75       1.0  0.19921  0.48525  0.02322  1.0000
  S   S76       1.0  0.18556  0.48148  0.05383  1.0000
  H   H285      1.0  0.19579  0.52395  0.02789  1.0000
  H   H286      1.0  0.06373  0.48948  0.03896  1.0000
  H   H287      1.0  0.23701  0.48659  0.04351  1.0000
  H   H288      1.0  0.21720  0.53245  0.98697  1.0000
  H   H289      1.0  0.15129  0.48917  0.02149  1.0000
  S   S77       1.0  0.15877  0.54677  0.02606  1.0000
  S   S78       1.0  0.16903  0.51900  0.01642  1.0000
  H   H290      1.0  0.05840  0.50384  0.00429  1.0000
  H   H291      1.0  0.18284  0.45487  0.04105  1.0000
  S   S79       1.0  0.18444  0.55375  0.02930  1.0000
  H   H292      1.0  0.20000  0.43991  0.02653  1.0000
  S   S80       1.0  0.00340  0.48743  0.26049  1.0000
  C   C181      1.0  0.21568  0.55726  0.02002  1.0000
  H   H293      1.0  0.20748  0.49231  0.98777  1.0000
  H   H294      1.0  0.99626  0.53948  0.25097  1.0000
  C   C182      1.0  0.14079  0.50493  0.01689  1.0000
  S   S81       1.0  0.13310  0.56831  0.01549  1.0000
  H   H295      1.0  0.99906  0.55825  0.07470  1.0000
  N   N18       1.0  0.99097  0.48961  0.21925  1.0000
  H   H296      1.0  0.05746  0.56135  0.06790  1.0000
  C   C183      1.0  0.06232  0.53991  0.99384  1.0000
  C   C184      1.0  0.99687  0.56668  0.06957  1.0000
  C   C185      1.0  0.99711  0.45555  0.22481  1.0000
  H   H297      1.0  0.15212  0.48904  0.00122  1.0000
  H   H298      1.0  0.17663  0.46339  0.02990  1.0000
  C   C186      1.0  0.19221  0.43747  0.03132  1.0000
  H   H299      1.0  0.19013  0.51416  0.02504  1.0000
  H   H300      1.0  0.00316  0.51026  0.13925  1.0000
  S   S82       1.0  0.08213  0.53304  0.02006  1.0000
  H   H301      1.0  0.99618  0.48316  0.15344  1.0000
  C   C187      1.0  0.18335  0.45632  0.03204  1.0000
  C   C188      1.0  0.17257  0.44290  0.03544  1.0000
  H   H302      1.0  0.08729  0.55153  0.05774  1.0000
  H   H303      1.0  0.18826  0.53032  0.04536  1.0000
  H   H304      1.0  0.17756  0.52467  0.05558  1.0000
  H   H305      1.0  0.08099  0.50151  0.01763  1.0000
  C   C189      1.0  0.00333  0.49383  0.27085  1.0000
  C   C190      1.0  0.99799  0.48473  0.07329  1.0000
  C   C191      1.0  0.99415  0.46796  0.04688  1.0000
  C   C192      1.0  0.00121  0.50535  0.26895  1.0000
  H   H306      1.0  0.21702  0.48330  0.99568  1.0000
  H   H307      1.0  0.16310  0.52700  0.99513  1.0000
  C   C193      1.0  0.18818  0.52102  0.02939  1.0000
  S   S83       1.0  0.99175  0.54070  0.09388  1.0000
  S   S84       1.0  0.09921  0.53776  0.03737  1.0000
  H   H308      1.0  0.00598  0.50320  0.12820  1.0000
  C   C194      1.0  0.12227  0.51439  0.99068  1.0000
  H   H309      1.0  0.02750  0.46338  0.99130  1.0000
  N   N19       1.0  0.18359  0.51754  0.04128  1.0000
  H   H310      1.0  0.99404  0.48682  0.10980  1.0000
  H   H311      1.0  0.22324  0.55305  0.02254  1.0000
  H   H312      1.0  0.99155  0.49177  0.07588  1.0000
  H   H313      1.0  0.00008  0.51031  0.26095  1.0000
  N   N20       1.0  0.07547  0.49925  0.00441  1.0000
  C   C195      1.0  0.00061  0.48939  0.14766  1.0000
  Fe  Fe35      1.0  0.17092  0.55749  0.99516  1.0000
  S   S85       1.0  0.07256  0.55753  0.02543  1.0000
  Fe  Fe36      1.0  0.16584  0.53736  0.01270  1.0000
  C   C196      1.0  0.06390  0.50101  0.01018  1.0000
  H   H314      1.0  0.17208  0.44119  0.04448  1.0000
  H   H315      1.0  0.99676  0.46187  0.30200  1.0000
  C   C197      1.0  0.19624  0.55888  0.02241  1.0000
  H   H316      1.0  0.23081  0.50021  0.99191  1.0000
  S   S86       1.0  0.22752  0.57071  0.00345  1.0000
  H   H317      1.0  0.19050  0.45118  0.01192  1.0000
  C   C198      1.0  0.19180  0.47468  0.00368  1.0000
  S   S87       1.0  0.13035  0.49945  0.01604  1.0000
  H   H318      1.0  0.18231  0.52786  0.02541  1.0000
  H   H319      1.0  0.05486  0.52798  0.99165  1.0000
  C   C199      1.0  0.15900  0.50237  0.01945  1.0000
  H   H320      1.0  0.99829  0.50058  0.20506  1.0000
  H   H321      1.0  0.16725  0.52021  0.03924  1.0000
  C   C200      1.0  0.01365  0.47871  0.05950  1.0000
  C   C201      1.0  0.13281  0.45614  0.99487  1.0000
  C   C202      1.0  0.06026  0.44460  0.04540  1.0000
  C   C203      1.0  0.23229  0.52590  0.01944  1.0000
  H   H322      1.0  0.17530  0.50660  0.03867  1.0000
  H   H323      1.0  0.16528  0.44943  0.03373  1.0000
  H   H324      1.0  0.05953  0.57789  0.05352  1.0000
  C   C204      1.0  0.99727  0.45508  0.06388  1.0000
  H   H325      1.0  0.11321  0.56654  0.99814  1.0000
  C   C205      1.0  0.16028  0.46342  0.05340  1.0000
  C   C206      1.0  0.16692  0.45918  0.06109  1.0000
  C   C207      1.0  0.17471  0.46470  0.06110  1.0000
  C   C208      1.0  0.17603  0.47446  0.05333  1.0000
  C   C209      1.0  0.16941  0.47876  0.04559  1.0000
  C   C210      1.0  0.16148  0.47328  0.04567  1.0000
  H   H326      1.0  0.16600  0.45160  0.06711  1.0000
  H   H327      1.0  0.17969  0.46142  0.06718  1.0000
  H   H328      1.0  0.17028  0.48640  0.03968  1.0000
  H   H329      1.0  0.15631  0.47666  0.03977  1.0000
  Fe  Fe37      1.0  0.21378  0.49206  0.02080  1.0000
  H   H330      1.0  0.02164  0.57636  0.07842  1.0000
  H   H331      1.0  0.17010  0.51056  0.05168  1.0000
  C   C211      1.0  0.15790  0.51378  0.01706  1.0000
  C   C212      1.0  0.14815  0.52081  0.01481  1.0000
  C   C213      1.0  0.13963  0.51636  0.01459  1.0000
  C   C214      1.0  0.03343  0.55112  0.06479  1.0000
  N   N21       1.0  0.99319  0.49866  0.14198  1.0000
  H   H332      1.0  0.14720  0.52964  0.01312  1.0000
  H   H333      1.0  0.13213  0.52174  0.01272  1.0000
  C   C215      1.0  0.01082  0.45385  0.04668  1.0000
  C   C216      1.0  0.00729  0.44986  0.05805  1.0000
  H   H334      1.0  0.01864  0.56817  0.18835  1.0000
  H   H335      1.0  0.23608  0.48604  0.99102  1.0000
  H   H336      1.0  0.06182  0.50739  0.01514  1.0000
  C   C217      1.0  0.00413  0.46281  0.04113  1.0000
  H   H337      1.0  0.01242  0.44287  0.06238  1.0000
  C   C218      1.0  0.98946  0.55537  0.15731  1.0000
  H   H338      1.0  0.98793  0.54408  0.26930  1.0000
  H   H339      1.0  0.00656  0.46568  0.03233  1.0000
  C   C219      1.0  0.07926  0.46332  0.02189  1.0000
  C   C220      1.0  0.07445  0.46769  0.03130  1.0000
  C   C221      1.0  0.08100  0.46843  0.03792  1.0000
  C   C222      1.0  0.09237  0.46511  0.03498  1.0000
  C   C223      1.0  0.09717  0.46114  0.02535  1.0000
  C   C224      1.0  0.09063  0.46016  0.01888  1.0000
  H   H340      1.0  0.06571  0.47035  0.03359  1.0000
  H   H341      1.0  0.07725  0.47158  0.04534  1.0000
  H   H342      1.0  0.10593  0.45851  0.02304  1.0000
  H   H343      1.0  0.09442  0.45682  0.01158  1.0000
  H   H344      1.0  0.02271  0.54282  0.07874  1.0000
  N   N22       1.0  0.00549  0.56635  0.20256  1.0000
  C   C225      1.0  0.05642  0.50674  0.03762  1.0000
  C   C226      1.0  0.05642  0.49581  0.03821  1.0000
  C   C227      1.0  0.04716  0.49316  0.03723  1.0000
  C   C228      1.0  0.03781  0.50138  0.03591  1.0000
  C   C229      1.0  0.03759  0.51223  0.03597  1.0000
  C   C230      1.0  0.04695  0.51493  0.03673  1.0000
  H   H345      1.0  0.00462  0.49224  0.15255  1.0000
  H   H346      1.0  0.04735  0.48477  0.03735  1.0000
  H   H347      1.0  0.03035  0.51861  0.03497  1.0000
  H   H348      1.0  0.04687  0.52336  0.03644  1.0000
  H   H349      1.0  0.13310  0.54850  0.00341  1.0000
  C   C231      1.0  0.03253  0.57005  0.06467  1.0000
  H   H350      1.0  0.07274  0.49352  0.99151  1.0000
  C   C232      1.0  0.17361  0.51358  0.04281  1.0000
  H   H351      1.0  0.18813  0.47427  0.01233  1.0000
  H   H352      1.0  0.19205  0.42981  0.02911  1.0000
  H   H353      1.0  0.09670  0.56059  0.02527  1.0000
  C   C233      1.0  0.19165  0.50851  0.04631  1.0000
  H   H354      1.0  0.00481  0.50374  0.06638  1.0000
  H   H355      1.0  0.19114  0.45889  0.02776  1.0000
  C   C234      1.0  0.03689  0.56103  0.05966  1.0000
  H   H356      1.0  0.00309  0.57113  0.06936  1.0000
  C   C235      1.0  0.14566  0.43920  0.99178  1.0000
  H   H357      1.0  0.99867  0.55207  0.20690  1.0000
  H   H358      1.0  0.15836  0.47030  0.99770  1.0000
  Fe  Fe38      1.0  0.99441  0.52563  0.10736  1.0000
  C   C236      1.0  0.07778  0.49087  0.99781  1.0000
  S   S88       1.0  0.98852  0.46582  0.15147  1.0000
  Fe  Fe39      1.0  0.98904  0.53795  0.12547  1.0000
  H   H359      1.0  0.08645  0.50882  0.99289  1.0000
  H   H360      1.0  0.18087  0.53195  0.98883  1.0000
  C   C237      1.0  0.00265  0.55750  0.19950  1.0000
  H   H361      1.0  0.99053  0.49091  0.23558  1.0000
  H   H362      1.0  0.12684  0.56830  0.99563  1.0000
  C   C238      1.0  0.20730  0.54866  0.99786  1.0000
  C   C239      1.0  0.20695  0.46902  0.98925  1.0000
  H   H363      1.0  0.99280  0.50099  0.05607  1.0000
  H   H364      1.0  0.05888  0.44448  0.02504  1.0000
  H   H365      1.0  0.00674  0.48760  0.29721  1.0000
  H   H366      1.0  0.07284  0.51276  0.99064  1.0000
  H   H367      1.0  0.04800  0.43923  0.03516  1.0000
  H   H368      1.0  0.18069  0.51265  0.99710  1.0000
  C   C240      1.0  0.99107  0.49679  0.20813  1.0000
  H   H369      1.0  0.06499  0.44330  0.05176  1.0000
  H   H370      1.0  0.06194  0.49329  0.01590  1.0000
  H   H371      1.0  0.99468  0.48780  0.05302  1.0000
  H   H372      1.0  0.00572  0.57689  0.18642  1.0000
  H   H373      1.0  0.99176  0.46872  0.12825  1.0000
  H   H374      1.0  0.99866  0.45220  0.24170  1.0000
  H   H375      1.0  0.00438  0.49624  0.04589  1.0000
  Fe  Fe40      1.0  0.00073  0.54746  0.10196  1.0000
  H   H376      1.0  0.10920  0.50596  0.99884  1.0000
  H   H377      1.0  0.00841  0.48444  0.21649  1.0000
  H   H378      1.0  0.22700  0.48925  0.05564  1.0000
  C   C241      1.0  0.12720  0.54672  0.99977  1.0000
  N   N23       1.0  0.10066  0.50366  0.04182  1.0000
  C   C242      1.0  0.10011  0.50995  0.03048  1.0000
  C   C243      1.0  0.09193  0.50912  0.04985  1.0000
  C   C244      1.0  0.11133  0.50317  0.04389  1.0000
  H   H379      1.0  0.06372  0.55296  0.05801  1.0000
  H   H380      1.0  0.09220  0.51039  0.02863  1.0000
  H   H381      1.0  0.10667  0.50605  0.02426  1.0000
  H   H382      1.0  0.10112  0.51849  0.02924  1.0000
  H   H383      1.0  0.09213  0.50448  0.05846  1.0000
  H   H384      1.0  0.09270  0.51764  0.04916  1.0000
  H   H385      1.0  0.05173  0.42658  0.05271  1.0000
  C   C245      1.0  0.08244  0.49535  0.01256  1.0000
  H   H386      1.0  0.11247  0.51158  0.04317  1.0000
  H   H387      1.0  0.11813  0.49940  0.03780  1.0000
  C   C246      1.0  0.00048  0.51049  0.27746  1.0000
  C   C247      1.0  0.22441  0.51266  0.01600  1.0000
  C   C248      1.0  0.15977  0.47407  0.98870  1.0000
  H   H388      1.0  0.00559  0.45579  0.22138  1.0000
  H   H389      1.0  0.09102  0.49253  0.04210  1.0000
  H   H390      1.0  0.11222  0.49822  0.05226  1.0000
  C   C249      1.0  0.05824  0.53519  0.98770  1.0000
  C   C250      1.0  0.20557  0.57182  0.00800  1.0000
  H   H391      1.0  0.23204  0.53430  0.01945  1.0000
  H   H392      1.0  0.00982  0.47256  0.05837  1.0000
  H   H393      1.0  0.19361  0.50131  0.04248  1.0000
  H   H394      1.0  0.01936  0.48118  0.05155  1.0000
  S   S89       1.0  0.21196  0.46279  0.03842  1.0000
  C   C251      1.0  0.99547  0.57332  0.20783  1.0000
  C   C252      1.0  0.20608  0.55360  0.02571  1.0000
  H   H395      1.0  0.12217  0.53351  0.03531  1.0000
  H   H396      1.0  0.19937  0.51110  0.04518  1.0000
  Fe  Fe41      1.0  0.07027  0.54822  0.01424  1.0000
  C   C253      1.0  0.12113  0.56608  0.99207  1.0000
  C   C254      1.0  0.18095  0.52699  0.04657  1.0000
  H   H397      1.0  0.20632  0.54654  0.03257  1.0000
  C   C255      1.0  0.20219  0.46830  0.00042  1.0000
  C   C256      1.0  0.15349  0.49245  0.99217  1.0000
  C   C257      1.0  0.98853  0.54531  0.25216  1.0000
  Fe  Fe42      1.0  0.08323  0.54172  0.03226  1.0000
  H   H398      1.0  0.15940  0.51874  0.98834  1.0000
  H   H399      1.0  0.10028  0.48709  0.05122  1.0000
  H   H400      1.0  0.08081  0.48755  0.01835  1.0000
  C   C258      1.0  0.07772  0.50975  0.99710  1.0000
  H   H401      1.0  0.03671  0.54411  0.06094  1.0000
  N   N24       1.0  0.12543  0.55500  0.98958  1.0000
  C   C259      1.0  0.21473  0.49185  0.99086  1.0000
  H   H402      1.0  0.06278  0.41780  0.04529  1.0000
  C   C260      1.0  0.21547  0.56636  0.01111  1.0000
  H   H403      1.0  0.07752  0.42569  0.03127  1.0000
  C   C261      1.0  0.02486  0.56928  0.07468  1.0000
  C   C262      1.0  0.99754  0.46260  0.31826  1.0000
  C   C263      1.0  0.18280  0.44888  0.01708  1.0000
  H   H404      1.0  0.23243  0.49459  0.07022  1.0000
  C   C264      1.0  0.12712  0.54872  0.02655  1.0000
  H   H405      1.0  0.18199  0.44164  0.01456  1.0000
  H   H406      1.0  0.13906  0.47944  0.99912  1.0000
  N   N25       1.0  0.00537  0.48835  0.06269  1.0000
  C   C265      1.0  0.99902  0.49358  0.05404  1.0000
  H   H407      1.0  0.99406  0.51388  0.13015  1.0000
  H   H408      1.0  0.05879  0.43017  0.02777  1.0000
  H   H409      1.0  0.06195  0.45209  0.03911  1.0000
  H   H410      1.0  0.07996  0.43121  0.04147  1.0000
  H   H411      1.0  0.11950  0.54658  0.00616  1.0000
  C   C266      1.0  0.01102  0.57317  0.19252  1.0000
  H   H412      1.0  0.08376  0.50973  0.04852  1.0000
  H   H413      1.0  0.18849  0.50558  0.05530  1.0000
  C   C267      1.0  0.11951  0.54202  0.03130  1.0000
  Fe  Fe43      1.0  0.15079  0.55959  0.01326  1.0000
  H   H414      1.0  0.17483  0.53393  0.04293  1.0000
  S   S90       1.0  0.21459  0.48712  0.03863  1.0000
  H   H415      1.0  0.22602  0.55589  0.99038  1.0000
  H   H416      1.0  0.17184  0.43534  0.03348  1.0000
  H   H417      1.0  0.17782  0.48597  0.99831  1.0000
  C   C268      1.0  0.12372  0.55978  0.02156  1.0000
  N   N26       1.0  0.18273  0.44639  0.02896  1.0000
  H   H418      1.0  0.07719  0.44009  0.02876  1.0000
  H   H419      1.0  0.07607  0.48288  0.00312  1.0000
  H   H420      1.0  0.08063  0.57523  0.06136  1.0000
  H   H421      1.0  0.06906  0.55025  0.07006  1.0000
  C   C269      1.0  0.19599  0.56806  0.01359  1.0000
  C   C270      1.0  0.10516  0.55726  0.02564  1.0000
  H   H422      1.0  0.08891  0.56381  0.04729  1.0000
  S   S91       1.0  0.05554  0.54267  0.02576  1.0000
  H   H423      1.0  0.18840  0.57226  0.01107  1.0000
  S   S92       1.0  0.14866  0.44842  0.00695  1.0000
  C   C271      1.0  0.10854  0.54627  0.03086  1.0000
  H   H424      1.0  0.17596  0.45584  0.01494  1.0000
  Fe  Fe44      1.0  0.17312  0.55476  0.01859  1.0000
  H   H425      1.0  0.11009  0.57260  0.01727  1.0000
  H   H426      1.0  0.99694  0.56093  0.19380  1.0000
  C   C272      1.0  0.00245  0.50410  0.28768  1.0000
  Fe  Fe45      1.0  0.20086  0.47904  0.04073  1.0000
  H   H427      1.0  0.20533  0.57891  0.00118  1.0000
  S   S93       1.0  0.16447  0.56871  0.00704  1.0000
  H   H428      1.0  0.19242  0.43544  0.04022  1.0000
  C   C273      1.0  0.11273  0.56404  0.02114  1.0000
  H   H429      1.0  0.21780  0.53009  0.01302  1.0000
  C   C274      1.0  0.14084  0.48316  0.99015  1.0000
  H   H430      1.0  0.99105  0.56841  0.21541  1.0000
  C   C275      1.0  0.06059  0.42523  0.04884  1.0000
  C   C276      1.0  0.02547  0.55040  0.07483  1.0000
  S   S94       1.0  0.15677  0.54936  0.00045  1.0000
  H   H431      1.0  0.16653  0.49694  0.02122  1.0000
  S   S95       1.0  0.00181  0.51035  0.29834  1.0000
  S   S96       1.0  0.18062  0.54440  0.00607  1.0000
  H   H432      1.0  0.10525  0.48830  0.03661  1.0000
  C   C277      1.0  0.09926  0.49242  0.04302  1.0000
  H   H433      1.0  0.13558  0.54535  0.02687  1.0000
  C   C278      1.0  0.22426  0.52355  0.01574  1.0000
  H   H434      1.0  0.15253  0.43272  0.99378  1.0000
  C   C279      1.0  0.15039  0.49796  0.01953  1.0000
  Fe  Fe46      1.0  0.21137  0.46967  0.02065  1.0000
  C   C280      1.0  0.00506  0.48747  0.28115  1.0000
  H   H435      1.0  0.06509  0.42333  0.05552  1.0000
  S   S97       1.0  0.21426  0.50948  0.01182  1.0000
  S   S98       1.0  0.22593  0.47710  0.01627  1.0000
  S   S99       1.0  0.99495  0.46118  0.20338  1.0000
  C   C281      1.0  0.00494  0.49259  0.28943  1.0000
  C   C282      1.0  0.99321  0.45356  0.23630  1.0000
  Fe  Fe47      1.0  0.22571  0.47152  0.03437  1.0000
  H   H436      1.0  0.06215  0.53628  0.00249  1.0000
  H   H437      1.0  0.12972  0.46278  0.99918  1.0000
  H   H438      1.0  0.07574  0.51630  0.00185  1.0000
  H   H439      1.0  0.05144  0.44640  0.04939  1.0000
  H   H440      1.0  0.23265  0.50028  0.04595  1.0000
  H   H441      1.0  0.98929  0.58854  0.06710  1.0000
  C   C283      1.0  0.07498  0.43286  0.03525  1.0000
  H   H442      1.0  0.00117  0.47515  0.22709  1.0000
  C   C284      1.0  0.99941  0.50683  0.13459  1.0000
  H   H443      1.0  0.00879  0.55624  0.21807  1.0000
  C   C285      1.0  0.16407  0.52515  0.98699  1.0000
  H   H444      1.0  0.00996  0.55220  0.19528  1.0000
  C   C286      1.0  0.01279  0.56140  0.21038  1.0000
  H   H445      1.0  0.20376  0.54125  0.00033  1.0000
  C   C287      1.0  0.23461  0.49141  0.05005  1.0000
  S   S100      1.0  0.00482  0.53175  0.11438  1.0000
  H   H446      1.0  0.00708  0.48507  0.14169  1.0000
  C   C288      1.0  0.05694  0.43729  0.03171  1.0000
  H   H447      1.0  0.22711  0.53634  0.99146  1.0000
  C   C289      1.0  0.99010  0.45731  0.21775  1.0000
  S   S101      1.0  0.20944  0.45961  0.01018  1.0000
  H   H448      1.0  0.01514  0.56782  0.21287  1.0000
  H   H449      1.0  0.13049  0.53829  0.99813  1.0000
  C   C290      1.0  0.18600  0.48143  0.99572  1.0000
  C   C291      1.0  0.06547  0.55694  0.06372  1.0000
  H   H450      1.0  0.00248  0.48085  0.08004  1.0000
  Fe  Fe48      1.0  0.99173  0.47620  0.26762  1.0000
  C   C292      1.0  0.08312  0.55839  0.05192  1.0000
  H   H451      1.0  0.00679  0.47856  0.28262  1.0000
  H   H452      1.0  0.08166  0.55464  0.04585  1.0000
  S   S102      1.0  0.99911  0.50807  0.10574  1.0000
  H   H453      1.0  0.99731  0.58004  0.21034  1.0000
  H   H454      1.0  0.13481  0.49111  0.98883  1.0000
  H   H455      1.0  0.21203  0.54794  0.00403  1.0000
  H   H456      1.0  0.07274  0.57946  0.04506  1.0000
  H   H457      1.0  0.98910  0.47495  0.04247  1.0000
  H   H458      1.0  0.07907  0.56300  0.07188  1.0000
  C   C293      1.0  0.06658  0.54933  0.98877  1.0000
  H   H459      1.0  0.12220  0.51705  0.99793  1.0000
  C   C294      1.0  0.06758  0.57338  0.04955  1.0000
  N   N27       1.0  0.07282  0.56454  0.05770  1.0000
  H   H460      1.0  0.06747  0.57415  0.07011  1.0000
  S   S103      1.0  0.07247  0.55503  0.99592  1.0000
  C   C295      1.0  0.07510  0.56946  0.06562  1.0000
  H   H461      1.0  0.06606  0.56999  0.04325  1.0000
  S   S104      1.0  0.01120  0.55968  0.09223  1.0000
  N   N28       1.0  0.06320  0.43498  0.04030  1.0000
  H   H462      1.0  0.99467  0.45213  0.07268  1.0000
  H   H463      1.0  0.17563  0.50488  0.99096  1.0000
  C   C296      1.0  0.01081  0.49638  0.06392  1.0000
  C   C297      1.0  0.99321  0.45998  0.31075  1.0000
  H   H464      1.0  0.23263  0.49574  0.02016  1.0000
  C   C298      1.0  0.00105  0.48091  0.21890  1.0000
  H   H465      1.0  0.10958  0.55238  0.99097  1.0000
  H   H466      1.0  0.99774  0.56582  0.06102  1.0000
  H   H467      1.0  0.09123  0.49374  0.00845  1.0000
  C   C299      1.0  0.99075  0.46422  0.05826  1.0000
  H   H468      1.0  0.99090  0.55341  0.14085  1.0000
  H   H469      1.0  0.01577  0.49269  0.07030  1.0000
  S   S105      1.0  0.98964  0.54728  0.23031  1.0000
  H   H470      1.0  0.20044  0.55595  0.99853  1.0000
  H   H471      1.0  0.00445  0.46646  0.31526  1.0000
  H   H472      1.0  0.01638  0.49936  0.05604  1.0000
  H   H473      1.0  0.99384  0.47858  0.07268  1.0000
  C   C300      1.0  0.23252  0.50414  0.01997  1.0000
  H   H474      1.0  0.01320  0.58002  0.19447  1.0000
  S   S106      1.0  0.99391  0.45773  0.27323  1.0000
  H   H475      1.0  0.98977  0.57720  0.20217  1.0000
  C   C301      1.0  0.98953  0.54958  0.14955  1.0000
  C   C302      1.0  0.11492  0.50813  0.99118  1.0000
  H   H476      1.0  0.99083  0.56366  0.15454  1.0000
  C   C303      1.0  0.18045  0.51124  0.98910  1.0000
  H   H477      1.0  0.00187  0.47597  0.21279  1.0000
  H   H478      1.0  0.08648  0.48919  0.99344  1.0000
  H   H479      1.0  0.99459  0.49041  0.12918  1.0000
  C   C304      1.0  0.98826  0.49456  0.13538  1.0000
  H   H480      1.0  0.01857  0.47451  0.06584  1.0000
  H   H481      1.0  0.98938  0.48535  0.30877  1.0000
  H   H482      1.0  0.21220  0.49747  0.99668  1.0000
  H   H483      1.0  0.99735  0.50031  0.22466  1.0000
  C   C305      1.0  0.99037  0.49619  0.22717  1.0000
  H   H484      1.0  0.16180  0.49413  0.98929  1.0000
  H   H485      1.0  0.98793  0.50718  0.15530  1.0000
  H   H486      1.0  0.21506  0.46423  0.98668  1.0000
  H   H487      1.0  0.23776  0.47520  0.06779  1.0000
  S   S107      1.0  0.99325  0.41956  0.50856  1.0000
  H   H488      1.0  0.00115  0.44658  0.57365  1.0000
  C   C306      1.0  0.99141  0.55364  0.34742  1.0000
  S   S108      1.0  0.98916  0.49704  0.37117  1.0000
  N   N29       1.0  0.99136  0.37478  0.50925  1.0000
  H   H489      1.0  0.01753  0.38626  0.39901  1.0000
  C   C307      1.0  0.99712  0.60303  0.49910  1.0000
  C   C308      1.0  0.99361  0.34576  0.44435  1.0000
  H   H490      1.0  0.00156  0.50853  0.32094  1.0000
  H   H491      1.0  0.00181  0.51150  0.35294  1.0000
  H   H492      1.0  0.01380  0.49454  0.33878  1.0000
  S   S109      1.0  0.99232  0.39411  0.45273  1.0000
  H   H493      1.0  0.99269  0.59329  0.52943  1.0000
  H   H494      1.0  0.00264  0.59383  0.48630  1.0000
  H   H495      1.0  0.00199  0.58433  0.53771  1.0000
  N   N30       1.0  0.00891  0.45626  0.57891  1.0000
  C   C309      1.0  0.99430  0.37851  0.49714  1.0000
  N   N31       1.0  0.00730  0.38974  0.41436  1.0000
  S   S110      1.0  0.99887  0.32951  0.49650  1.0000
  H   H496      1.0  0.00740  0.37251  0.42116  1.0000
  H   H497      1.0  0.99760  0.53896  0.63032  1.0000
  C   C310      1.0  0.98825  0.55012  0.33115  1.0000
  H   H498      1.0  0.00069  0.41540  0.48646  1.0000
  H   H499      1.0  0.00136  0.37841  0.40932  1.0000
  H   H500      1.0  0.00270  0.44173  0.58772  1.0000
  H   H501      1.0  0.01220  0.39876  0.42316  1.0000
  H   H502      1.0  0.00086  0.45525  0.63176  1.0000
  H   H503      1.0  0.01400  0.46514  0.58771  1.0000
  C   C311      1.0  0.99276  0.46054  0.32958  1.0000
  H   H504      1.0  0.00048  0.39331  0.43036  1.0000
  H   H505      1.0  0.02366  0.38027  0.41077  1.0000
  H   H506      1.0  0.99711  0.53313  0.61938  1.0000
  H   H507      1.0  0.99280  0.40703  0.47617  1.0000
  S   S111      1.0  0.99590  0.47149  0.61273  1.0000
  C   C312      1.0  0.00851  0.39155  0.42470  1.0000
  H   H508      1.0  0.00993  0.45268  0.59596  1.0000
  C   C313      1.0  0.00237  0.38010  0.41690  1.0000
  C   C314      1.0  0.99313  0.35528  0.54336  1.0000
  C   C315      1.0  0.99704  0.60093  0.48907  1.0000
  C   C316      1.0  0.01812  0.38767  0.40691  1.0000
  S   S112      1.0  0.99550  0.40613  0.54015  1.0000
  H   H509      1.0  0.99805  0.43503  0.40756  1.0000
  H   H510      1.0  0.99705  0.38756  0.51220  1.0000
  H   H511      1.0  0.99856  0.58405  0.55730  1.0000
  H   H512      1.0  0.99616  0.37586  0.52345  1.0000
  H   H513      1.0  0.00101  0.52016  0.64217  1.0000
  H   H514      1.0  0.99473  0.45484  0.65175  1.0000
  H   H515      1.0  0.00186  0.34304  0.44559  1.0000
  C   C317      1.0  0.99544  0.51796  0.63844  1.0000
  C   C318      1.0  0.99371  0.55491  0.33592  1.0000
  H   H516      1.0  0.99907  0.56023  0.33072  1.0000
  H   H517      1.0  0.01359  0.38418  0.42917  1.0000
  H   H518      1.0  0.00279  0.59755  0.50397  1.0000
  H   H519      1.0  0.02218  0.44243  0.58174  1.0000
  S   S113      1.0  0.98966  0.46622  0.37093  1.0000
  H   H520      1.0  0.00284  0.37464  0.49370  1.0000
  H   H521      1.0  0.99084  0.35960  0.52125  1.0000
  C   C319      1.0  0.00433  0.51272  0.32575  1.0000
  H   H522      1.0  0.99047  0.34044  0.54106  1.0000
  C   C320      1.0  0.99549  0.46243  0.63455  1.0000
  H   H523      1.0  0.99918  0.39869  0.40109  1.0000
  H   H524      1.0  0.00214  0.32843  0.47373  1.0000
  H   H525      1.0  0.01337  0.51108  0.32328  1.0000
  C   C321      1.0  0.02002  0.44990  0.57529  1.0000
  H   H526      1.0  0.99993  0.46468  0.59195  1.0000
  H   H527      1.0  0.98941  0.55176  0.32227  1.0000
  H   H528      1.0  0.00188  0.35244  0.54201  1.0000
  N   N32       1.0  0.00054  0.50877  0.33775  1.0000
  H   H529      1.0  0.99236  0.32949  0.44421  1.0000
  H   H530      1.0  0.99820  0.47127  0.57275  1.0000
  H   H531      1.0  0.02205  0.39480  0.40487  1.0000
  H   H532      1.0  0.00132  0.52349  0.34186  1.0000
  C   C322      1.0  0.00820  0.45982  0.58905  1.0000
  C   C323      1.0  0.99180  0.47177  0.62686  1.0000
  H   H533      1.0  0.00109  0.59898  0.53411  1.0000
  H   H534      1.0  0.02619  0.45493  0.57352  1.0000
  H   H535      1.0  0.99739  0.59869  0.55460  1.0000
  H   H536      1.0  0.99259  0.45378  0.58398  1.0000
  H   H537      1.0  0.99336  0.51744  0.37137  1.0000
  C   C324      1.0  0.99203  0.46222  0.64587  1.0000
  C   C325      1.0  0.98853  0.51124  0.34057  1.0000
  H   H538      1.0  0.02078  0.44712  0.56765  1.0000
  C   C326      1.0  0.99316  0.36264  0.51219  1.0000
  H   H539      1.0  0.00622  0.46372  0.56251  1.0000
  C   C327      1.0  0.98973  0.43469  0.40825  1.0000
  H   H540      1.0  0.99200  0.40148  0.41439  1.0000
  H   H541      1.0  0.00118  0.52175  0.32309  1.0000
  H   H542      1.0  0.00362  0.40713  0.40718  1.0000
  C   C328      1.0  0.99219  0.53619  0.62689  1.0000
  H   H543      1.0  0.99583  0.53216  0.41742  1.0000
  H   H544      1.0  0.00044  0.51435  0.63127  1.0000
  C   C329      1.0  0.00103  0.44925  0.58117  1.0000
  S   S114      1.0  0.99538  0.56205  0.35346  1.0000
  C   C330      1.0  0.99821  0.37840  0.51430  1.0000
  C   C331      1.0  0.00475  0.49672  0.34081  1.0000
  S   S115      1.0  0.99779  0.46471  0.33871  1.0000
  C   C332      1.0  0.00636  0.46607  0.57012  1.0000
  S   S116      1.0  0.99490  0.36613  0.44560  1.0000
  C   C333      1.0  0.00024  0.39965  0.40898  1.0000
  H   H545      1.0  0.00187  0.49218  0.33642  1.0000
  H   H546      1.0  0.00701  0.37487  0.51149  1.0000
  H   H547      1.0  0.00206  0.49345  0.34982  1.0000
  C   C334      1.0  0.00449  0.51440  0.34385  1.0000
  C   C335      1.0  0.99626  0.59250  0.53656  1.0000
  S   S117      1.0  0.99227  0.41835  0.42675  1.0000
  H   H548      1.0  0.01236  0.47136  0.56789  1.0000
  H   H549      1.0  0.01353  0.51281  0.34188  1.0000
  S   S118      1.0  0.99057  0.60496  0.46983  1.0000
  H   H550      1.0  0.00185  0.35868  0.50942  1.0000
  H   H551      1.0  0.99420  0.38137  0.42254  1.0000
  H   H552      1.0  0.99182  0.51136  0.64471  1.0000
  C   C336      1.0  0.99264  0.41373  0.48981  1.0000
  C   C337      1.0  0.99015  0.61230  0.50269  1.0000
  S   S119      1.0  0.99641  0.37431  0.54590  1.0000
  S   S120      1.0  0.99089  0.61467  0.51525  1.0000
  H   H553      1.0  0.99356  0.38757  0.49471  1.0000
  C   C338      1.0  0.99281  0.59220  0.55596  1.0000
  C   C339      1.0  0.98995  0.60802  0.48251  1.0000
  C   C340      1.0  0.98825  0.35684  0.44384  1.0000
  H   H554      1.0  0.99016  0.54379  0.40775  1.0000
  H   H555      1.0  0.98822  0.35965  0.50836  1.0000
  H   H556      1.0  0.98889  0.37654  0.49302  1.0000
  H   H557      1.0  0.98838  0.51685  0.60118  1.0000
  C   C341      1.0  0.98828  0.36578  0.54554  1.0000
  C   C342      1.0  0.98815  0.40905  0.48397  1.0000
  C   C343      1.0  0.98824  0.33807  0.44360  1.0000
  H   H558      1.0  0.98873  0.61038  0.57014  1.0000
  C   C344      1.0  0.98843  0.53873  0.41630  1.0000
  H   H559      1.0  0.99829  0.57784  0.65310  1.0000
  H   H560      1.0  0.19962  0.55255  0.93174  1.0000
  C   C345      1.0  0.14061  0.43889  0.98369  1.0000
  H   H561      1.0  0.00785  0.50362  0.71035  1.0000
  Fe  Fe49      1.0  0.07187  0.55377  0.93208  1.0000
  S   S121      1.0  0.05528  0.55924  0.94226  1.0000
  S   S122      1.0  0.08435  0.56381  0.92868  1.0000
  Fe  Fe50      1.0  0.06604  0.53403  0.92896  1.0000
  S   S123      1.0  0.04903  0.53778  0.93897  1.0000
  S   S124      1.0  0.07225  0.51943  0.92124  1.0000
  Fe  Fe51      1.0  0.04910  0.55517  0.92957  1.0000
  S   S125      1.0  0.03688  0.56693  0.91995  1.0000
  Fe  Fe52      1.0  0.05701  0.54130  0.95051  1.0000
  S   S126      1.0  0.05411  0.53341  0.96866  1.0000
  S   S127      1.0  0.06569  0.55108  0.91880  1.0000
  S   S128      1.0  0.07406  0.53615  0.94118  1.0000
  Fe  Fe53      1.0  0.02784  0.46827  0.93911  1.0000
  S   S129      1.0  0.03849  0.45636  0.92863  1.0000
  S   S130      1.0  0.01972  0.46200  0.95675  1.0000
  Fe  Fe54      1.0  0.03415  0.48793  0.92192  1.0000
  S   S131      1.0  0.04566  0.47763  0.91045  1.0000
  S   S132      1.0  0.03121  0.50631  0.91726  1.0000
  Fe  Fe55      1.0  0.03202  0.46881  0.91449  1.0000
  S   S133      1.0  0.02836  0.46656  0.89915  1.0000
  Fe  Fe56      1.0  0.05092  0.46644  0.92558  1.0000
  S   S134      1.0  0.06818  0.45851  0.92773  1.0000
  S   S135      1.0  0.02025  0.47977  0.92532  1.0000
  S   S136      1.0  0.04058  0.47765  0.93671  1.0000
  H   H562      1.0  0.98829  0.47376  0.90911  1.0000
  H   H563      1.0  0.99746  0.51563  0.70701  1.0000
  C   C346      1.0  0.99959  0.51326  0.84487  1.0000
  Fe  Fe57      1.0  0.14058  0.53983  0.93967  1.0000
  S   S137      1.0  0.13193  0.54699  0.95453  1.0000
  S   S138      1.0  0.13180  0.53484  0.92982  1.0000
  Fe  Fe58      1.0  0.16309  0.53735  0.94354  1.0000
  S   S139      1.0  0.15634  0.54416  0.95873  1.0000
  S   S140      1.0  0.18078  0.52996  0.93759  1.0000
  Fe  Fe59      1.0  0.14403  0.53395  0.96291  1.0000
  H   H564      1.0  0.09927  0.55084  0.95337  1.0000
  Fe  Fe60      1.0  0.14500  0.55665  0.94890  1.0000
  S   S141      1.0  0.14181  0.57362  0.95173  1.0000
  S   S142      1.0  0.15168  0.52592  0.94863  1.0000
  S   S143      1.0  0.15272  0.55069  0.93316  1.0000
  S   S144      1.0  0.99541  0.53619  0.88844  1.0000
  C   C347      1.0  0.16611  0.50707  0.93183  1.0000
  S   S145      1.0  0.21454  0.53440  0.96196  1.0000
  C   C348      1.0  0.20475  0.55864  0.90958  1.0000
  H   H565      1.0  0.21335  0.50654  0.97159  1.0000
  H   H566      1.0  0.18892  0.50771  0.98511  1.0000
  H   H567      1.0  0.18551  0.50282  0.91801  1.0000
  Fe  Fe61      1.0  0.10316  0.48265  0.95161  1.0000
  S   S146      1.0  0.10322  0.47481  0.96937  1.0000
  S   S147      1.0  0.08778  0.48816  0.94521  1.0000
  Fe  Fe62      1.0  0.12646  0.48565  0.94634  1.0000
  S   S148      1.0  0.12852  0.47829  0.96365  1.0000
  S   S149      1.0  0.13972  0.49141  0.93240  1.0000
  Fe  Fe63      1.0  0.12004  0.46579  0.96285  1.0000
  S   S150      1.0  0.12698  0.44808  0.96940  1.0000
  Fe  Fe64      1.0  0.11155  0.48799  0.96860  1.0000
  H   H568      1.0  0.22694  0.50856  0.96836  1.0000
  S   S151      1.0  0.11930  0.47235  0.94502  1.0000
  S   S152      1.0  0.11024  0.49668  0.95133  1.0000
  H   H569      1.0  0.08809  0.54647  0.95173  1.0000
  H   H570      1.0  0.14172  0.57809  0.97240  1.0000
  H   H571      1.0  0.07524  0.58445  0.91114  1.0000
  C   C349      1.0  0.99534  0.56908  0.68092  1.0000
  C   C350      1.0  0.16384  0.52463  0.91898  1.0000
  H   H572      1.0  0.00294  0.48984  0.69710  1.0000
  H   H573      1.0  0.01197  0.50693  0.87878  1.0000
  H   H574      1.0  0.00946  0.55679  0.81502  1.0000
  H   H575      1.0  0.15712  0.50802  0.93463  1.0000
  H   H576      1.0  0.04533  0.58694  0.91975  1.0000
  H   H577      1.0  0.22974  0.47821  0.97904  1.0000
  H   H578      1.0  0.00035  0.58445  0.66263  1.0000
  S   S153      1.0  0.20966  0.49210  0.95054  1.0000
  H   H579      1.0  0.18388  0.51585  0.90836  1.0000
  C   C351      1.0  0.99054  0.58791  0.83406  1.0000
  N   N33       1.0  0.99345  0.50025  0.70834  1.0000
  H   H580      1.0  0.05820  0.49055  0.96908  1.0000
  H   H581      1.0  0.15462  0.43180  0.94669  1.0000
  S   S154      1.0  0.13888  0.52495  0.98026  1.0000
  C   C352      1.0  0.10467  0.52898  0.95547  1.0000
  H   H582      1.0  0.99301  0.47765  0.82951  1.0000
  H   H583      1.0  0.08225  0.53342  0.97588  1.0000
  H   H584      1.0  0.04601  0.46688  0.96195  1.0000
  H   H585      1.0  0.02930  0.51826  0.87998  1.0000
  H   H586      1.0  0.22557  0.55520  0.91114  1.0000
  H   H587      1.0  0.10740  0.49140  0.92948  1.0000
  H   H588      1.0  0.14359  0.43217  0.97945  1.0000
  H   H589      1.0  0.14978  0.46047  0.95001  1.0000
  H   H590      1.0  0.11769  0.51595  0.91186  1.0000
  H   H591      1.0  0.11801  0.49881  0.92636  1.0000
  S   S155      1.0  0.99396  0.51468  0.66669  1.0000
  H   H592      1.0  0.16838  0.47498  0.98589  1.0000
  C   C353      1.0  0.99196  0.51535  0.80949  1.0000
  C   C354      1.0  0.00492  0.45281  0.86721  1.0000
  H   H593      1.0  0.06132  0.60192  0.90764  1.0000
  C   C355      1.0  0.01032  0.56050  0.82144  1.0000
  H   H594      1.0  0.03729  0.49814  0.89641  1.0000
  H   H595      1.0  0.03674  0.50638  0.96901  1.0000
  C   C356      1.0  0.05820  0.59803  0.90284  1.0000
  H   H596      1.0  0.19581  0.55995  0.91300  1.0000
  C   C357      1.0  0.17144  0.56625  0.95857  1.0000
  C   C358      1.0  0.20141  0.47620  0.98133  1.0000
  H   H597      1.0  0.20630  0.55721  0.90112  1.0000
  C   C359      1.0  0.11193  0.51342  0.90864  1.0000
  H   H598      1.0  0.16145  0.45336  0.93409  1.0000
  C   C360      1.0  0.06663  0.55405  0.97762  1.0000
  S   S156      1.0  0.21363  0.47710  0.93235  1.0000
  C   C361      1.0  0.05426  0.58351  0.91869  1.0000
  H   H599      1.0  0.99282  0.44152  0.89325  1.0000
  C   C362      1.0  0.16703  0.43625  0.95803  1.0000
  C   C363      1.0  0.10254  0.53559  0.97185  1.0000
  N   N34       1.0  0.15992  0.44412  0.95089  1.0000
  H   H600      1.0  0.00367  0.56390  0.68102  1.0000
  Fe  Fe65      1.0  0.00391  0.54036  0.87082  1.0000
  S   S157      1.0  0.00885  0.55489  0.87259  1.0000
  S   S158      1.0  0.01624  0.52814  0.86182  1.0000
  Fe  Fe66      1.0  0.99921  0.55148  0.89005  1.0000
  S   S159      1.0  0.00370  0.54801  0.90660  1.0000
  H   H601      1.0  0.19833  0.53989  0.92117  1.0000
  C   C364      1.0  0.03457  0.49691  0.88951  1.0000
  C   C365      1.0  0.17439  0.47267  0.93499  1.0000
  H   H602      1.0  0.99996  0.51515  0.78773  1.0000
  H   H603      1.0  0.99744  0.45413  0.88856  1.0000
  C   C366      1.0  0.99889  0.52155  0.85980  1.0000
  C   C367      1.0  0.00996  0.52162  0.85595  1.0000
  C   C368      1.0  0.01591  0.51719  0.84678  1.0000
  H   H604      1.0  0.21156  0.53192  0.92280  1.0000
  S   S160      1.0  0.17897  0.56181  0.97734  1.0000
  H   H605      1.0  0.03928  0.50341  0.95008  1.0000
  H   H606      1.0  0.02450  0.51711  0.84386  1.0000
  H   H607      1.0  0.05088  0.43821  0.95859  1.0000
  C   C369      1.0  0.15825  0.57170  0.97446  1.0000
  C   C370      1.0  0.99897  0.48925  0.70600  1.0000
  C   C371      1.0  0.20715  0.55304  0.97853  1.0000
  S   S161      1.0  0.18380  0.49054  0.97435  1.0000
  C   C372      1.0  0.02344  0.51529  0.88758  1.0000
  S   S162      1.0  0.10598  0.49679  0.98250  1.0000
  H   H608      1.0  0.07640  0.58292  0.89741  1.0000
  H   H609      1.0  0.00668  0.43092  0.87399  1.0000
  H   H610      1.0  0.07339  0.57207  0.90914  1.0000
  H   H611      1.0  0.99909  0.51925  0.80587  1.0000
  C   C373      1.0  0.05569  0.58112  0.90046  1.0000
  H   H612      1.0  0.06762  0.50564  0.94638  1.0000
  H   H613      1.0  0.99494  0.57701  0.68294  1.0000
  H   H614      1.0  0.05954  0.46573  0.96345  1.0000
  C   C374      1.0  0.99314  0.51094  0.79215  1.0000
  C   C375      1.0  0.07176  0.58118  0.90609  1.0000
  C   C376      1.0  0.00032  0.57634  0.66129  1.0000
  H   H615      1.0  0.05756  0.44955  0.97889  1.0000
  H   H616      1.0  0.00728  0.50468  0.89893  1.0000
  H   H617      1.0  0.05391  0.43790  0.97695  1.0000
  C   C377      1.0  0.00021  0.53148  0.68524  1.0000
  H   H618      1.0  0.98864  0.51104  0.78596  1.0000
  N   N35       1.0  0.01120  0.55228  0.83187  1.0000
  H   H619      1.0  0.00363  0.45410  0.85873  1.0000
  H   H620      1.0  0.08300  0.52950  0.96340  1.0000
  H   H621      1.0  0.05738  0.58683  0.92398  1.0000
  H   H622      1.0  0.14973  0.45235  0.96371  1.0000
  H   H623      1.0  0.16279  0.49061  0.97113  1.0000
  C   C378      1.0  0.22464  0.50930  0.92621  1.0000
  H   H624      1.0  0.15482  0.52582  0.92141  1.0000
  H   H625      1.0  0.21203  0.55389  0.96991  1.0000
  H   H626      1.0  0.04675  0.58433  0.90122  1.0000
  H   H627      1.0  0.22464  0.54585  0.90358  1.0000
  H   H628      1.0  0.15677  0.50838  0.91556  1.0000
  H   H629      1.0  0.16772  0.51216  0.90430  1.0000
  S   S163      1.0  0.99029  0.48041  0.85642  1.0000
  H   H630      1.0  0.17971  0.56300  0.95469  1.0000
  N   N36       1.0  0.16921  0.51282  0.92023  1.0000
  H   H631      1.0  0.16980  0.49903  0.91376  1.0000
  H   H632      1.0  0.11727  0.49159  0.91671  1.0000
  H   H633      1.0  0.14661  0.43610  0.95905  1.0000
  C   C379      1.0  0.15125  0.43904  0.95060  1.0000
  C   C380      1.0  0.01574  0.49995  0.89919  1.0000
  C   C381      1.0  0.04976  0.44731  0.95677  1.0000
  N   N37       1.0  0.05999  0.58597  0.90700  1.0000
  C   C382      1.0  0.04421  0.50979  0.96582  1.0000
  H   H634      1.0  0.16978  0.49812  0.93292  1.0000
  H   H635      1.0  0.00307  0.56731  0.82266  1.0000
  C   C383      1.0  0.01194  0.55767  0.84024  1.0000
  H   H636      1.0  0.10681  0.52107  0.90459  1.0000
  Fe  Fe67      1.0  0.19411  0.48651  0.95829  1.0000
  H   H637      1.0  0.20722  0.56643  0.90881  1.0000
  C   C384      1.0  0.16645  0.44704  0.93960  1.0000
  C   C385      1.0  0.18150  0.53015  0.98072  1.0000
  H   H638      1.0  0.02180  0.45470  0.97948  1.0000
  C   C386      1.0  0.02312  0.46300  0.97647  1.0000
  H   H639      1.0  0.14186  0.55724  0.98445  1.0000
  C   C387      1.0  0.06794  0.44564  0.95877  1.0000
  H   H640      1.0  0.00170  0.54147  0.84389  1.0000
  H   H641      1.0  0.01342  0.44814  0.86734  1.0000
  C   C388      1.0  0.15290  0.48394  0.93370  1.0000
  C   C389      1.0  0.16000  0.47980  0.92477  1.0000
  C   C390      1.0  0.99433  0.47575  0.89153  1.0000
  C   C391      1.0  0.16738  0.47700  0.94389  1.0000
  C   C392      1.0  0.15656  0.48247  0.94332  1.0000
  H   H642      1.0  0.15723  0.48095  0.91730  1.0000
  H   H643      1.0  0.17024  0.47593  0.95129  1.0000
  H   H644      1.0  0.15113  0.48578  0.95019  1.0000
  H   H645      1.0  0.05997  0.51798  0.95087  1.0000
  H   H646      1.0  0.06951  0.43649  0.96125  1.0000
  H   H647      1.0  0.10077  0.52886  0.94890  1.0000
  C   C393      1.0  0.09877  0.51318  0.92592  1.0000
  H   H648      1.0  0.10568  0.52721  0.97650  1.0000
  C   C394      1.0  0.12271  0.50716  0.97206  1.0000
  C   C395      1.0  0.12976  0.51377  0.97146  1.0000
  H   H649      1.0  0.01523  0.51008  0.83385  1.0000
  H   H650      1.0  0.01269  0.55167  0.84820  1.0000
  H   H651      1.0  0.12297  0.50431  0.96487  1.0000
  H   H652      1.0  0.13541  0.51594  0.96381  1.0000
  C   C396      1.0  0.19007  0.53124  0.94445  1.0000
  C   C397      1.0  0.20035  0.52409  0.94368  1.0000
  C   C398      1.0  0.20803  0.52514  0.94882  1.0000
  C   C399      1.0  0.20535  0.53325  0.95493  1.0000
  C   C400      1.0  0.19508  0.54039  0.95573  1.0000
  C   C401      1.0  0.18748  0.53944  0.95044  1.0000
  H   H653      1.0  0.20237  0.51773  0.93906  1.0000
  H   H654      1.0  0.21593  0.51956  0.94817  1.0000
  H   H655      1.0  0.19302  0.54670  0.96042  1.0000
  H   H656      1.0  0.17963  0.54509  0.95096  1.0000
  S   S164      1.0  0.99103  0.58034  0.85577  1.0000
  H   H657      1.0  0.15882  0.46804  0.98455  1.0000
  H   H658      1.0  0.01531  0.52058  0.88689  1.0000
  H   H659      1.0  0.09361  0.52097  0.92218  1.0000
  N   N38       1.0  0.05196  0.50441  0.95712  1.0000
  H   H660      1.0  0.05969  0.58289  0.89156  1.0000
  C   C402      1.0  0.11521  0.50446  0.98189  1.0000
  H   H661      1.0  0.02773  0.49274  0.96566  1.0000
  C   C403      1.0  0.02031  0.50206  0.87943  1.0000
  C   C404      1.0  0.02831  0.47852  0.97913  1.0000
  H   H662      1.0  0.18527  0.51621  0.96710  1.0000
  H   H663      1.0  0.10220  0.49801  0.90707  1.0000
  C   C405      1.0  0.15001  0.57485  0.96850  1.0000
  C   C406      1.0  0.15238  0.57301  0.95784  1.0000
  C   C407      1.0  0.16313  0.56890  0.95281  1.0000
  C   C408      1.0  0.05472  0.46283  0.95942  1.0000
  H   H664      1.0  0.16902  0.51026  0.93740  1.0000
  H   H665      1.0  0.04094  0.45084  0.95940  1.0000
  H   H666      1.0  0.16498  0.56744  0.94457  1.0000
  H   H667      1.0  0.05725  0.46585  0.95037  1.0000
  H   H668      1.0  0.00705  0.44134  0.88752  1.0000
  H   H669      1.0  0.16240  0.43406  0.96668  1.0000
  C   C409      1.0  0.22255  0.54775  0.91190  1.0000
  H   H670      1.0  0.10411  0.51534  0.92994  1.0000
  C   C410      1.0  0.12968  0.51722  0.98082  1.0000
  H   H671      1.0  0.04787  0.50860  0.97298  1.0000
  H   H672      1.0  0.99242  0.43139  0.87968  1.0000
  H   H673      1.0  0.04058  0.49924  0.88179  1.0000
  S   S165      1.0  0.20131  0.46876  0.95787  1.0000
  H   H674      1.0  0.00531  0.48502  0.71088  1.0000
  C   C411      1.0  0.01515  0.47050  0.89642  1.0000
  C   C412      1.0  0.01402  0.47271  0.88547  1.0000
  C   C413      1.0  0.00365  0.47555  0.88301  1.0000
  H   H675      1.0  0.00422  0.46105  0.86869  1.0000
  H   H676      1.0  0.99105  0.56105  0.65989  1.0000
  C   C414      1.0  0.00581  0.47117  0.90489  1.0000
  H   H677      1.0  0.02121  0.47226  0.87886  1.0000
  H   H678      1.0  0.00289  0.47741  0.87454  1.0000
  H   H679      1.0  0.22095  0.50492  0.93407  1.0000
  H   H680      1.0  0.00657  0.46944  0.91336  1.0000
  C   C415      1.0  0.07440  0.46679  0.93170  1.0000
  C   C416      1.0  0.08397  0.46220  0.93573  1.0000
  C   C417      1.0  0.08836  0.46863  0.93983  1.0000
  C   C418      1.0  0.08324  0.47969  0.93973  1.0000
  C   C419      1.0  0.07394  0.48427  0.93537  1.0000
  C   C420      1.0  0.06949  0.47786  0.93145  1.0000
  H   H681      1.0  0.08788  0.45364  0.93587  1.0000
  H   H682      1.0  0.09560  0.46503  0.94314  1.0000
  H   H683      1.0  0.07013  0.49286  0.93506  1.0000
  H   H684      1.0  0.06226  0.48150  0.92821  1.0000
  C   C421      1.0  0.02834  0.56123  0.91569  1.0000
  C   C422      1.0  0.02556  0.55124  0.92166  1.0000
  C   C423      1.0  0.01812  0.54725  0.91864  1.0000
  C   C424      1.0  0.01366  0.55301  0.90942  1.0000
  C   C425      1.0  0.01666  0.56286  0.90323  1.0000
  C   C426      1.0  0.02386  0.56704  0.90646  1.0000
  H   H685      1.0  0.02887  0.54673  0.92882  1.0000
  H   H686      1.0  0.01580  0.53966  0.92351  1.0000
  H   H687      1.0  0.01317  0.56743  0.89619  1.0000
  H   H688      1.0  0.02590  0.57481  0.90183  1.0000
  C   C427      1.0  0.06135  0.51650  0.91812  1.0000
  C   C428      1.0  0.05145  0.52420  0.91825  1.0000
  C   C429      1.0  0.04225  0.52119  0.91752  1.0000
  C   C430      1.0  0.04297  0.51049  0.91666  1.0000
  C   C431      1.0  0.05303  0.50303  0.91576  1.0000
  C   C432      1.0  0.06226  0.50609  0.91632  1.0000
  H   H689      1.0  0.05082  0.53248  0.91894  1.0000
  H   H690      1.0  0.03453  0.52707  0.91792  1.0000
  H   H691      1.0  0.05368  0.49486  0.91473  1.0000
  H   H692      1.0  0.07001  0.50027  0.91574  1.0000
  C   C433      1.0  0.09765  0.55589  0.92853  1.0000
  C   C434      1.0  0.10059  0.54528  0.92646  1.0000
  C   C435      1.0  0.11120  0.53900  0.92655  1.0000
  C   C436      1.0  0.11880  0.54315  0.92905  1.0000
  C   C437      1.0  0.11584  0.55371  0.93121  1.0000
  C   C438      1.0  0.10533  0.56014  0.93076  1.0000
  H   H693      1.0  0.09473  0.54201  0.92461  1.0000
  H   H694      1.0  0.11352  0.53086  0.92483  1.0000
  H   H695      1.0  0.12169  0.55700  0.93307  1.0000
  H   H696      1.0  0.10310  0.56835  0.93234  1.0000
  H   H697      1.0  0.06113  0.48818  0.95542  1.0000
  H   H698      1.0  0.09254  0.51071  0.90857  1.0000
  C   C439      1.0  0.02106  0.54351  0.82997  1.0000
  C   C440      1.0  0.02204  0.46868  0.96574  1.0000
  C   C441      1.0  0.02353  0.47948  0.96197  1.0000
  S   S166      1.0  0.23192  0.46851  0.95655  1.0000
  H   H699      1.0  0.05533  0.57450  0.92197  1.0000
  H   H700      1.0  0.99499  0.50659  0.81341  1.0000
  H   H701      1.0  0.02226  0.48408  0.95389  1.0000
  H   H702      1.0  0.09206  0.49881  0.91964  1.0000
  H   H703      1.0  0.05693  0.57201  0.90337  1.0000
  H   H704      1.0  0.98969  0.56472  0.68776  1.0000
  H   H705      1.0  0.15631  0.57263  0.98290  1.0000
  C   C442      1.0  0.06272  0.54926  0.97145  1.0000
  H   H706      1.0  0.17377  0.43981  0.95827  1.0000
  H   H707      1.0  0.01906  0.56159  0.83748  1.0000
  Fe  Fe68      1.0  0.20541  0.49432  0.93427  1.0000
  H   H708      1.0  0.09694  0.54034  0.97798  1.0000
  H   H709      1.0  0.06294  0.55290  0.96281  1.0000
  H   H710      1.0  0.13957  0.54658  0.97964  1.0000
  N   N39       1.0  0.05632  0.45070  0.96235  1.0000
  C   C443      1.0  0.99373  0.51724  0.85433  1.0000
  H   H711      1.0  0.09096  0.52065  0.97310  1.0000
  H   H712      1.0  0.21101  0.55907  0.92756  1.0000
  H   H713      1.0  0.17079  0.42849  0.95503  1.0000
  C   C444      1.0  0.23434  0.52100  0.90594  1.0000
  H   H714      1.0  0.18403  0.51522  0.92234  1.0000
  Fe  Fe69      1.0  0.21690  0.47453  0.94920  1.0000
  Fe  Fe70      1.0  0.23172  0.53367  0.95207  1.0000
  H   H715      1.0  0.11683  0.50880  0.90216  1.0000
  C   C445      1.0  0.15498  0.45418  0.95534  1.0000
  H   H716      1.0  0.99708  0.43659  0.86518  1.0000
  H   H717      1.0  0.17004  0.43973  0.93582  1.0000
  H   H718      1.0  0.00457  0.56422  0.84203  1.0000
  C   C446      1.0  0.01067  0.51325  0.84110  1.0000
  N   N40       1.0  0.99247  0.57085  0.67019  1.0000
  C   C447      1.0  0.18115  0.51163  0.91707  1.0000
  C   C448      1.0  0.20718  0.53915  0.91751  1.0000
  H   H719      1.0  0.03490  0.48795  0.89084  1.0000
  H   H720      1.0  0.00725  0.53224  0.68754  1.0000
  H   H721      1.0  0.04168  0.51885  0.96270  1.0000
  N   N41       1.0  0.02351  0.50356  0.88892  1.0000
  H   H722      1.0  0.17600  0.47064  0.91861  1.0000
  H   H723      1.0  0.02562  0.51672  0.89474  1.0000
  H   H724      1.0  0.06241  0.60020  0.89403  1.0000
  H   H725      1.0  0.20547  0.47715  0.97277  1.0000
  C   C449      1.0  0.16893  0.56720  0.96955  1.0000
  H   H726      1.0  0.00077  0.54302  0.82994  1.0000
  H   H727      1.0  0.04938  0.60186  0.90345  1.0000
  C   C450      1.0  0.02635  0.46789  0.98316  1.0000
  S   S167      1.0  0.20784  0.50761  0.91883  1.0000
  C   C451      1.0  0.06191  0.50887  0.95350  1.0000
  C   C452      1.0  0.09262  0.54643  0.95787  1.0000
  H   H728      1.0  0.17808  0.53804  0.97540  1.0000
  H   H729      1.0  0.17200  0.51312  0.97168  1.0000
  H   H730      1.0  0.02040  0.49327  0.88019  1.0000
  H   H731      1.0  0.23691  0.51178  0.93250  1.0000
  C   C453      1.0  0.11228  0.49669  0.92276  1.0000
  C   C454      1.0  0.20845  0.55149  0.92781  1.0000
  S   S168      1.0  0.18887  0.49085  0.94231  1.0000
  Fe  Fe71      1.0  0.19717  0.47348  0.94129  1.0000
  S   S169      1.0  0.18757  0.46481  0.93587  1.0000
  H   H732      1.0  0.00875  0.57122  0.66078  1.0000
  H   H733      1.0  0.04768  0.48867  0.96394  1.0000
  C   C455      1.0  0.23371  0.51331  0.92533  1.0000
  C   C456      1.0  0.05853  0.53981  0.97646  1.0000
  H   H734      1.0  0.17333  0.45047  0.93959  1.0000
  H   H735      1.0  0.02057  0.53887  0.82413  1.0000
  H   H736      1.0  0.04410  0.45065  0.97738  1.0000
  Fe  Fe72      1.0  0.99278  0.56426  0.86820  1.0000
  C   C457      1.0  0.09771  0.50339  0.91298  1.0000
  C   C458      1.0  0.00157  0.52543  0.67731  1.0000
  H   H737      1.0  0.10777  0.52028  0.95943  1.0000
  H   H738      1.0  0.07322  0.44851  0.96229  1.0000
  H   H739      1.0  0.21758  0.51221  0.98051  1.0000
  N   N42       1.0  0.10517  0.50667  0.91757  1.0000
  C   C459      1.0  0.16572  0.50790  0.91312  1.0000
  C   C460      1.0  0.17664  0.51934  0.97104  1.0000
  N   N43       1.0  0.21073  0.54927  0.91669  1.0000
  N   N44       1.0  0.09693  0.53510  0.96360  1.0000
  H   H740      1.0  0.22557  0.55941  0.97604  1.0000
  H   H741      1.0  0.09316  0.50855  0.93251  1.0000
  C   C461      1.0  0.00145  0.50723  0.70544  1.0000
  H   H742      1.0  0.16636  0.52855  0.92423  1.0000
  N   N45       1.0  0.17567  0.52148  0.98195  1.0000
  H   H743      1.0  0.16596  0.52924  0.91031  1.0000
  H   H744      1.0  0.14527  0.44503  0.94596  1.0000
  H   H745      1.0  0.16132  0.45798  0.95601  1.0000
  C   C462      1.0  0.22010  0.51141  0.91710  1.0000
  C   C463      1.0  0.17063  0.47401  0.92549  1.0000
  H   H746      1.0  0.06635  0.50675  0.96025  1.0000
  H   H747      1.0  0.22724  0.54076  0.91715  1.0000
  C   C464      1.0  0.05488  0.49241  0.96156  1.0000
  H   H748      1.0  0.04472  0.51551  0.94396  1.0000
  C   C465      1.0  0.99546  0.47363  0.90246  1.0000
  S   S170      1.0  0.23596  0.54408  0.93515  1.0000
  H   H749      1.0  0.02850  0.54694  0.82656  1.0000
  H   H750      1.0  0.11185  0.53275  0.95139  1.0000
  H   H751      1.0  0.06975  0.56144  0.97372  1.0000
  H   H752      1.0  0.01580  0.49105  0.90060  1.0000
  C   C466      1.0  0.00148  0.54744  0.83587  1.0000
  C   C467      1.0  0.04687  0.50655  0.94764  1.0000
  C   C468      1.0  0.05284  0.44702  0.97443  1.0000
  C   C469      1.0  0.12798  0.45602  0.98653  1.0000
  C   C470      1.0  0.08789  0.52941  0.96924  1.0000
  H   H753      1.0  0.05240  0.50254  0.94094  1.0000
  H   H754      1.0  0.20878  0.53714  0.90930  1.0000
  H   H755      1.0  0.00964  0.52141  0.67358  1.0000
  H   H756      1.0  0.02220  0.53748  0.83782  1.0000
  H   H757      1.0  0.02591  0.50482  0.87151  1.0000
  C   C471      1.0  0.02661  0.48438  0.96866  1.0000
  H   H758      1.0  0.99427  0.52490  0.86693  1.0000
  H   H759      1.0  0.01777  0.50114  0.90651  1.0000
  H   H760      1.0  0.07064  0.44777  0.94964  1.0000
  C   C472      1.0  0.99033  0.48088  0.81310  1.0000
  H   H761      1.0  0.17346  0.52691  0.96530  1.0000
  C   C473      1.0  0.99866  0.44591  0.88671  1.0000
  H   H762      1.0  0.19030  0.52765  0.97700  1.0000
  H   H763      1.0  0.08695  0.55137  0.96376  1.0000
  H   H764      1.0  0.13479  0.56073  0.97348  1.0000
  H   H765      1.0  0.99675  0.50217  0.79536  1.0000
  H   H766      1.0  0.01753  0.56430  0.81809  1.0000
  H   H767      1.0  0.21288  0.54458  0.93335  1.0000
  H   H768      1.0  0.99389  0.55387  0.83717  1.0000
  C   C474      1.0  0.15427  0.48948  0.97432  1.0000
  H   H769      1.0  0.99432  0.49552  0.72546  1.0000
  C   C475      1.0  0.22501  0.51719  0.90688  1.0000
  C   C476      1.0  0.99280  0.56010  0.66810  1.0000
  H   H770      1.0  0.22156  0.51878  0.89976  1.0000
  N   N46       1.0  0.22382  0.49478  0.98169  1.0000
  H   H771      1.0  0.14880  0.49768  0.97231  1.0000
  C   C477      1.0  0.19083  0.48219  0.98450  1.0000
  H   H772      1.0  0.10959  0.53957  0.96786  1.0000
  H   H773      1.0  0.00558  0.50823  0.69656  1.0000
  C   C478      1.0  0.99836  0.43597  0.87353  1.0000
  H   H774      1.0  0.22690  0.53952  0.97706  1.0000
  H   H775      1.0  0.22039  0.48688  0.97081  1.0000
  C   C479      1.0  0.23311  0.49445  0.98623  1.0000
  H   H776      1.0  0.20137  0.56110  0.97914  1.0000
  C   C480      1.0  0.99245  0.52403  0.67472  1.0000
  H   H777      1.0  0.99550  0.48674  0.80977  1.0000
  C   C481      1.0  0.22026  0.50600  0.97527  1.0000
  H   H778      1.0  0.13934  0.47764  0.98577  1.0000
  C   C482      1.0  0.13587  0.55488  0.98143  1.0000
  H   H779      1.0  0.11614  0.55837  0.97726  1.0000
  H   H780      1.0  0.12115  0.46254  0.98452  1.0000
  C   C483      1.0  0.22716  0.48682  0.97445  1.0000
  C   C484      1.0  0.13195  0.44745  0.98085  1.0000
  H   H781      1.0  0.99306  0.48384  0.70807  1.0000
  H   H782      1.0  0.99532  0.59347  0.83414  1.0000
  C   C485      1.0  0.11757  0.55232  0.98502  1.0000
  H   H783      1.0  0.23407  0.48867  0.96747  1.0000
  S   S171      1.0  0.99312  0.50857  0.83749  1.0000
  H   H784      1.0  0.05202  0.45019  0.94764  1.0000
  H   H785      1.0  0.11991  0.57254  0.98449  1.0000
  H   H786      1.0  0.16016  0.53276  0.98172  1.0000
  H   H787      1.0  0.15304  0.48402  0.96970  1.0000
  H   H788      1.0  0.20218  0.54689  0.97986  1.0000
  H   H789      1.0  0.99198  0.59282  0.81650  1.0000
  H   H790      1.0  0.12061  0.54399  0.98308  1.0000
  H   H791      1.0  0.00089  0.55440  0.66830  1.0000
  N   N47       1.0  0.15210  0.48479  0.98633  1.0000
  N   N48       1.0  0.99694  0.44701  0.87559  1.0000
  C   C486      1.0  0.22048  0.55821  0.98457  1.0000
  C   C487      1.0  0.98975  0.53616  0.69050  1.0000
  C   C488      1.0  0.98901  0.47564  0.82429  1.0000
  C   C489      1.0  0.98863  0.58756  0.82407  1.0000
  H   H792      1.0  0.98873  0.53366  0.91231  1.0000
  S   S172      1.0  0.98867  0.54991  0.86512  1.0000
  C   C490      1.0  0.22169  0.53904  0.98549  1.0000
  H   H793      1.0  0.98882  0.50654  0.69269  1.0000
  H   H794      1.0  0.98844  0.53249  0.79255  1.0000
  C   C491      1.0  0.98823  0.49908  0.72019  1.0000
  H   H795      1.0  0.21504  0.56631  0.98572  1.0000
  S   S173      1.0  0.98814  0.54275  0.70114  1.0000
  N   N49       1.0  0.21416  0.54974  0.98660  1.0000
  S   S174      1.0  0.03370  0.48454  0.98644  1.0000
  H   H796      1.0  0.15128  0.95195  0.46298  1.0000
  Fe  Fe73      1.0  0.03601  0.96506  0.44229  1.0000
  S   S175      1.0  0.04578  0.95708  0.42813  1.0000
  H   H797      1.0  0.05706  0.98120  0.45560  1.0000
  Fe  Fe74      1.0  0.04172  0.94459  0.45947  1.0000
  S   S176      1.0  0.05209  0.93499  0.44699  1.0000
  S   S177      1.0  0.03977  0.93726  0.47753  1.0000
  Fe  Fe75      1.0  0.05836  0.95032  0.43848  1.0000
  S   S178      1.0  0.07640  0.94894  0.43216  1.0000
  Fe  Fe76      1.0  0.03849  0.94248  0.43797  1.0000
  S   S179      1.0  0.03445  0.92983  0.43156  1.0000
  S   S180      1.0  0.04911  0.95933  0.45185  1.0000
  S   S181      1.0  0.02758  0.95108  0.45126  1.0000
  Fe  Fe77      1.0  0.04010  0.96678  0.52297  1.0000
  H   H798      1.0  0.00854  0.89629  0.55321  1.0000
  S   S182      1.0  0.02311  0.96337  0.52771  1.0000
  Fe  Fe78      1.0  0.06231  0.96593  0.52696  1.0000
  N   N50       1.0  0.06780  0.98745  0.46102  1.0000
  S   S183      1.0  0.07629  0.95785  0.53542  1.0000
  H   H799      1.0  0.02336  0.95412  0.48468  1.0000
  C   C492      1.0  0.98797  0.85111  0.52906  1.0000
  Fe  Fe79      1.0  0.06008  0.96711  0.50422  1.0000
  S   S184      1.0  0.06932  0.96143  0.48874  1.0000
  H   H800      1.0  0.00535  0.91968  0.40760  1.0000
  S   S185      1.0  0.05637  0.95506  0.52016  1.0000
  H   H801      1.0  0.18071  0.95725  0.42524  1.0000
  S   S186      1.0  0.10828  0.97297  0.46450  1.0000
  C   C493      1.0  0.16579  0.97979  0.44203  1.0000
  H   H802      1.0  0.05898  0.98393  0.47785  1.0000
  S   S187      1.0  0.13367  0.97508  0.46198  1.0000
  C   C494      1.0  0.16328  0.98014  0.48737  1.0000
  Fe  Fe80      1.0  0.12516  0.96275  0.46099  1.0000
  S   S188      1.0  0.12948  0.94602  0.47161  1.0000
  H   H803      1.0  0.01410  0.94068  0.48306  1.0000
  S   S189      1.0  0.15577  0.97537  0.51612  1.0000
  S   S190      1.0  0.12737  0.96773  0.44251  1.0000
  H   H804      1.0  0.99818  0.93959  0.53236  1.0000
  Fe  Fe81      1.0  0.12479  0.98248  0.52851  1.0000
  H   H805      1.0  0.01228  0.93301  0.50841  1.0000
  Fe  Fe82      1.0  0.98817  0.89566  0.52890  1.0000
  Fe  Fe83      1.0  0.14750  0.97553  0.53365  1.0000
  C   C495      1.0  0.03751  0.90773  0.45517  1.0000
  S   S191      1.0  0.15828  0.97164  0.54574  1.0000
  C   C496      1.0  0.02539  0.88937  0.53745  1.0000
  S   S192      1.0  0.02754  0.98296  0.44048  1.0000
  Fe  Fe84      1.0  0.99731  0.91529  0.52777  1.0000
  S   S193      1.0  0.14884  0.95249  0.50820  1.0000
  H   H806      1.0  0.05778  0.97470  0.41480  1.0000
  S   S194      1.0  0.13536  0.96592  0.53414  1.0000
  Fe  Fe85      1.0  0.21828  0.97518  0.52114  1.0000
  C   C497      1.0  0.09835  0.98022  0.53403  1.0000
  S   S195      1.0  0.20905  0.96176  0.52537  1.0000
  S   S196      1.0  0.99137  0.74027  0.44211  1.0000
  H   H807      1.0  0.03378  0.90534  0.44970  1.0000
  H   H808      1.0  0.16046  0.92355  0.45777  1.0000
  H   H809      1.0  0.03125  0.89406  0.47419  1.0000
  S   S197      1.0  0.13140  0.98299  0.51048  1.0000
  C   C498      1.0  0.01679  0.93947  0.50323  1.0000
  S   S198      1.0  0.98991  0.88008  0.46997  1.0000
  C   C499      1.0  0.08708  0.98430  0.53530  1.0000
  H   H810      1.0  0.19627  0.96699  0.49593  1.0000
  S   S199      1.0  0.99847  0.91590  0.48903  1.0000
  H   H811      1.0  0.00247  0.81441  0.45630  1.0000
  H   H812      1.0  0.14292  0.97872  0.48887  1.0000
  H   H813      1.0  0.99119  0.88003  0.49179  1.0000
  H   H814      1.0  0.17320  0.92686  0.46714  1.0000
  C   C500      1.0  0.00678  0.94423  0.48889  1.0000
  S   S200      1.0  0.22151  0.96627  0.43638  1.0000
  H   H815      1.0  0.07284  0.95054  0.47101  1.0000
  H   H816      1.0  0.99092  0.74789  0.47037  1.0000
  H   H817      1.0  0.11423  0.94853  0.50403  1.0000
  C   C501      1.0  0.00735  0.89039  0.54904  1.0000
  N   N51       1.0  0.04998  0.98612  0.40220  1.0000
  H   H818      1.0  0.20490  0.95351  0.48458  1.0000
  S   S201      1.0  0.01154  0.91731  0.53316  1.0000
  H   H819      1.0  0.99840  0.81443  0.49026  1.0000
  H   H820      1.0  0.10129  0.96143  0.44575  1.0000
  S   S202      1.0  0.20631  0.96250  0.46147  1.0000
  S   S203      1.0  0.00308  0.90158  0.51862  1.0000
  N   N52       1.0  0.21324  0.95893  0.49350  1.0000
  H   H821      1.0  0.01631  0.91743  0.45619  1.0000
  C   C502      1.0  0.10087  0.94859  0.49147  1.0000
  C   C503      1.0  0.99297  0.88970  0.47517  1.0000
  C   C504      1.0  0.01567  0.87523  0.53988  1.0000
  H   H822      1.0  0.02034  0.89852  0.46697  1.0000
  H   H823      1.0  0.03826  0.98324  0.41750  1.0000
  N   N53       1.0  0.02931  0.91083  0.46490  1.0000
  H   H824      1.0  0.17614  0.95545  0.55311  1.0000
  C   C505      1.0  0.17651  0.96347  0.43001  1.0000
  H   H825      1.0  0.06132  0.98791  0.41045  1.0000
  H   H826      1.0  0.01421  0.81154  0.46204  1.0000
  H   H827      1.0  0.16249  0.93650  0.47386  1.0000
  C   C506      1.0  0.21172  0.95033  0.48894  1.0000
  H   H828      1.0  0.16168  0.98656  0.49218  1.0000
  C   C507      1.0  0.99656  0.90775  0.47250  1.0000
  N   N54       1.0  0.00989  0.94855  0.49674  1.0000
  C   C508      1.0  0.10698  0.94495  0.50838  1.0000
  N   N55       1.0  0.99470  0.91277  0.40277  1.0000
  H   H829      1.0  0.02403  0.88204  0.55925  1.0000
  C   C509      1.0  0.08831  0.94535  0.50908  1.0000
  H   H830      1.0  0.17972  0.97458  0.44948  1.0000
  C   C510      1.0  0.99103  0.90230  0.40573  1.0000
  Fe  Fe86      1.0  0.20187  0.98083  0.45910  1.0000
  H   H831      1.0  0.09013  0.93639  0.50930  1.0000
  H   H832      1.0  0.00700  0.90842  0.38880  1.0000
  H   H833      1.0  0.20014  0.95694  0.50778  1.0000
  H   H834      1.0  0.10191  0.96612  0.49830  1.0000
  H   H835      1.0  0.00271  0.92296  0.38841  1.0000
  C   C511      1.0  0.07854  0.98355  0.46398  1.0000
  H   H836      1.0  0.17874  0.94291  0.44554  1.0000
  H   H837      1.0  0.99713  0.67366  0.47522  1.0000
  C   C512      1.0  0.06528  0.94926  0.47672  1.0000
  C   C513      1.0  0.09231  0.97481  0.43533  1.0000
  H   H838      1.0  0.23536  0.98850  0.46804  1.0000
  H   H839      1.0  0.00298  0.95739  0.53050  1.0000
  C   C514      1.0  0.02239  0.87649  0.55497  1.0000
  H   H840      1.0  0.17690  0.92949  0.44651  1.0000
  H   H841      1.0  0.08792  0.98729  0.51149  1.0000
  H   H842      1.0  0.15775  0.96760  0.47751  1.0000
  C   C515      1.0  0.16878  0.93565  0.46614  1.0000
  C   C516      1.0  0.99984  0.91512  0.39089  1.0000
  H   H843      1.0  0.00689  0.73304  0.46699  1.0000
  C   C517      1.0  0.18144  0.96521  0.43750  1.0000
  H   H844      1.0  0.16919  0.94140  0.43876  1.0000
  C   C518      1.0  0.15622  0.93233  0.45750  1.0000
  C   C519      1.0  0.05872  0.94377  0.47429  1.0000
  H   H845      1.0  0.09208  0.96378  0.51111  1.0000
  H   H846      1.0  0.14983  0.93256  0.46520  1.0000
  Fe  Fe87      1.0  0.22327  0.96493  0.45352  1.0000
  C   C520      1.0  0.09486  0.96221  0.50261  1.0000
  C   C521      1.0  0.22169  0.95402  0.50007  1.0000
  C   C522      1.0  0.02477  0.90120  0.47160  1.0000
  H   H847      1.0  0.00951  0.73289  0.47997  1.0000
  S   S204      1.0  0.04563  0.97666  0.53152  1.0000
  H   H848      1.0  0.15197  0.93518  0.45052  1.0000
  H   H849      1.0  0.20376  0.97005  0.50393  1.0000
  H   H850      1.0  0.09233  0.94743  0.44435  1.0000
  H   H851      1.0  0.02329  0.86941  0.53695  1.0000
  H   H852      1.0  0.04621  0.97033  0.40487  1.0000
  Fe  Fe88      1.0  0.11689  0.98562  0.46441  1.0000
  N   N56       1.0  0.09776  0.95027  0.50288  1.0000
  C   C523      1.0  0.15986  0.97541  0.47210  1.0000
  H   H853      1.0  0.19209  0.98405  0.53918  1.0000
  S   S205      1.0  0.14864  0.98674  0.43185  1.0000
  H   H854      1.0  0.00152  0.95081  0.48387  1.0000
  N   N57       1.0  0.99890  0.81590  0.47315  1.0000
  C   C524      1.0  0.18974  0.98468  0.54795  1.0000
  H   H855      1.0  0.00731  0.82915  0.46839  1.0000
  Fe  Fe89      1.0  0.11119  0.97939  0.44616  1.0000
  H   H856      1.0  0.10947  0.93595  0.50864  1.0000
  H   H857      1.0  0.99440  0.89420  0.49936  1.0000
  C   C525      1.0  0.00512  0.72938  0.47602  1.0000
  H   H858      1.0  0.21763  0.97470  0.48760  1.0000
  H   H859      1.0  0.01419  0.92253  0.46834  1.0000
  H   H860      1.0  0.03022  0.87070  0.55249  1.0000
  H   H861      1.0  0.04416  0.90072  0.45762  1.0000
  H   H862      1.0  0.02687  0.89545  0.54121  1.0000
  H   H863      1.0  0.08112  0.94930  0.50531  1.0000
  H   H864      1.0  0.04936  0.95484  0.50108  1.0000
  H   H865      1.0  0.10484  0.94602  0.51704  1.0000
  C   C526      1.0  0.20288  0.96340  0.50058  1.0000
  H   H866      1.0  0.03812  0.94477  0.49706  1.0000
  H   H867      1.0  0.03815  0.92165  0.46669  1.0000
  H   H868      1.0  0.08815  0.96648  0.49819  1.0000
  C   C527      1.0  0.99894  0.82777  0.47011  1.0000
  C   C528      1.0  0.08430  0.97785  0.42916  1.0000
  N   N58       1.0  0.01771  0.88286  0.54533  1.0000
  H   H869      1.0  0.17471  0.94064  0.46545  1.0000
  C   C529      1.0  0.01597  0.95726  0.49062  1.0000
  H   H870      1.0  0.99076  0.71790  0.47626  1.0000
  C   C530      1.0  0.99009  0.67334  0.48240  1.0000
  H   H871      1.0  0.10784  0.95238  0.48650  1.0000
  N   N59       1.0  0.16386  0.93928  0.45638  1.0000
  H   H872      1.0  0.01206  0.87977  0.53261  1.0000
  N   N60       1.0  0.15720  0.98403  0.47847  1.0000
  C   C531      1.0  0.06184  0.95343  0.48629  1.0000
  H   H873      1.0  0.20977  0.94312  0.49558  1.0000
  H   H874      1.0  0.00376  0.89543  0.54194  1.0000
  H   H875      1.0  0.17220  0.97810  0.48403  1.0000
  H   H876      1.0  0.09398  0.95233  0.48717  1.0000
  Fe  Fe90      1.0  0.99237  0.91239  0.50733  1.0000
  C   C532      1.0  0.99016  0.86866  0.53056  1.0000
  H   H877      1.0  0.04093  0.98064  0.39401  1.0000
  H   H878      1.0  0.02851  0.91717  0.47888  1.0000
  H   H879      1.0  0.99041  0.84782  0.44977  1.0000
  H   H880      1.0  0.04133  0.91472  0.45012  1.0000
  C   C533      1.0  0.99602  0.86337  0.51291  1.0000
  H   H881      1.0  0.16343  0.95638  0.45469  1.0000
  H   H882      1.0  0.07296  0.97239  0.42375  1.0000
  C   C534      1.0  0.17253  0.93822  0.44635  1.0000
  C   C535      1.0  0.99282  0.88771  0.48640  1.0000
  Fe  Fe91      1.0  0.20402  0.96577  0.44426  1.0000
  H   H883      1.0  0.04113  0.90787  0.47467  1.0000
  C   C536      1.0  0.15792  0.95091  0.45554  1.0000
  N   N61       1.0  0.99329  0.73163  0.48078  1.0000
  C   C537      1.0  0.05212  0.95163  0.49369  1.0000
  H   H884      1.0  0.16800  0.98808  0.55097  1.0000
  H   H885      1.0  0.02366  0.92726  0.45601  1.0000
  H   H886      1.0  0.22313  0.96024  0.50361  1.0000
  C   C538      1.0  0.98899  0.74368  0.47921  1.0000
  H   H887      1.0  0.99564  0.83190  0.46259  1.0000
  C   C539      1.0  0.00267  0.91182  0.40929  1.0000
  H   H888      1.0  0.21061  0.97164  0.47914  1.0000
  H   H889      1.0  0.99557  0.94461  0.43139  1.0000
  S   S206      1.0  0.22923  0.97950  0.50454  1.0000
  H   H890      1.0  0.01871  0.96046  0.49630  1.0000
  C   C540      1.0  0.00565  0.81064  0.46397  1.0000
  H   H891      1.0  0.00122  0.88580  0.55479  1.0000
  H   H892      1.0  0.08581  0.94637  0.51777  1.0000
  H   H893      1.0  0.01675  0.87154  0.56110  1.0000
  S   S207      1.0  0.19417  0.95695  0.43939  1.0000
  H   H894      1.0  0.99182  0.66517  0.48814  1.0000
  H   H895      1.0  0.18743  0.98708  0.42147  1.0000
  H   H896      1.0  0.01892  0.90314  0.47924  1.0000
  H   H897      1.0  0.07161  0.98081  0.53631  1.0000
  C   C541      1.0  0.00002  0.95327  0.50428  1.0000
  C   C542      1.0  0.16629  0.96990  0.42849  1.0000
  C   C543      1.0  0.17603  0.97333  0.44356  1.0000
  C   C544      1.0  0.04569  0.94591  0.49139  1.0000
  H   H898      1.0  0.22958  0.95043  0.49500  1.0000
  C   C545      1.0  0.17232  0.96902  0.53974  1.0000
  C   C546      1.0  0.17939  0.96055  0.54536  1.0000
  C   C547      1.0  0.19061  0.95841  0.54086  1.0000
  C   C548      1.0  0.19495  0.96503  0.53094  1.0000
  C   C549      1.0  0.18792  0.97375  0.52541  1.0000
  C   C550      1.0  0.17661  0.97560  0.52972  1.0000
  H   H899      1.0  0.99247  0.74739  0.48386  1.0000
  H   H900      1.0  0.19596  0.95162  0.54514  1.0000
  H   H901      1.0  0.21921  0.94739  0.50721  1.0000
  H   H902      1.0  0.15523  0.97799  0.46546  1.0000
  H   H903      1.0  0.99527  0.90118  0.45948  1.0000
  C   C551      1.0  0.04800  0.97748  0.39804  1.0000
  C   C552      1.0  0.02049  0.91991  0.46121  1.0000
  Fe  Fe92      1.0  0.14284  0.96719  0.51605  1.0000
  H   H904      1.0  0.00226  0.93756  0.49324  1.0000
  C   C553      1.0  0.03450  0.91451  0.47160  1.0000
  S   S208      1.0  0.99205  0.89353  0.43792  1.0000
  S   S209      1.0  0.19837  0.98399  0.44246  1.0000
  C   C554      1.0  0.04882  0.94228  0.48153  1.0000
  S   S210      1.0  0.06704  0.97720  0.51073  1.0000
  H   H905      1.0  0.15409  0.95398  0.44826  1.0000
  C   C555      1.0  0.09508  0.96386  0.44099  1.0000
  H   H906      1.0  0.99779  0.91557  0.46713  1.0000
  H   H907      1.0  0.06125  0.94083  0.46672  1.0000
  H   H908      1.0  0.06684  0.97814  0.40176  1.0000
  H   H909      1.0  0.00981  0.87026  0.54555  1.0000
  H   H910      1.0  0.98972  0.67967  0.48690  1.0000
  C   C556      1.0  0.13351  0.94750  0.48289  1.0000
  C   C557      1.0  0.14107  0.93896  0.48775  1.0000
  C   C558      1.0  0.14552  0.94056  0.49569  1.0000
  C   C559      1.0  0.14216  0.95057  0.49910  1.0000
  C   C560      1.0  0.13403  0.95887  0.49481  1.0000
  C   C561      1.0  0.12979  0.95737  0.48660  1.0000
  H   H911      1.0  0.14375  0.93120  0.48516  1.0000
  H   H912      1.0  0.15166  0.93405  0.49916  1.0000
  H   H913      1.0  0.13112  0.96647  0.49767  1.0000
  H   H914      1.0  0.12361  0.96387  0.48320  1.0000
  C   C562      1.0  0.02016  0.95050  0.52894  1.0000
  C   C563      1.0  0.00931  0.94997  0.53023  1.0000
  C   C564      1.0  0.00657  0.93990  0.53128  1.0000
  C   C565      1.0  0.01467  0.93022  0.53134  1.0000
  C   C566      1.0  0.02552  0.93073  0.53013  1.0000
  C   C567      1.0  0.02828  0.94085  0.52878  1.0000
  C   C568      1.0  0.07899  0.97003  0.42868  1.0000
  H   H915      1.0  0.99743  0.76101  0.43748  1.0000
  H   H916      1.0  0.03183  0.92327  0.53019  1.0000
  H   H917      1.0  0.03666  0.94116  0.52784  1.0000
  C   C569      1.0  0.08471  0.96658  0.53470  1.0000
  C   C570      1.0  0.08030  0.97760  0.53533  1.0000
  C   C571      1.0  0.00335  0.81068  0.48316  1.0000
  H   H918      1.0  0.01001  0.90519  0.40761  1.0000
  C   C572      1.0  0.10279  0.96928  0.53309  1.0000
  C   C573      1.0  0.09594  0.96241  0.53368  1.0000
  H   H919      1.0  0.99286  0.66716  0.43689  1.0000
  H   H920      1.0  0.10333  0.93968  0.49130  1.0000
  H   H921      1.0  0.11145  0.96602  0.53225  1.0000
  H   H922      1.0  0.09934  0.95384  0.53344  1.0000
  C   C574      1.0  0.02104  0.92894  0.43244  1.0000
  C   C575      1.0  0.01245  0.93822  0.43227  1.0000
  C   C576      1.0  0.00209  0.93733  0.43195  1.0000
  C   C577      1.0  0.00014  0.92710  0.43227  1.0000
  C   C578      1.0  0.00862  0.91774  0.43299  1.0000
  C   C579      1.0  0.01907  0.91872  0.43280  1.0000
  H   H923      1.0  0.01389  0.94614  0.43194  1.0000
  S   S211      1.0  0.99441  0.84401  0.50959  1.0000
  H   H924      1.0  0.00723  0.90981  0.43331  1.0000
  H   H925      1.0  0.02569  0.91152  0.43284  1.0000
  C   C580      1.0  0.08187  0.95904  0.43413  1.0000
  C   C581      1.0  0.08996  0.95596  0.44025  1.0000
  H   H926      1.0  0.19008  0.98847  0.49513  1.0000
  H   H927      1.0  0.16174  0.98628  0.44648  1.0000
  S   S212      1.0  0.23071  0.97438  0.53045  1.0000
  S   S213      1.0  0.04349  0.97805  0.50630  1.0000
  H   H928      1.0  0.02405  0.93535  0.49781  1.0000
  H   H929      1.0  0.21919  0.94732  0.48294  1.0000
  C   C582      1.0  0.99499  0.89966  0.46820  1.0000
  C   C583      1.0  0.21668  0.96796  0.48441  1.0000
  H   H930      1.0  0.22459  0.96498  0.47901  1.0000
  H   H931      1.0  0.00865  0.72036  0.47714  1.0000
  H   H932      1.0  0.03338  0.88402  0.53457  1.0000
  C   C584      1.0  0.06499  0.97845  0.45816  1.0000
  H   H933      1.0  0.02213  0.89423  0.53004  1.0000
  H   H934      1.0  0.00214  0.95682  0.51011  1.0000
  H   H935      1.0  0.01978  0.94252  0.50881  1.0000
  H   H936      1.0  0.00572  0.80169  0.46598  1.0000
  C   C585      1.0  0.99626  0.90583  0.48376  1.0000
  S   S214      1.0  0.98817  0.87826  0.53861  1.0000
  H   H937      1.0  0.16261  0.96869  0.42252  1.0000
  Fe  Fe93      1.0  0.13422  0.98118  0.44397  1.0000
  H   H938      1.0  0.99712  0.87879  0.51539  1.0000
  H   H939      1.0  0.19734  0.98421  0.55048  1.0000
  H   H940      1.0  0.01094  0.96433  0.48580  1.0000
  C   C586      1.0  0.05938  0.98152  0.40752  1.0000
  H   H941      1.0  0.99907  0.90986  0.41828  1.0000
  S   S215      1.0  0.21896  0.98306  0.45260  1.0000
  H   H942      1.0  0.98928  0.73059  0.46613  1.0000
  H   H943      1.0  0.06439  0.97131  0.46529  1.0000
  H   H944      1.0  0.18647  0.97728  0.55282  1.0000
  H   H945      1.0  0.01184  0.81155  0.48183  1.0000
  H   H946      1.0  0.16099  0.97259  0.49321  1.0000
  H   H947      1.0  0.08497  0.98066  0.45710  1.0000
  S   S216      1.0  0.19032  0.98780  0.47309  1.0000
  H   H948      1.0  0.99541  0.72969  0.49720  1.0000
  H   H949      1.0  0.99403  0.91588  0.38573  1.0000
  C   C587      1.0  0.16092  0.97805  0.43451  1.0000
  H   H950      1.0  0.07856  0.97652  0.47122  1.0000
  H   H951      1.0  0.98988  0.77714  0.44627  1.0000
  H   H952      1.0  0.19116  0.97900  0.51779  1.0000
  H   H953      1.0  0.99447  0.95994  0.49967  1.0000
  H   H954      1.0  0.05095  0.97881  0.43418  1.0000
  H   H955      1.0  0.00333  0.80172  0.48575  1.0000
  C   C588      1.0  0.99448  0.89577  0.49070  1.0000
  H   H956      1.0  0.17119  0.98227  0.52546  1.0000
  H   H957      1.0  0.07125  0.97538  0.45126  1.0000
  C   C589      1.0  0.04786  0.98745  0.43425  1.0000
  H   H958      1.0  0.99538  0.94691  0.50933  1.0000
  H   H959      1.0  0.16869  0.97357  0.46825  1.0000
  S   S217      1.0  0.09853  0.98496  0.43594  1.0000
  H   H960      1.0  0.99387  0.83202  0.47683  1.0000
  Fe  Fe94      1.0  0.05004  0.98709  0.51456  1.0000
  H   H961      1.0  0.99416  0.71738  0.49423  1.0000
  Fe  Fe95      1.0  0.21598  0.98436  0.43597  1.0000
  H   H962      1.0  0.08232  0.98628  0.42464  1.0000
  S   S218      1.0  0.10666  0.98895  0.53365  1.0000
  H   H963      1.0  0.99978  0.86508  0.50421  1.0000
  C   C590      1.0  0.99255  0.85347  0.51775  1.0000
  C   C591      1.0  0.99460  0.87108  0.51924  1.0000
  C   C592      1.0  0.99026  0.76106  0.44413  1.0000
  H   H964      1.0  0.05521  0.97428  0.39192  1.0000
  C   C593      1.0  0.99126  0.72651  0.49271  1.0000
  H   H965      1.0  0.14055  0.98921  0.47687  1.0000
  H   H966      1.0  0.17542  0.98847  0.56654  1.0000
  C   C594      1.0  0.14543  0.98625  0.48333  1.0000
  H   H967      1.0  0.99791  0.89522  0.40408  1.0000
  S   S219      1.0  0.23763  0.95581  0.46112  1.0000
  Fe  Fe96      1.0  0.41389  0.05752  0.09603  1.0000
  S   S220      1.0  0.40943  0.05177  0.08348  1.0000
  S   S221      1.0  0.42836  0.06511  0.09091  1.0000
  Fe  Fe97      1.0  0.39409  0.05253  0.11395  1.0000
  S   S222      1.0  0.38800  0.04620  0.10281  1.0000
  S   S223      1.0  0.38331  0.05356  0.13084  1.0000
  Fe  Fe98      1.0  0.40544  0.03765  0.09753  1.0000
  S   S224      1.0  0.41252  0.01965  0.09731  1.0000
  Fe  Fe99      1.0  0.39257  0.06092  0.08990  1.0000
  S   S225      1.0  0.38110  0.07430  0.08068  1.0000
  S   S226      1.0  0.41117  0.04282  0.10975  1.0000
  S   S227      1.0  0.39746  0.06772  0.10144  1.0000
  S   S228      1.0  0.44453  0.05717  0.13432  1.0000
  Fe  Fe100     1.0  0.38351  0.03951  0.20119  1.0000
  S   S229      1.0  0.38220  0.05783  0.19679  1.0000
  H   H968      1.0  0.36930  0.00043  0.04519  1.0000
  Fe  Fe101     1.0  0.40776  0.03459  0.19933  1.0000
  S   S230      1.0  0.40851  0.05231  0.19499  1.0000
  S   S231      1.0  0.42282  0.02128  0.19917  1.0000
  Fe  Fe102     1.0  0.39342  0.05407  0.20835  1.0000
  S   S232      1.0  0.39061  0.06445  0.22068  1.0000
  Fe  Fe103     1.0  0.39738  0.05416  0.18387  1.0000
  S   S233      1.0  0.40251  0.06299  0.16627  1.0000
  S   S234      1.0  0.39359  0.03600  0.21371  1.0000
  S   S235      1.0  0.39774  0.03617  0.18730  1.0000
  Fe  Fe104     1.0  0.39652  0.06054  0.29243  1.0000
  S   S236      1.0  0.39603  0.04518  0.30571  1.0000
  S   S237      1.0  0.38867  0.07644  0.29788  1.0000
  Fe  Fe105     1.0  0.40990  0.04797  0.27456  1.0000
  S   S238      1.0  0.41106  0.03180  0.28682  1.0000
  S   S239      1.0  0.41854  0.04628  0.25725  1.0000
  Fe  Fe106     1.0  0.39331  0.03828  0.29290  1.0000
  S   S240      1.0  0.38176  0.02760  0.29519  1.0000
  Fe  Fe107     1.0  0.41376  0.04074  0.29803  1.0000
  S   S241      1.0  0.42603  0.03395  0.30879  1.0000
  S   S242      1.0  0.39196  0.05412  0.28025  1.0000
  S   S243      1.0  0.41438  0.05637  0.28509  1.0000
  S   S244      1.0  0.44864  0.01830  0.23469  1.0000
  S   S245      1.0  0.45115  0.06980  0.30664  1.0000
  Fe  Fe108     1.0  0.40002  0.29375  0.02262  1.0000
  S   S246      1.0  0.39451  0.29912  0.00674  1.0000
  S   S247      1.0  0.40152  0.27579  0.03151  1.0000
  H   H969      1.0  0.41064  0.00292  0.26900  1.0000
  C   C595      1.0  0.43402  0.27276  0.01654  1.0000
  H   H970      1.0  0.42393  0.28490  0.00051  1.0000
  S   S248      1.0  0.41646  0.19751  0.04426  1.0000
  H   H971      1.0  0.46882  0.18877  0.00826  1.0000
  C   C596      1.0  0.47218  0.01829  0.18421  1.0000
  S   S249      1.0  0.42169  0.99817  0.14803  1.0000
  H   H972      1.0  0.45589  0.04209  0.25216  1.0000
  H   H973      1.0  0.47732  0.20286  0.99340  1.0000
  C   C597      1.0  0.43075  0.31732  0.98979  1.0000
  N   N62       1.0  0.41675  0.25551  0.05591  1.0000
  H   H974      1.0  0.42932  0.15502  0.03320  1.0000
  S   S250      1.0  0.39557  0.21614  0.02626  1.0000
  H   H975      1.0  0.42189  0.99340  0.27422  1.0000
  H   H976      1.0  0.47451  0.06744  0.26898  1.0000
  S   S251      1.0  0.37807  0.19939  0.01934  1.0000
  Fe  Fe109     1.0  0.40537  0.22370  0.01008  1.0000
  S   S252      1.0  0.40524  0.24178  0.00268  1.0000
  C   C598      1.0  0.42507  0.21575  0.03921  1.0000
  H   H977      1.0  0.42540  0.15601  0.06239  1.0000
  H   H978      1.0  0.41189  0.17373  0.05772  1.0000
  S   S253      1.0  0.40868  0.19199  0.02026  1.0000
  H   H979      1.0  0.38062  0.99411  0.31914  1.0000
  H   H980      1.0  0.39491  0.03273  0.14222  1.0000
  C   C599      1.0  0.43353  0.22002  0.05149  1.0000
  Fe  Fe110     1.0  0.39509  0.11470  0.02538  1.0000
  S   S254      1.0  0.40008  0.12581  0.03254  1.0000
  S   S255      1.0  0.40164  0.09667  0.03187  1.0000
  Fe  Fe111     1.0  0.38489  0.13797  0.02912  1.0000
  S   S256      1.0  0.37473  0.14957  0.04001  1.0000
  Fe  Fe112     1.0  0.40739  0.13288  0.01500  1.0000
  S   S257      1.0  0.42396  0.13650  0.00955  1.0000
  S   S258      1.0  0.37881  0.12616  0.02365  1.0000
  S   S259      1.0  0.40342  0.12104  0.00793  1.0000
  H   H981      1.0  0.46231  0.01110  0.11529  1.0000
  C   C600      1.0  0.42796  0.13472  0.02182  1.0000
  C   C601      1.0  0.42003  0.13633  0.03134  1.0000
  C   C602      1.0  0.42274  0.13271  0.04167  1.0000
  C   C603      1.0  0.43356  0.12813  0.04237  1.0000
  C   C604      1.0  0.44163  0.12723  0.03277  1.0000
  C   C605      1.0  0.43882  0.13049  0.02246  1.0000
  H   H982      1.0  0.41179  0.14049  0.03071  1.0000
  H   H983      1.0  0.41652  0.13371  0.04905  1.0000
  H   H984      1.0  0.45001  0.12379  0.03333  1.0000
  H   H985      1.0  0.44499  0.12947  0.01505  1.0000
  C   C606      1.0  0.37772  0.18546  0.02550  1.0000
  C   C607      1.0  0.36776  0.18286  0.03154  1.0000
  C   C608      1.0  0.36703  0.17187  0.03620  1.0000
  C   C609      1.0  0.37617  0.16331  0.03461  1.0000
  C   C610      1.0  0.38617  0.16584  0.02849  1.0000
  C   C611      1.0  0.38695  0.17691  0.02397  1.0000
  H   H986      1.0  0.36058  0.18940  0.03269  1.0000
  H   H987      1.0  0.35929  0.16998  0.04090  1.0000
  H   H988      1.0  0.39330  0.15929  0.02729  1.0000
  H   H989      1.0  0.39460  0.17880  0.01908  1.0000
  H   H990      1.0  0.40501  0.16610  0.05319  1.0000
  H   H991      1.0  0.44710  0.28931  0.99441  1.0000
  C   C612      1.0  0.47237  0.06000  0.24645  1.0000
  C   C613      1.0  0.35805  0.31714  0.99746  1.0000
  C   C614      1.0  0.36750  0.08847  0.10200  1.0000
  H   H992      1.0  0.39159  0.17000  0.99949  1.0000
  S   S260      1.0  0.45158  0.23732  0.99904  1.0000
  H   H993      1.0  0.37475  0.99105  0.22358  1.0000
  H   H994      1.0  0.43290  0.20910  0.06751  1.0000
  H   H995      1.0  0.42341  0.19695  0.06360  1.0000
  C   C615      1.0  0.40326  0.26607  0.02350  1.0000
  C   C616      1.0  0.40128  0.25552  0.02871  1.0000
  C   C617      1.0  0.40229  0.24781  0.02246  1.0000
  C   C618      1.0  0.40534  0.25058  0.01094  1.0000
  C   C619      1.0  0.40772  0.26097  0.00578  1.0000
  C   C620      1.0  0.40662  0.26870  0.01201  1.0000
  H   H996      1.0  0.39867  0.25337  0.03759  1.0000
  H   H997      1.0  0.40044  0.23982  0.02653  1.0000
  H   H998      1.0  0.41536  0.27019  0.06134  1.0000
  H   H999      1.0  0.40822  0.27675  0.00789  1.0000
  C   C621      1.0  0.38373  0.08405  0.31674  1.0000
  N   N63       1.0  0.44981  0.02589  0.11568  1.0000
  C   C622      1.0  0.35074  0.00877  0.22036  1.0000
  H   H1000     1.0  0.41707  0.06732  0.22700  1.0000
  H   H1001     1.0  0.42911  0.06199  0.19873  1.0000
  H   H1002     1.0  0.36238  0.03661  0.24425  1.0000
  H   H1003     1.0  0.35082  0.00818  0.21191  1.0000
  H   H1004     1.0  0.45765  0.26448  0.03035  1.0000
  C   C623      1.0  0.42534  0.20412  0.05742  1.0000
  Fe  Fe113     1.0  0.46259  0.14837  0.04918  1.0000
  H   H1005     1.0  0.47719  0.07353  0.31678  1.0000
  H   H1006     1.0  0.34941  0.09280  0.11765  1.0000
  S   S261      1.0  0.47129  0.04594  0.11481  1.0000
  H   H1007     1.0  0.44534  0.00301  0.31195  1.0000
  S   S262      1.0  0.40190  0.21339  0.00054  1.0000
  C   C624      1.0  0.43726  0.99729  0.25595  1.0000
  H   H1008     1.0  0.36607  0.07442  0.12869  1.0000
  C   C625      1.0  0.43215  0.04416  0.30952  1.0000
  C   C626      1.0  0.44142  0.04111  0.31396  1.0000
  H   H1009     1.0  0.44071  0.10691  0.99737  1.0000
  C   C627      1.0  0.44352  0.06006  0.30832  1.0000
  C   C628      1.0  0.43393  0.06322  0.30446  1.0000
  C   C629      1.0  0.42821  0.05530  0.30519  1.0000
  S   S263      1.0  0.48042  0.25608  0.02077  1.0000
  H   H1010     1.0  0.42155  0.00796  0.27034  1.0000
  H   H1011     1.0  0.43108  0.07173  0.30062  1.0000
  H   H1012     1.0  0.42078  0.05786  0.30233  1.0000
  H   H1013     1.0  0.36726  0.08850  0.12289  1.0000
  C   C630      1.0  0.36764  0.28078  0.99495  1.0000
  C   C631      1.0  0.43599  0.07651  0.20492  1.0000
  C   C632      1.0  0.41658  0.07964  0.20668  1.0000
  S   S264      1.0  0.48286  0.06854  0.29455  1.0000
  C   C633      1.0  0.39804  0.05895  0.23112  1.0000
  C   C634      1.0  0.39589  0.06443  0.23969  1.0000
  C   C635      1.0  0.40182  0.06030  0.24804  1.0000
  C   C636      1.0  0.41014  0.05082  0.24768  1.0000
  C   C637      1.0  0.41221  0.04526  0.23919  1.0000
  C   C638      1.0  0.40608  0.04922  0.23099  1.0000
  H   H1014     1.0  0.38969  0.07197  0.23982  1.0000
  H   H1015     1.0  0.40024  0.06468  0.25453  1.0000
  H   H1016     1.0  0.41856  0.03785  0.23899  1.0000
  H   H1017     1.0  0.40768  0.04484  0.22452  1.0000
  C   C639      1.0  0.43010  0.02064  0.20889  1.0000
  C   C640      1.0  0.43704  0.01071  0.21261  1.0000
  C   C641      1.0  0.44261  0.00992  0.22070  1.0000
  C   C642      1.0  0.44153  0.01918  0.22476  1.0000
  C   C643      1.0  0.43488  0.02921  0.22078  1.0000
  C   C644      1.0  0.42898  0.02989  0.21300  1.0000
  H   H1018     1.0  0.43805  0.00356  0.20936  1.0000
  H   H1019     1.0  0.44788  0.00220  0.22366  1.0000
  H   H1020     1.0  0.43415  0.03639  0.22386  1.0000
  H   H1021     1.0  0.42367  0.03757  0.21010  1.0000
  C   C645      1.0  0.38709  0.08071  0.06729  1.0000
  C   C646      1.0  0.39686  0.07534  0.06142  1.0000
  C   C647      1.0  0.40127  0.08036  0.05058  1.0000
  C   C648      1.0  0.39604  0.09084  0.04561  1.0000
  C   C649      1.0  0.38647  0.09639  0.05159  1.0000
  C   C650      1.0  0.38194  0.09127  0.06238  1.0000
  H   H1022     1.0  0.40080  0.06715  0.06506  1.0000
  H   H1023     1.0  0.40864  0.07599  0.04597  1.0000
  H   H1024     1.0  0.38239  0.10448  0.04780  1.0000
  H   H1025     1.0  0.37437  0.09547  0.06686  1.0000
  C   C651      1.0  0.38830  0.05717  0.14036  1.0000
  C   C652      1.0  0.38230  0.05655  0.15126  1.0000
  C   C653      1.0  0.38658  0.05831  0.15930  1.0000
  C   C654      1.0  0.39673  0.06109  0.15637  1.0000
  C   C655      1.0  0.40243  0.06232  0.14534  1.0000
  C   C656      1.0  0.39833  0.06019  0.13738  1.0000
  H   H1026     1.0  0.37442  0.05447  0.15357  1.0000
  H   H1027     1.0  0.38201  0.05760  0.16775  1.0000
  H   H1028     1.0  0.41012  0.06481  0.14302  1.0000
  H   H1029     1.0  0.40291  0.06089  0.12896  1.0000
  C   C657      1.0  0.40830  0.01356  0.08908  1.0000
  S   S265      1.0  0.42958  0.19142  0.99301  1.0000
  C   C658      1.0  0.39928  0.01884  0.08436  1.0000
  H   H1030     1.0  0.37430  0.01120  0.28988  1.0000
  H   H1031     1.0  0.39494  0.02704  0.08540  1.0000
  C   C659      1.0  0.43242  0.06424  0.10293  1.0000
  C   C660      1.0  0.42564  0.06118  0.11318  1.0000
  C   C661      1.0  0.42926  0.05931  0.12288  1.0000
  C   C662      1.0  0.43955  0.06076  0.12232  1.0000
  C   C663      1.0  0.44617  0.06429  0.11208  1.0000
  C   C664      1.0  0.44261  0.06600  0.10235  1.0000
  H   H1032     1.0  0.41767  0.06013  0.11362  1.0000
  H   H1033     1.0  0.42423  0.05643  0.13076  1.0000
  H   H1034     1.0  0.45406  0.06566  0.11161  1.0000
  H   H1035     1.0  0.44785  0.06846  0.09442  1.0000
  C   C665      1.0  0.44833  0.19670  0.00604  1.0000
  Fe  Fe114     1.0  0.46253  0.05445  0.12870  1.0000
  H   H1036     1.0  0.38134  0.00706  0.30968  1.0000
  N   N64       1.0  0.36344  0.08072  0.11215  1.0000
  Fe  Fe115     1.0  0.39371  0.20460  0.01702  1.0000
  H   H1037     1.0  0.44977  0.03661  0.12575  1.0000
  C   C666      1.0  0.39187  0.02723  0.27367  1.0000
  C   C667      1.0  0.47031  0.20892  0.99106  1.0000
  C   C668      1.0  0.43072  0.22240  0.04128  1.0000
  H   H1038     1.0  0.36319  0.06345  0.11736  1.0000
  H   H1039     1.0  0.43893  0.16520  0.04024  1.0000
  H   H1040     1.0  0.42908  0.17774  0.03678  1.0000
  H   H1041     1.0  0.44335  0.07094  0.20769  1.0000
  H   H1042     1.0  0.46657  0.06389  0.15070  1.0000
  N   N65       1.0  0.41808  0.09460  0.06830  1.0000
  C   C669      1.0  0.41111  0.08689  0.07521  1.0000
  C   C670      1.0  0.42945  0.08978  0.06944  1.0000
  C   C671      1.0  0.41429  0.10517  0.07191  1.0000
  C   C672      1.0  0.41749  0.09659  0.05663  1.0000
  H   H1043     1.0  0.40248  0.09015  0.07446  1.0000
  H   H1044     1.0  0.41133  0.08524  0.08407  1.0000
  H   H1045     1.0  0.41388  0.07876  0.07280  1.0000
  H   H1046     1.0  0.43497  0.09537  0.06435  1.0000
  H   H1047     1.0  0.43017  0.08818  0.07816  1.0000
  H   H1048     1.0  0.43259  0.08171  0.06692  1.0000
  H   H1049     1.0  0.41464  0.10397  0.08068  1.0000
  H   H1050     1.0  0.40575  0.10909  0.07112  1.0000
  H   H1051     1.0  0.41945  0.11113  0.06688  1.0000
  H   H1052     1.0  0.40899  0.10019  0.05550  1.0000
  H   H1053     1.0  0.42027  0.08878  0.05364  1.0000
  H   H1054     1.0  0.42261  0.10243  0.05122  1.0000
  H   H1055     1.0  0.37785  0.07737  0.11847  1.0000
  C   C673      1.0  0.36886  0.08028  0.12093  1.0000
  S   S266      1.0  0.39270  0.14584  0.01222  1.0000
  H   H1056     1.0  0.45308  0.06306  0.16849  1.0000
  N   N66       1.0  0.45190  0.19057  0.01635  1.0000
  H   H1057     1.0  0.43515  0.08468  0.20665  1.0000
  H   H1058     1.0  0.43288  0.22940  0.03496  1.0000
  H   H1059     1.0  0.34879  0.00044  0.24219  1.0000
  N   N67       1.0  0.43926  0.27634  0.00484  1.0000
  H   H1060     1.0  0.37577  0.05890  0.25263  1.0000
  H   H1061     1.0  0.41872  0.14877  0.05719  1.0000
  H   H1062     1.0  0.47832  0.99696  0.29242  1.0000
  C   C674      1.0  0.47495  0.00427  0.29575  1.0000
  C   C675      1.0  0.37013  0.02293  0.19719  1.0000
  C   C676      1.0  0.37206  0.00623  0.18631  1.0000
  H   H1063     1.0  0.44434  0.20393  0.02471  1.0000
  H   H1064     1.0  0.37474  0.06669  0.10694  1.0000
  C   C677      1.0  0.47673  0.06332  0.26220  1.0000
  H   H1065     1.0  0.36568  0.09698  0.10333  1.0000
  C   C678      1.0  0.39577  0.01339  0.07842  1.0000
  S   S267      1.0  0.36854  0.03278  0.20478  1.0000
  C   C679      1.0  0.40603  0.99585  0.12509  1.0000
  C   C680      1.0  0.43793  0.02932  0.11649  1.0000
  C   C681      1.0  0.37390  0.18620  0.99648  1.0000
  C   C682      1.0  0.38531  0.00072  0.31598  1.0000
  H   H1066     1.0  0.36191  0.27522  0.99912  1.0000
  N   N68       1.0  0.41353  0.99244  0.20969  1.0000
  H   H1067     1.0  0.36504  0.18985  0.99858  1.0000
  H   H1068     1.0  0.35018  0.31110  0.98847  1.0000
  C   C683      1.0  0.41027  0.99744  0.08190  1.0000
  C   C684      1.0  0.46506  0.11623  0.00881  1.0000
  C   C685      1.0  0.38466  0.02286  0.28303  1.0000
  C   C686      1.0  0.43067  0.21099  0.05964  1.0000
  H   H1069     1.0  0.35353  0.01641  0.21951  1.0000
  C   C687      1.0  0.47610  0.05689  0.17817  1.0000
  H   H1070     1.0  0.42347  0.07850  0.22487  1.0000
  C   C688      1.0  0.42259  0.20647  0.04717  1.0000
  H   H1071     1.0  0.43232  0.03840  0.27550  1.0000
  H   H1072     1.0  0.40445  0.00271  0.11787  1.0000
  C   C689      1.0  0.40114  0.00259  0.07737  1.0000
  H   H1073     1.0  0.40904  0.07643  0.21075  1.0000
  H   H1074     1.0  0.47353  0.00558  0.23580  1.0000
  H   H1075     1.0  0.46604  0.18683  0.02291  1.0000
  C   C690      1.0  0.48183  0.99482  0.26000  1.0000
  C   C691      1.0  0.42142  0.25116  0.04577  1.0000
  H   H1076     1.0  0.44438  0.03259  0.31761  1.0000
  C   C692      1.0  0.48081  0.09877  0.09072  1.0000
  H   H1077     1.0  0.45401  0.02680  0.29517  1.0000
  S   S268      1.0  0.42132  0.21235  0.01249  1.0000
  C   C693      1.0  0.46163  0.06142  0.16841  1.0000
  H   H1078     1.0  0.39557  0.03363  0.27381  1.0000
  H   H1079     1.0  0.38482  0.31801  0.99048  1.0000
  C   C694      1.0  0.46615  0.16267  0.07623  1.0000
  H   H1080     1.0  0.37646  0.08591  0.09907  1.0000
  H   H1081     1.0  0.42013  0.16798  0.02955  1.0000
  H   H1082     1.0  0.43133  0.17299  0.05050  1.0000
  Fe  Fe116     1.0  0.45857  0.03092  0.22657  1.0000
  H   H1083     1.0  0.35360  0.02811  0.19512  1.0000
  H   H1084     1.0  0.43042  0.25018  0.04337  1.0000
  N   N69       1.0  0.39475  0.02285  0.15864  1.0000
  C   C695      1.0  0.38471  0.02985  0.16379  1.0000
  C   C696      1.0  0.39192  0.01371  0.15608  1.0000
  C   C697      1.0  0.40219  0.01840  0.16634  1.0000
  C   C698      1.0  0.40019  0.02942  0.14834  1.0000
  H   H1085     1.0  0.37923  0.03395  0.15793  1.0000
  H   H1086     1.0  0.38656  0.03633  0.16663  1.0000
  H   H1087     1.0  0.38003  0.02497  0.17113  1.0000
  H   H1088     1.0  0.39922  0.00846  0.15182  1.0000
  H   H1089     1.0  0.38817  0.00833  0.16370  1.0000
  H   H1090     1.0  0.38599  0.01683  0.15061  1.0000
  H   H1091     1.0  0.41861  0.00176  0.21797  1.0000
  H   H1092     1.0  0.39821  0.01386  0.17440  1.0000
  H   H1093     1.0  0.40493  0.02509  0.16793  1.0000
  H   H1094     1.0  0.40111  0.25920  0.06678  1.0000
  H   H1095     1.0  0.40790  0.02437  0.14440  1.0000
  H   H1096     1.0  0.40219  0.03658  0.14991  1.0000
  C   C699      1.0  0.38578  0.28358  0.99187  1.0000
  N   N70       1.0  0.37027  0.04626  0.24929  1.0000
  C   C700      1.0  0.41393  0.00297  0.08758  1.0000
  C   C701      1.0  0.47646  0.08191  0.31794  1.0000
  C   C702      1.0  0.45690  0.22590  0.99296  1.0000
  H   H1097     1.0  0.39157  0.26194  0.99478  1.0000
  H   H1098     1.0  0.42629  0.00985  0.24026  1.0000
  C   C703      1.0  0.46139  0.02119  0.29710  1.0000
  H   H1099     1.0  0.40922  0.17817  0.04416  1.0000
  H   H1100     1.0  0.44849  0.02290  0.13317  1.0000
  H   H1101     1.0  0.45468  0.26548  0.00669  1.0000
  H   H1102     1.0  0.44006  0.19586  0.00637  1.0000
  H   H1103     1.0  0.38874  0.01744  0.07485  1.0000
  H   H1104     1.0  0.38201  0.03221  0.24434  1.0000
  N   N71       1.0  0.35778  0.99890  0.22581  1.0000
  C   C704      1.0  0.48215  0.15635  0.06301  1.0000
  C   C705      1.0  0.41980  0.99665  0.19861  1.0000
  N   N72       1.0  0.43638  0.04318  0.16956  1.0000
  C   C706      1.0  0.43920  0.04145  0.18031  1.0000
  C   C707      1.0  0.43171  0.05498  0.16560  1.0000
  C   C708      1.0  0.42830  0.03668  0.17084  1.0000
  C   C709      1.0  0.44630  0.03958  0.16146  1.0000
  H   H1105     1.0  0.44256  0.03255  0.18354  1.0000
  H   H1106     1.0  0.43195  0.04406  0.18665  1.0000
  H   H1107     1.0  0.44535  0.04614  0.17968  1.0000
  H   H1108     1.0  0.43760  0.06018  0.16426  1.0000
  H   H1109     1.0  0.42934  0.05647  0.15758  1.0000
  H   H1110     1.0  0.42426  0.05805  0.17155  1.0000
  H   H1111     1.0  0.43140  0.02775  0.17410  1.0000
  H   H1112     1.0  0.42613  0.03760  0.16285  1.0000
  H   H1113     1.0  0.42067  0.03937  0.17674  1.0000
  H   H1114     1.0  0.45028  0.03085  0.16436  1.0000
  H   H1115     1.0  0.45231  0.04474  0.15985  1.0000
  H   H1116     1.0  0.44439  0.04024  0.15341  1.0000
  N   N73       1.0  0.42224  0.16387  0.04625  1.0000
  C   C710      1.0  0.42164  0.16067  0.03636  1.0000
  C   C711      1.0  0.41162  0.17073  0.05054  1.0000
  C   C712      1.0  0.43079  0.17022  0.04328  1.0000
  C   C713      1.0  0.42491  0.15388  0.05481  1.0000
  H   H1117     1.0  0.41487  0.15639  0.03819  1.0000
  H   H1118     1.0  0.42835  0.11553  0.00329  1.0000
  C   C714      1.0  0.42793  0.10484  0.02438  1.0000
  H   H1119     1.0  0.45278  0.04143  0.10536  1.0000
  H   H1120     1.0  0.37214  0.15928  0.00461  1.0000
  H   H1121     1.0  0.36380  0.08877  0.09511  1.0000
  H   H1122     1.0  0.43088  0.24762  0.06281  1.0000
  Fe  Fe117     1.0  0.41133  0.20411  0.02807  1.0000
  H   H1123     1.0  0.34826  0.07873  0.12341  1.0000
  S   S269      1.0  0.43713  0.12431  0.05512  1.0000
  H   H1124     1.0  0.42116  0.99899  0.09076  1.0000
  C   C715      1.0  0.36588  0.06963  0.10985  1.0000
  H   H1125     1.0  0.34726  0.08488  0.10934  1.0000
  H   H1126     1.0  0.40203  0.00933  0.31446  1.0000
  C   C716      1.0  0.35156  0.08446  0.11580  1.0000
  H   H1127     1.0  0.35540  0.01357  0.18526  1.0000
  C   C717      1.0  0.47610  0.01615  0.30668  1.0000
  C   C718      1.0  0.36977  0.05800  0.24849  1.0000
  C   C719      1.0  0.43604  0.10982  0.00502  1.0000
  H   H1128     1.0  0.39415  0.28005  0.99337  1.0000
  H   H1129     1.0  0.36196  0.06960  0.10325  1.0000
  H   H1130     1.0  0.41800  0.25669  0.03870  1.0000
  S   S270      1.0  0.46974  0.11726  0.04799  1.0000
  H   H1131     1.0  0.40316  0.24772  0.06061  1.0000
  C   C720      1.0  0.48436  0.09619  0.07212  1.0000
  H   H1132     1.0  0.43141  0.06467  0.22581  1.0000
  C   C721      1.0  0.37988  0.01462  0.28267  1.0000
  H   H1133     1.0  0.48080  0.03418  0.18532  1.0000
  C   C722      1.0  0.42740  0.09429  0.01189  1.0000
  C   C723      1.0  0.35774  0.31266  0.98887  1.0000
  H   H1134     1.0  0.42757  0.99823  0.19904  1.0000
  C   C724      1.0  0.36125  0.02223  0.19365  1.0000
  C   C725      1.0  0.48021  0.00651  0.30267  1.0000
  H   H1135     1.0  0.39806  0.99386  0.12982  1.0000
  Fe  Fe118     1.0  0.41706  0.20139  0.00440  1.0000
  H   H1136     1.0  0.36191  0.17120  0.00763  1.0000
  C   C726      1.0  0.38307  0.26542  0.99373  1.0000
  H   H1137     1.0  0.40281  0.06106  0.31192  1.0000
  C   C727      1.0  0.41104  0.00046  0.21673  1.0000
  C   C728      1.0  0.35723  0.99979  0.23711  1.0000
  S   S271      1.0  0.44927  0.00864  0.17513  1.0000
  H   H1138     1.0  0.43470  0.28208  0.98911  1.0000
  C   C729      1.0  0.47823  0.19055  0.03543  1.0000
  S   S272      1.0  0.44108  0.22803  0.05380  1.0000
  H   H1139     1.0  0.44368  0.17767  0.01850  1.0000
  H   H1140     1.0  0.46767  0.11834  0.02378  1.0000
  H   H1141     1.0  0.40649  0.00865  0.21297  1.0000
  H   H1142     1.0  0.41752  0.07635  0.31744  1.0000
  H   H1143     1.0  0.37201  0.00568  0.21843  1.0000
  C   C730      1.0  0.37998  0.01531  0.19530  1.0000
  H   H1144     1.0  0.43993  0.00375  0.25805  1.0000
  H   H1145     1.0  0.47218  0.27049  0.98965  1.0000
  Fe  Fe119     1.0  0.47476  0.21775  0.02666  1.0000
  H   H1146     1.0  0.44317  0.08588  0.02317  1.0000
  H   H1147     1.0  0.36865  0.03158  0.26196  1.0000
  C   C731      1.0  0.44441  0.19508  0.02572  1.0000
  H   H1148     1.0  0.44806  0.20565  0.00452  1.0000
  H   H1149     1.0  0.40957  0.01260  0.16298  1.0000
  H   H1150     1.0  0.37421  0.16766  0.01248  1.0000
  C   C732      1.0  0.39425  0.02343  0.26396  1.0000
  C   C733      1.0  0.46954  0.06534  0.25524  1.0000
  H   H1151     1.0  0.47880  0.05491  0.18580  1.0000
  C   C734      1.0  0.38243  0.01065  0.27300  1.0000
  H   H1152     1.0  0.39981  0.02691  0.25678  1.0000
  H   H1153     1.0  0.41853  0.25106  0.07275  1.0000
  H   H1154     1.0  0.44847  0.05920  0.25924  1.0000
  S   S273      1.0  0.45537  0.05708  0.19088  1.0000
  S   S274      1.0  0.37303  0.99608  0.17921  1.0000
  H   H1155     1.0  0.45371  0.02910  0.26104  1.0000
  H   H1156     1.0  0.42762  0.10161  0.31322  1.0000
  S   S275      1.0  0.48124  0.11749  0.07427  1.0000
  H   H1157     1.0  0.48074  0.15934  0.98980  1.0000
  H   H1158     1.0  0.47556  0.01190  0.19088  1.0000
  C   C735      1.0  0.38959  0.01509  0.26363  1.0000
  H   H1159     1.0  0.41362  0.01321  0.24949  1.0000
  H   H1160     1.0  0.42080  0.23959  0.06650  1.0000
  C   C736      1.0  0.47725  0.27350  0.99328  1.0000
  C   C737      1.0  0.46300  0.19170  0.01548  1.0000
  C   C738      1.0  0.45537  0.03245  0.10544  1.0000
  C   C739      1.0  0.45599  0.28199  0.02811  1.0000
  C   C740      1.0  0.48250  0.05277  0.24452  1.0000
  H   H1161     1.0  0.38270  0.29144  0.99474  1.0000
  H   H1162     1.0  0.37744  0.18653  0.00324  1.0000
  S   S276      1.0  0.46297  0.06224  0.23824  1.0000
  H   H1163     1.0  0.44206  0.02080  0.15518  1.0000
  H   H1164     1.0  0.46852  0.99539  0.24722  1.0000
  C   C741      1.0  0.42764  0.06122  0.20779  1.0000
  H   H1165     1.0  0.39976  0.01178  0.30087  1.0000
  H   H1166     1.0  0.46726  0.00901  0.24897  1.0000
  Fe  Fe120     1.0  0.45878  0.23417  0.01367  1.0000
  C   C742      1.0  0.44006  0.03738  0.27797  1.0000
  C   C743      1.0  0.36212  0.04538  0.24385  1.0000
  C   C744      1.0  0.42193  0.24815  0.06491  1.0000
  H   H1167     1.0  0.42679  0.98992  0.24555  1.0000
  H   H1168     1.0  0.42014  0.11065  0.02305  1.0000
  H   H1169     1.0  0.43518  0.05626  0.26336  1.0000
  H   H1170     1.0  0.41486  0.27244  0.04715  1.0000
  H   H1171     1.0  0.37168  0.06251  0.23973  1.0000
  C   C745      1.0  0.40491  0.25601  0.05913  1.0000
  H   H1172     1.0  0.45664  0.04473  0.27978  1.0000
  S   S277      1.0  0.45390  0.30430  0.02434  1.0000
  H   H1173     1.0  0.43591  0.19457  0.02649  1.0000
  H   H1174     1.0  0.37828  0.25906  0.99841  1.0000
  H   H1175     1.0  0.45265  0.26982  0.99288  1.0000
  S   S278      1.0  0.47145  0.22810  0.03903  1.0000
  H   H1176     1.0  0.46992  0.03825  0.17090  1.0000
  H   H1177     1.0  0.43476  0.05518  0.21057  1.0000
  N   N74       1.0  0.37599  0.17477  0.99512  1.0000
  S   S279      1.0  0.47664  0.23189  0.01203  1.0000
  H   H1178     1.0  0.43567  0.02807  0.10930  1.0000
  H   H1179     1.0  0.43291  0.14856  0.05185  1.0000
  H   H1180     1.0  0.46405  0.04525  0.26576  1.0000
  C   C746      1.0  0.44291  0.05477  0.26608  1.0000
  S   S280      1.0  0.45711  0.13543  0.06359  1.0000
  H   H1181     1.0  0.37875  0.00422  0.27283  1.0000
  Fe  Fe121     1.0  0.48248  0.03776  0.30722  1.0000
  H   H1182     1.0  0.44937  0.09016  0.00882  1.0000
  S   S281      1.0  0.39289  0.01006  0.25160  1.0000
  Fe  Fe122     1.0  0.45336  0.12857  0.05145  1.0000
  C   C747      1.0  0.46975  0.12035  0.01488  1.0000
  H   H1183     1.0  0.44255  0.03923  0.25621  1.0000
  H   H1184     1.0  0.38976  0.16176  0.99124  1.0000
  H   H1185     1.0  0.42279  0.21777  0.03138  1.0000
  C   C748      1.0  0.42251  0.01060  0.24891  1.0000
  C   C749      1.0  0.48201  0.10322  0.07934  1.0000
  Fe  Fe123     1.0  0.46858  0.06078  0.30328  1.0000
  S   S282      1.0  0.47980  0.13882  0.04568  1.0000
  H   H1186     1.0  0.41757  0.08089  0.19762  1.0000
  C   C750      1.0  0.46815  0.19341  0.04245  1.0000
  H   H1187     1.0  0.43342  0.02457  0.12409  1.0000
  H   H1188     1.0  0.46912  0.21851  0.00263  1.0000
  C   C751      1.0  0.44442  0.09317  0.01635  1.0000
  C   C752      1.0  0.37084  0.16793  0.00540  1.0000
  H   H1189     1.0  0.47892  0.10419  0.09634  1.0000
  H   H1190     1.0  0.37759  0.19162  0.98884  1.0000
  H   H1191     1.0  0.44676  0.19059  0.03369  1.0000
  N   N75       1.0  0.48088  0.02297  0.17577  1.0000
  C   C753      1.0  0.48558  0.01081  0.12070  1.0000
  S   S283      1.0  0.47382  0.04752  0.29370  1.0000
  H   H1192     1.0  0.38762  0.04188  0.24742  1.0000
  C   C754      1.0  0.46660  0.02334  0.30409  1.0000
  H   H1193     1.0  0.44733  0.28358  0.03155  1.0000
  H   H1194     1.0  0.42289  0.99639  0.10828  1.0000
  H   H1195     1.0  0.46334  0.03064  0.30740  1.0000
  Fe  Fe124     1.0  0.45401  0.23050  0.03846  1.0000
  C   C755      1.0  0.42223  0.99126  0.25391  1.0000
  Fe  Fe125     1.0  0.39073  0.99274  0.25708  1.0000
  H   H1196     1.0  0.46601  0.02472  0.18817  1.0000
  S   S284      1.0  0.45728  0.21919  0.02708  1.0000
  S   S285      1.0  0.45191  0.04901  0.22258  1.0000
  H   H1197     1.0  0.42685  0.27910  0.01930  1.0000
  H   H1198     1.0  0.34215  0.00983  0.22507  1.0000
  C   C756      1.0  0.41874  0.26667  0.05385  1.0000
  C   C757      1.0  0.39767  0.99163  0.30188  1.0000
  C   C758      1.0  0.37746  0.27370  0.00959  1.0000
  H   H1199     1.0  0.39399  0.99793  0.29533  1.0000
  S   S286      1.0  0.45362  0.24580  0.02505  1.0000
  C   C759      1.0  0.48030  0.12917  0.99787  1.0000
  H   H1200     1.0  0.44109  0.05864  0.27327  1.0000
  C   C760      1.0  0.45246  0.02776  0.12530  1.0000
  H   H1201     1.0  0.43125  0.01665  0.14445  1.0000
  H   H1202     1.0  0.38744  0.99015  0.04862  1.0000
  Fe  Fe126     1.0  0.38777  0.13339  0.00678  1.0000
  Fe  Fe127     1.0  0.47391  0.12520  0.05927  1.0000
  C   C761      1.0  0.45009  0.03809  0.25915  1.0000
  S   S287      1.0  0.47578  0.05038  0.31754  1.0000
  H   H1203     1.0  0.41517  0.08786  0.20860  1.0000
  C   C762      1.0  0.38122  0.04112  0.24374  1.0000
  C   C763      1.0  0.46134  0.29077  0.02414  1.0000
  H   H1204     1.0  0.45373  0.18806  0.05268  1.0000
  H   H1205     1.0  0.41942  0.09958  0.01043  1.0000
  H   H1206     1.0  0.47826  0.16371  0.03733  1.0000
  S   S288      1.0  0.38972  0.30876  0.02913  1.0000
  C   C764      1.0  0.47301  0.26917  0.02296  1.0000
  Fe  Fe128     1.0  0.47403  0.13190  0.03470  1.0000
  C   C765      1.0  0.46165  0.18566  0.04749  1.0000
  H   H1207     1.0  0.48285  0.01606  0.09418  1.0000
  C   C766      1.0  0.46180  0.27120  0.02740  1.0000
  C   C767      1.0  0.36802  0.04054  0.26103  1.0000
  H   H1208     1.0  0.48484  0.08343  0.31551  1.0000
  H   H1209     1.0  0.41971  0.24292  0.04691  1.0000
  Fe  Fe129     1.0  0.40862  0.30728  0.00043  1.0000
  H   H1210     1.0  0.44340  0.02839  0.28036  1.0000
  H   H1211     1.0  0.40606  0.99762  0.22504  1.0000
  N   N76       1.0  0.44779  0.04287  0.26891  1.0000
  H   H1212     1.0  0.46528  0.20166  0.04392  1.0000
  S   S289      1.0  0.47702  0.05140  0.21006  1.0000
  H   H1213     1.0  0.46194  0.03235  0.27454  1.0000
  H   H1214     1.0  0.39788  0.99861  0.20551  1.0000
  H   H1215     1.0  0.46140  0.02530  0.12489  1.0000
  H   H1216     1.0  0.43814  0.04077  0.28548  1.0000
  Fe  Fe130     1.0  0.40409  0.31658  0.02071  1.0000
  C   C768      1.0  0.45803  0.04124  0.27242  1.0000
  H   H1217     1.0  0.48028  0.99413  0.20883  1.0000
  C   C769      1.0  0.47255  0.28869  0.01987  1.0000
  H   H1218     1.0  0.43491  0.03822  0.11666  1.0000
  N   N77       1.0  0.47705  0.15524  0.07487  1.0000
  C   C770      1.0  0.44325  0.28641  0.00323  1.0000
  N   N78       1.0  0.37849  0.27586  0.99754  1.0000
  H   H1219     1.0  0.42760  0.26656  0.05132  1.0000
  S   S290      1.0  0.45722  0.14254  0.03731  1.0000
  H   H1220     1.0  0.47679  0.00143  0.26442  1.0000
  C   C771      1.0  0.36225  0.01397  0.18813  1.0000
  S   S291      1.0  0.46792  0.03036  0.20938  1.0000
  H   H1221     1.0  0.41170  0.00216  0.30443  1.0000
  S   S292      1.0  0.47234  0.03208  0.23279  1.0000
  H   H1222     1.0  0.41023  0.26314  0.99688  1.0000
  C   C772      1.0  0.45189  0.17879  0.01812  1.0000
  H   H1223     1.0  0.44916  0.00890  0.12294  1.0000
  H   H1224     1.0  0.36250  0.17809  0.98743  1.0000
  H   H1225     1.0  0.42555  0.08729  0.01888  1.0000
  C   C773      1.0  0.43944  0.01310  0.15779  1.0000
  S   S293      1.0  0.45933  0.00922  0.28382  1.0000
  C   C774      1.0  0.42446  0.07057  0.22255  1.0000
  S   S294      1.0  0.45630  0.16591  0.05112  1.0000
  C   C775      1.0  0.43173  0.32206  0.04160  1.0000
  H   H1226     1.0  0.44932  0.28503  0.00827  1.0000
  H   H1227     1.0  0.48087  0.08398  0.10362  1.0000
  C   C776      1.0  0.46568  0.01173  0.29279  1.0000
  H   H1228     1.0  0.47097  0.14117  0.07567  1.0000
  S   S295      1.0  0.39646  0.99558  0.07039  1.0000
  S   S296      1.0  0.47208  0.06761  0.12326  1.0000
  Fe  Fe131     1.0  0.38557  0.31473  0.01243  1.0000
  S   S297      1.0  0.47256  0.04331  0.14041  1.0000
  H   H1229     1.0  0.38308  0.04506  0.23482  1.0000
  H   H1230     1.0  0.38927  0.11712  0.99455  1.0000
  H   H1231     1.0  0.43652  0.29334  0.00554  1.0000
  H   H1232     1.0  0.43271  0.10943  0.02665  1.0000
  C   C777      1.0  0.43001  0.00075  0.15504  1.0000
  H   H1233     1.0  0.40926  0.99899  0.13042  1.0000
  Fe  Fe132     1.0  0.47148  0.24250  0.02446  1.0000
  H   H1234     1.0  0.42036  0.05762  0.21178  1.0000
  H   H1235     1.0  0.46326  0.20039  0.01473  1.0000
  H   H1236     1.0  0.45764  0.17511  0.01129  1.0000
  H   H1237     1.0  0.35974  0.04405  0.26547  1.0000
  N   N79       1.0  0.43395  0.10053  0.01441  1.0000
  S   S298      1.0  0.48313  0.01980  0.31426  1.0000
  H   H1238     1.0  0.38679  0.01575  0.19820  1.0000
  C   C778      1.0  0.47730  0.12692  0.00943  1.0000
  C   C779      1.0  0.36788  0.31879  0.99822  1.0000
  C   C780      1.0  0.43129  0.27865  0.99791  1.0000
  H   H1239     1.0  0.42576  0.09203  0.30651  1.0000
  H   H1240     1.0  0.45379  0.19359  0.99875  1.0000
  C   C781      1.0  0.44209  0.00548  0.16725  1.0000
  H   H1241     1.0  0.43370  0.31883  0.03396  1.0000
  H   H1242     1.0  0.37393  0.04125  0.26541  1.0000
  C   C782      1.0  0.39021  0.07586  0.31113  1.0000
  H   H1243     1.0  0.42862  0.27109  0.99826  1.0000
  H   H1244     1.0  0.46222  0.16246  0.08508  1.0000
  C   C783      1.0  0.36562  0.99467  0.05251  1.0000
  H   H1245     1.0  0.47208  0.14252  0.08871  1.0000
  H   H1246     1.0  0.38820  0.00060  0.18935  1.0000
  C   C784      1.0  0.46779  0.11871  0.99725  1.0000
  C   C785      1.0  0.46504  0.05871  0.17836  1.0000
  H   H1247     1.0  0.45354  0.03128  0.09799  1.0000
  C   C786      1.0  0.43263  0.99317  0.16448  1.0000
  C   C787      1.0  0.46572  0.21784  0.99622  1.0000
  H   H1248     1.0  0.46176  0.07102  0.25672  1.0000
  N   N80       1.0  0.42618  0.07198  0.21049  1.0000
  H   H1249     1.0  0.36995  0.99680  0.21104  1.0000
  H   H1250     1.0  0.41516  0.00454  0.19441  1.0000
  H   H1251     1.0  0.36364  0.04962  0.23496  1.0000
  H   H1252     1.0  0.36402  0.28876  0.99759  1.0000
  H   H1253     1.0  0.36158  0.06222  0.25245  1.0000
  H   H1254     1.0  0.37437  0.28147  0.01267  1.0000
  Fe  Fe133     1.0  0.46264  0.04869  0.20579  1.0000
  H   H1255     1.0  0.35373  0.04917  0.24780  1.0000
  H   H1256     1.0  0.48430  0.28946  0.99788  1.0000
  Fe  Fe134     1.0  0.46664  0.05033  0.22726  1.0000
  H   H1257     1.0  0.47217  0.27566  0.00115  1.0000
  C   C788      1.0  0.46518  0.17499  0.04554  1.0000
  C   C789      1.0  0.47549  0.17192  0.03893  1.0000
  S   S299      1.0  0.41478  0.30102  0.01598  1.0000
  C   C790      1.0  0.46927  0.06190  0.15833  1.0000
  H   H1258     1.0  0.45440  0.17395  0.02595  1.0000
  S   S300      1.0  0.46271  0.99462  0.20037  1.0000
  H   H1259     1.0  0.46701  0.29455  0.99184  1.0000
  C   C791      1.0  0.43878  0.99548  0.17048  1.0000
  H   H1260     1.0  0.44186  0.99658  0.24743  1.0000
  H   H1261     1.0  0.45922  0.11119  0.01312  1.0000
  Fe  Fe135     1.0  0.46229  0.31709  0.01190  1.0000
  H   H1262     1.0  0.44941  0.09753  0.01860  1.0000
  H   H1263     1.0  0.36011  0.00713  0.23702  1.0000
  H   H1264     1.0  0.35767  0.99428  0.05130  1.0000
  C   C792      1.0  0.44716  0.04903  0.31326  1.0000
  C   C793      1.0  0.44852  0.26745  0.00162  1.0000
  C   C794      1.0  0.42772  0.09280  0.31407  1.0000
  H   H1265     1.0  0.46062  0.16029  0.07258  1.0000
  C   C795      1.0  0.38084  0.00681  0.19012  1.0000
  H   H1266     1.0  0.43768  0.07749  0.19580  1.0000
  H   H1267     1.0  0.47169  0.08787  0.31204  1.0000
  C   C796      1.0  0.43345  0.01071  0.15165  1.0000
  H   H1268     1.0  0.45202  0.01235  0.10809  1.0000
  C   C797      1.0  0.47273  0.00235  0.24484  1.0000
  S   S301      1.0  0.48088  0.99398  0.09626  1.0000
  H   H1269     1.0  0.40072  0.26154  0.05256  1.0000
  H   H1270     1.0  0.46435  0.03009  0.10451  1.0000
  H   H1271     1.0  0.42587  0.09809  0.03154  1.0000
  N   N81       1.0  0.42540  0.00007  0.25673  1.0000
  C   C798      1.0  0.48192  0.08734  0.09486  1.0000
  H   H1272     1.0  0.43977  0.27109  0.02201  1.0000
  C   C799      1.0  0.37725  0.31649  0.99010  1.0000
  H   H1273     1.0  0.47695  0.15454  0.05857  1.0000
  C   C800      1.0  0.41962  0.00114  0.26809  1.0000
  N   N82       1.0  0.39687  0.99633  0.31133  1.0000
  H   H1274     1.0  0.48406  0.26650  0.99542  1.0000
  C   C801      1.0  0.36913  0.99808  0.21942  1.0000
  C   C802      1.0  0.45346  0.01405  0.11548  1.0000
  H   H1275     1.0  0.38542  0.26969  0.01187  1.0000
  H   H1276     1.0  0.43169  0.09090  0.00442  1.0000
  H   H1277     1.0  0.46655  0.17137  0.07202  1.0000
  C   C803      1.0  0.40324  0.99070  0.20863  1.0000
  H   H1278     1.0  0.44580  0.25975  0.00255  1.0000
  H   H1279     1.0  0.43107  0.26511  0.01790  1.0000
  H   H1280     1.0  0.35077  0.31895  0.00373  1.0000
  H   H1281     1.0  0.36393  0.99837  0.05980  1.0000
  H   H1282     1.0  0.37796  0.09068  0.31284  1.0000
  C   C804      1.0  0.44649  0.00594  0.31874  1.0000
  S   S302      1.0  0.47086  0.31447  0.99505  1.0000
  C   C805      1.0  0.40288  0.00529  0.30761  1.0000
  H   H1283     1.0  0.37183  0.26811  0.01416  1.0000
  H   H1284     1.0  0.44086  0.11479  0.00671  1.0000
  C   C806      1.0  0.48207  0.17967  0.03398  1.0000
  H   H1285     1.0  0.43620  0.08802  0.31416  1.0000
  H   H1286     1.0  0.48037  0.15738  0.08942  1.0000
  H   H1287     1.0  0.42525  0.01736  0.25040  1.0000
  C   C807      1.0  0.38785  0.17026  0.99265  1.0000
  C   C808      1.0  0.39766  0.06731  0.31624  1.0000
  H   H1288     1.0  0.47675  0.29541  0.01700  1.0000
  C   C809      1.0  0.47839  0.27789  0.01945  1.0000
  S   S303      1.0  0.38164  0.14078  0.99116  1.0000
  H   H1289     1.0  0.48405  0.13784  0.07887  1.0000
  H   H1290     1.0  0.46784  0.01438  0.18060  1.0000
  H   H1291     1.0  0.45451  0.04656  0.31637  1.0000
  H   H1292     1.0  0.48638  0.13398  0.99370  1.0000
  H   H1293     1.0  0.41365  0.13960  0.99155  1.0000
  Fe  Fe136     1.0  0.45608  0.99341  0.18668  1.0000
  S   S304      1.0  0.48297  0.13244  0.01695  1.0000
  C   C810      1.0  0.47599  0.14372  0.07978  1.0000
  C   C811      1.0  0.47550  0.12515  0.99177  1.0000
  H   H1294     1.0  0.41341  0.99336  0.25394  1.0000
  S   S305      1.0  0.48552  0.20071  0.02762  1.0000
  H   H1295     1.0  0.42823  0.99133  0.12048  1.0000
  H   H1296     1.0  0.42499  0.31669  0.99763  1.0000
  H   H1297     1.0  0.42191  0.99066  0.19320  1.0000
  S   S306      1.0  0.46138  0.11371  0.98994  1.0000
  H   H1298     1.0  0.40607  0.09483  0.31675  1.0000
  H   H1299     1.0  0.36242  0.99241  0.24146  1.0000
  Fe  Fe137     1.0  0.48138  0.03286  0.21521  1.0000
  H   H1300     1.0  0.43522  0.31529  0.04795  1.0000
  H   H1301     1.0  0.47188  0.02816  0.16299  1.0000
  Fe  Fe138     1.0  0.48191  0.05818  0.11026  1.0000
  H   H1302     1.0  0.44085  0.98954  0.17767  1.0000
  C   C812      1.0  0.47602  0.03161  0.16725  1.0000
  C   C813      1.0  0.48356  0.01146  0.10242  1.0000
  C   C814      1.0  0.48319  0.00028  0.10553  1.0000
  H   H1303     1.0  0.48140  0.00923  0.21639  1.0000
  S   S307      1.0  0.48751  0.06582  0.09231  1.0000
  C   C815      1.0  0.48036  0.05998  0.15815  1.0000
  Fe  Fe139     1.0  0.46035  0.99119  0.28775  1.0000
  S   S308      1.0  0.48664  0.01728  0.13050  1.0000
  H   H1304     1.0  0.48477  0.04867  0.23772  1.0000
  Fe  Fe140     1.0  0.48226  0.03576  0.12614  1.0000
  C   C816      1.0  0.48697  0.05629  0.26011  1.0000
  H   H1305     1.0  0.48336  0.16487  0.05905  1.0000
  Fe  Fe141     1.0  0.48310  0.05557  0.13379  1.0000
  C   C817      1.0  0.48744  0.99755  0.20589  1.0000
  H   H1306     1.0  0.48233  0.03553  0.16086  1.0000
  C   C818      1.0  0.48375  0.05762  0.16807  1.0000
  C   C819      1.0  0.48423  0.99433  0.11615  1.0000
  C   C820      1.0  0.48392  0.15822  0.08042  1.0000
  C   C821      1.0  0.48468  0.08027  0.08759  1.0000
  N   N83       1.0  0.48343  0.99880  0.24790  1.0000
  H   H1307     1.0  0.48540  0.09953  0.06333  1.0000
  H   H1308     1.0  0.48480  0.16690  0.07692  1.0000
  H   H1309     1.0  0.48406  0.01505  0.24846  1.0000
  C   C822      1.0  0.48586  0.08474  0.07623  1.0000
  H   H1310     1.0  0.48506  0.02535  0.10758  1.0000
  C   C823      1.0  0.48471  0.01674  0.11002  1.0000
  H   H1311     1.0  0.48468  0.01032  0.16662  1.0000
  C   C824      1.0  0.48544  0.99959  0.12371  1.0000
  H   H1312     1.0  0.48618  0.99497  0.13195  1.0000
  H   H1313     1.0  0.48760  0.00093  0.30466  1.0000
  C   C825      1.0  0.48655  0.02781  0.18100  1.0000
  H   H1314     1.0  0.48607  0.99671  0.06843  1.0000
  H   H1315     1.0  0.48709  0.27631  0.01619  1.0000
  H   H1316     1.0  0.44458  0.01509  0.31631  1.0000
  H   H1317     1.0  0.46689  0.15133  0.98695  1.0000
  H   H1318     1.0  0.45526  0.00319  0.31900  1.0000
  H   H1319     1.0  0.43976  0.98933  0.26164  1.0000
  H   H1320     1.0  0.34549  0.98934  0.23097  1.0000
  H   H1321     1.0  0.40388  0.02323  0.64846  1.0000
  S   S309      1.0  0.46476  0.07250  0.38532  1.0000
  Fe  Fe142     1.0  0.40506  0.06265  0.35466  1.0000
  S   S310      1.0  0.41201  0.06942  0.36478  1.0000
  S   S311      1.0  0.39241  0.07483  0.34606  1.0000
  Fe  Fe143     1.0  0.41842  0.03959  0.36076  1.0000
  S   S312      1.0  0.42619  0.04437  0.37148  1.0000
  S   S313      1.0  0.42465  0.02221  0.35871  1.0000
  Fe  Fe144     1.0  0.40949  0.05401  0.37755  1.0000
  S   S314      1.0  0.40382  0.05311  0.39585  1.0000
  Fe  Fe145     1.0  0.42790  0.05912  0.35777  1.0000
  S   S315      1.0  0.44433  0.06321  0.35086  1.0000
  S   S316      1.0  0.40143  0.04789  0.36796  1.0000
  S   S317      1.0  0.42123  0.05368  0.34650  1.0000
  Fe  Fe146     1.0  0.34642  0.05016  0.43217  1.0000
  S   S318      1.0  0.33367  0.04073  0.43430  1.0000
  S   S319      1.0  0.35294  0.06052  0.41564  1.0000
  Fe  Fe147     1.0  0.34811  0.04233  0.45609  1.0000
  S   S320      1.0  0.33579  0.03202  0.46042  1.0000
  S   S321      1.0  0.35865  0.04126  0.46757  1.0000
  Fe  Fe148     1.0  0.34395  0.02708  0.44438  1.0000
  S   S322      1.0  0.34676  0.00968  0.44292  1.0000
  Fe  Fe149     1.0  0.32622  0.04637  0.45016  1.0000
  S   S323      1.0  0.30812  0.04942  0.45732  1.0000
  S   S324      1.0  0.35729  0.03587  0.44093  1.0000
  S   S325      1.0  0.33793  0.05732  0.44719  1.0000
  Fe  Fe150     1.0  0.34846  0.05787  0.51965  1.0000
  S   S326      1.0  0.33942  0.06235  0.53581  1.0000
  S   S327      1.0  0.34656  0.06973  0.50360  1.0000
  Fe  Fe151     1.0  0.35752  0.03450  0.53046  1.0000
  S   S328      1.0  0.34947  0.03702  0.54759  1.0000
  S   S329      1.0  0.36641  0.01756  0.52805  1.0000
  Fe  Fe152     1.0  0.33492  0.04600  0.54030  1.0000
  S   S330      1.0  0.31841  0.04231  0.54845  1.0000
  Fe  Fe153     1.0  0.35489  0.05308  0.54149  1.0000
  S   S331      1.0  0.36010  0.06148  0.55173  1.0000
  S   S332      1.0  0.34256  0.04236  0.52366  1.0000
  S   S333      1.0  0.36430  0.04972  0.52489  1.0000
  H   H1322     1.0  0.27597  0.06744  0.47958  1.0000
  S   S334      1.0  0.27526  0.05063  0.42911  1.0000
  Fe  Fe154     1.0  0.25738  0.02135  0.43056  1.0000
  H   H1323     1.0  0.26681  0.07952  0.47392  1.0000
  S   S335      1.0  0.35944  0.00763  0.60083  1.0000
  Fe  Fe155     1.0  0.40586  0.04424  0.58502  1.0000
  S   S336      1.0  0.39277  0.05291  0.59706  1.0000
  S   S337      1.0  0.40433  0.04268  0.56852  1.0000
  Fe  Fe156     1.0  0.42128  0.03517  0.60101  1.0000
  S   S338      1.0  0.40919  0.04247  0.61448  1.0000
  S   S339      1.0  0.43807  0.02571  0.60303  1.0000
  Fe  Fe157     1.0  0.39683  0.03720  0.60934  1.0000
  S   S340      1.0  0.38306  0.03052  0.62166  1.0000
  Fe  Fe158     1.0  0.40640  0.05738  0.60105  1.0000
  S   S341      1.0  0.40621  0.07327  0.60495  1.0000
  S   S342      1.0  0.40928  0.02817  0.59721  1.0000
  S   S343      1.0  0.41922  0.05039  0.58766  1.0000
  H   H1324     1.0  0.25628  0.06486  0.45948  1.0000
  N   N84       1.0  0.34762  0.99114  0.47580  1.0000
  S   S344      1.0  0.46540  0.05487  0.61111  1.0000
  H   H1325     1.0  0.36394  0.02603  0.58217  1.0000
  H   H1326     1.0  0.24144  0.99966  0.46693  1.0000
  Fe  Fe159     1.0  0.47945  0.05909  0.38846  1.0000
  H   H1327     1.0  0.31783  0.00420  0.54790  1.0000
  C   C826      1.0  0.47061  0.01794  0.41262  1.0000
  C   C827      1.0  0.47405  0.01681  0.40166  1.0000
  H   H1328     1.0  0.44221  0.03967  0.35151  1.0000
  H   H1329     1.0  0.38058  0.00625  0.63064  1.0000
  S   S345      1.0  0.47718  0.04259  0.38880  1.0000
  H   H1330     1.0  0.34968  0.05537  0.57541  1.0000
  C   C828      1.0  0.30002  0.04200  0.49571  1.0000
  H   H1331     1.0  0.40848  0.10424  0.32330  1.0000
  Fe  Fe160     1.0  0.48481  0.03658  0.40339  1.0000
  C   C829      1.0  0.29320  0.04611  0.53427  1.0000
  H   H1332     1.0  0.41409  0.03289  0.34061  1.0000
  H   H1333     1.0  0.38018  0.05551  0.32806  1.0000
  Fe  Fe161     1.0  0.27366  0.04994  0.51716  1.0000
  H   H1334     1.0  0.40171  0.02700  0.33309  1.0000
  C   C830      1.0  0.24134  0.01925  0.54600  1.0000
  C   C831      1.0  0.27185  0.02059  0.48850  1.0000
  H   H1335     1.0  0.42737  0.04595  0.39301  1.0000
  S   S346      1.0  0.48003  0.99664  0.58661  1.0000
  H   H1336     1.0  0.45514  0.08634  0.32664  1.0000
  C   C832      1.0  0.40114  0.01201  0.34557  1.0000
  H   H1337     1.0  0.44664  0.02535  0.57986  1.0000
  Fe  Fe162     1.0  0.48305  0.04719  0.61134  1.0000
  H   H1338     1.0  0.44121  0.02365  0.56925  1.0000
  H   H1339     1.0  0.33565  0.02420  0.53921  1.0000
  H   H1340     1.0  0.31610  0.03437  0.47995  1.0000
  C   C833      1.0  0.26269  0.01654  0.49487  1.0000
  S   S347      1.0  0.24709  0.04312  0.44850  1.0000
  H   H1341     1.0  0.36041  0.04845  0.35447  1.0000
  H   H1342     1.0  0.45835  0.03782  0.35857  1.0000
  C   C834      1.0  0.28612  0.99779  0.47224  1.0000
  C   C835      1.0  0.44568  0.03334  0.60601  1.0000
  C   C836      1.0  0.44047  0.04264  0.61045  1.0000
  C   C837      1.0  0.44662  0.04882  0.61254  1.0000
  C   C838      1.0  0.45800  0.04599  0.60986  1.0000
  C   C839      1.0  0.46324  0.03654  0.60566  1.0000
  C   C840      1.0  0.45708  0.03017  0.60382  1.0000
  H   H1343     1.0  0.43169  0.04501  0.61238  1.0000
  H   H1344     1.0  0.44255  0.05581  0.61626  1.0000
  H   H1345     1.0  0.47204  0.03422  0.60365  1.0000
  H   H1346     1.0  0.46118  0.02291  0.60050  1.0000
  C   C841      1.0  0.40296  0.07228  0.61932  1.0000
  C   C842      1.0  0.41034  0.06593  0.62596  1.0000
  S   S348      1.0  0.25571  0.05394  0.52468  1.0000
  C   C843      1.0  0.40076  0.00231  0.61733  1.0000
  C   C844      1.0  0.43284  0.07537  0.60178  1.0000
  H   H1347     1.0  0.44878  0.08609  0.59055  1.0000
  C   C845      1.0  0.39286  0.07804  0.62416  1.0000
  C   C846      1.0  0.36604  0.01410  0.60643  1.0000
  C   C847      1.0  0.36083  0.01751  0.61633  1.0000
  C   C848      1.0  0.36593  0.02287  0.62081  1.0000
  C   C849      1.0  0.37615  0.02508  0.61527  1.0000
  C   C850      1.0  0.38114  0.02207  0.60513  1.0000
  S   S349      1.0  0.25386  0.03398  0.51431  1.0000
  H   H1348     1.0  0.35292  0.01581  0.62064  1.0000
  H   H1349     1.0  0.36201  0.02517  0.62864  1.0000
  H   H1350     1.0  0.36570  0.03994  0.57806  1.0000
  C   C851      1.0  0.46506  0.07200  0.63071  1.0000
  Fe  Fe163     1.0  0.25096  0.02473  0.45386  1.0000
  H   H1351     1.0  0.44942  0.01467  0.35436  1.0000
  H   H1352     1.0  0.48225  0.06859  0.64741  1.0000
  C   C852      1.0  0.39918  0.99779  0.63698  1.0000
  C   C853      1.0  0.25514  0.01532  0.48973  1.0000
  H   H1353     1.0  0.38892  0.02389  0.60068  1.0000
  C   C854      1.0  0.46769  0.01305  0.39704  1.0000
  H   H1354     1.0  0.38005  0.02986  0.64740  1.0000
  H   H1355     1.0  0.38210  0.08170  0.63925  1.0000
  H   H1356     1.0  0.46625  0.04094  0.34479  1.0000
  H   H1357     1.0  0.26308  0.05071  0.48070  1.0000
  H   H1358     1.0  0.46429  0.01312  0.57353  1.0000
  C   C855      1.0  0.39736  0.07111  0.64223  1.0000
  H   H1359     1.0  0.35874  0.03039  0.50854  1.0000
  C   C856      1.0  0.25116  0.00333  0.40942  1.0000
  C   C857      1.0  0.39167  0.04740  0.56451  1.0000
  C   C858      1.0  0.38346  0.05552  0.56898  1.0000
  C   C859      1.0  0.37382  0.05974  0.56500  1.0000
  C   C860      1.0  0.37219  0.05570  0.55671  1.0000
  C   C861      1.0  0.38022  0.04733  0.55248  1.0000
  C   C862      1.0  0.38998  0.04330  0.55628  1.0000
  H   H1360     1.0  0.38470  0.05882  0.57524  1.0000
  H   H1361     1.0  0.36766  0.06623  0.56831  1.0000
  H   H1362     1.0  0.37907  0.04416  0.54609  1.0000
  H   H1363     1.0  0.39630  0.03703  0.55277  1.0000
  H   H1364     1.0  0.32095  0.02804  0.50831  1.0000
  Fe  Fe164     1.0  0.27176  0.03200  0.50747  1.0000
  H   H1365     1.0  0.29826  0.03681  0.54936  1.0000
  C   C863      1.0  0.30024  0.04830  0.44882  1.0000
  C   C864      1.0  0.30101  0.05451  0.43801  1.0000
  C   C865      1.0  0.29343  0.05496  0.43197  1.0000
  C   C866      1.0  0.28516  0.04905  0.43663  1.0000
  C   C867      1.0  0.28472  0.04239  0.44725  1.0000
  C   C868      1.0  0.29217  0.04215  0.45336  1.0000
  H   H1366     1.0  0.30716  0.05936  0.43446  1.0000
  H   H1367     1.0  0.29386  0.06010  0.42374  1.0000
  H   H1368     1.0  0.27846  0.03770  0.45086  1.0000
  H   H1369     1.0  0.29168  0.03733  0.46169  1.0000
  C   C869      1.0  0.35447  0.04903  0.47780  1.0000
  C   C870      1.0  0.36039  0.04607  0.48605  1.0000
  C   C871      1.0  0.35781  0.05236  0.49403  1.0000
  C   C872      1.0  0.34949  0.06185  0.49362  1.0000
  C   C873      1.0  0.34357  0.06490  0.48532  1.0000
  C   C874      1.0  0.34593  0.05838  0.47751  1.0000
  H   H1370     1.0  0.36697  0.03883  0.48633  1.0000
  H   H1371     1.0  0.36240  0.04993  0.50041  1.0000
  H   H1372     1.0  0.33704  0.07219  0.48506  1.0000
  H   H1373     1.0  0.34126  0.06068  0.47121  1.0000
  H   H1374     1.0  0.37938  0.08991  0.33174  1.0000
  C   C875      1.0  0.35655  0.02249  0.51071  1.0000
  C   C876      1.0  0.36021  0.01433  0.51934  1.0000
  C   C877      1.0  0.35780  0.00394  0.52176  1.0000
  H   H1375     1.0  0.34081  0.99357  0.43576  1.0000
  H   H1376     1.0  0.34704  0.01062  0.55083  1.0000
  H   H1377     1.0  0.26992  0.00586  0.53777  1.0000
  C   C878      1.0  0.35816  0.99116  0.46781  1.0000
  C   C879      1.0  0.31435  0.01290  0.44789  1.0000
  C   C880      1.0  0.32452  0.01461  0.44758  1.0000
  C   C881      1.0  0.33407  0.00756  0.44332  1.0000
  H   H1378     1.0  0.46152  0.05447  0.64693  1.0000
  Fe  Fe165     1.0  0.37110  0.99468  0.59227  1.0000
  H   H1379     1.0  0.30698  0.01831  0.45127  1.0000
  H   H1380     1.0  0.32493  0.02137  0.45068  1.0000
  H   H1381     1.0  0.47341  0.99661  0.32441  1.0000
  C   C882      1.0  0.38967  0.05458  0.40097  1.0000
  C   C883      1.0  0.38230  0.06091  0.39439  1.0000
  C   C884      1.0  0.37104  0.06258  0.39892  1.0000
  C   C885      1.0  0.36708  0.05766  0.40993  1.0000
  C   C886      1.0  0.37449  0.05106  0.41636  1.0000
  C   C887      1.0  0.38573  0.04967  0.41196  1.0000
  H   H1382     1.0  0.38528  0.06478  0.38590  1.0000
  H   H1383     1.0  0.36538  0.06772  0.39388  1.0000
  H   H1384     1.0  0.37158  0.04721  0.42480  1.0000
  H   H1385     1.0  0.39140  0.04469  0.41705  1.0000
  C   C888      1.0  0.45011  0.00406  0.59048  1.0000
  H   H1386     1.0  0.35256  0.04466  0.59437  1.0000
  Fe  Fe166     1.0  0.26245  0.04047  0.43554  1.0000
  C   C889      1.0  0.31223  0.05406  0.52911  1.0000
  H   H1387     1.0  0.38019  0.01395  0.59306  1.0000
  C   C890      1.0  0.35087  0.00209  0.51627  1.0000
  Fe  Fe167     1.0  0.25305  0.05212  0.50889  1.0000
  C   C891      1.0  0.45913  0.07001  0.37565  1.0000
  C   C892      1.0  0.44809  0.07437  0.37555  1.0000
  C   C893      1.0  0.44339  0.07198  0.36821  1.0000
  C   C894      1.0  0.44982  0.06549  0.36074  1.0000
  C   C895      1.0  0.46088  0.06127  0.36071  1.0000
  C   C896      1.0  0.46550  0.06341  0.36824  1.0000
  H   H1388     1.0  0.44314  0.07949  0.38126  1.0000
  H   H1389     1.0  0.43486  0.07536  0.36819  1.0000
  H   H1390     1.0  0.46591  0.05631  0.35490  1.0000
  H   H1391     1.0  0.47405  0.06008  0.36820  1.0000
  C   C897      1.0  0.31862  0.03486  0.48732  1.0000
  H   H1392     1.0  0.30765  0.99334  0.47017  1.0000
  C   C898      1.0  0.41253  0.00828  0.35862  1.0000
  C   C899      1.0  0.41551  0.01839  0.35373  1.0000
  C   C900      1.0  0.41150  0.02523  0.34462  1.0000
  C   C901      1.0  0.40445  0.02194  0.34042  1.0000
  C   C902      1.0  0.37417  0.05616  0.33600  1.0000
  C   C903      1.0  0.31375  0.00418  0.44388  1.0000
  H   H1393     1.0  0.26151  0.06898  0.48462  1.0000
  C   C904      1.0  0.46348  0.03411  0.35150  1.0000
  H   H1394     1.0  0.41454  0.07376  0.33216  1.0000
  H   H1395     1.0  0.25021  0.06722  0.47317  1.0000
  H   H1396     1.0  0.43247  0.07963  0.57473  1.0000
  C   C905      1.0  0.44916  0.03971  0.39132  1.0000
  C   C906      1.0  0.37621  0.01639  0.60082  1.0000
  H   H1397     1.0  0.25148  0.01358  0.53153  1.0000
  H   H1398     1.0  0.41815  0.06138  0.62231  1.0000
  C   C907      1.0  0.29322  0.01144  0.41960  1.0000
  C   C908      1.0  0.24102  0.99105  0.47137  1.0000
  H   H1399     1.0  0.33894  0.04247  0.59751  1.0000
  N   N85       1.0  0.33143  0.00929  0.54961  1.0000
  H   H1400     1.0  0.28052  0.02647  0.47213  1.0000
  H   H1401     1.0  0.48169  0.00069  0.65002  1.0000
  H   H1402     1.0  0.46567  0.10032  0.32524  1.0000
  H   H1403     1.0  0.44422  0.03235  0.41379  1.0000
  C   C909      1.0  0.46435  0.02379  0.33822  1.0000
  H   H1404     1.0  0.47188  0.01796  0.34029  1.0000
  H   H1405     1.0  0.25579  0.99612  0.55073  1.0000
  C   C910      1.0  0.32328  0.99734  0.43934  1.0000
  S   S350      1.0  0.26380  0.01052  0.41834  1.0000
  H   H1406     1.0  0.42247  0.00262  0.33626  1.0000
  H   H1407     1.0  0.35014  0.03100  0.59912  1.0000
  H   H1408     1.0  0.46011  0.01918  0.33531  1.0000
  H   H1409     1.0  0.25664  0.00542  0.40157  1.0000
  H   H1410     1.0  0.24828  0.00155  0.43673  1.0000
  H   H1411     1.0  0.34557  0.04896  0.56708  1.0000
  H   H1412     1.0  0.29891  0.03475  0.42174  1.0000
  H   H1413     1.0  0.27023  0.01250  0.54808  1.0000
  H   H1414     1.0  0.42235  0.08548  0.58545  1.0000
  H   H1415     1.0  0.29127  0.02559  0.43198  1.0000
  Fe  Fe168     1.0  0.45785  0.99496  0.38763  1.0000
  C   C911      1.0  0.24402  0.01331  0.53773  1.0000
  H   H1416     1.0  0.23950  0.00183  0.53156  1.0000
  C   C912      1.0  0.42798  0.00581  0.32850  1.0000
  H   H1417     1.0  0.29707  0.04151  0.48862  1.0000
  H   H1418     1.0  0.40131  0.99103  0.32705  1.0000
  S   S351      1.0  0.28672  0.05894  0.51522  1.0000
  H   H1419     1.0  0.28640  0.03905  0.40939  1.0000
  H   H1420     1.0  0.29070  0.00879  0.41338  1.0000
  H   H1421     1.0  0.42594  0.08235  0.60374  1.0000
  H   H1422     1.0  0.31527  0.04260  0.50556  1.0000
  H   H1423     1.0  0.28664  0.01080  0.42720  1.0000
  H   H1424     1.0  0.40640  0.99408  0.59211  1.0000
  S   S352      1.0  0.41082  0.98991  0.57051  1.0000
  S   S353      1.0  0.47757  0.02447  0.41773  1.0000
  C   C913      1.0  0.39003  0.07734  0.63557  1.0000
  C   C914      1.0  0.48733  0.99972  0.59433  1.0000
  H   H1425     1.0  0.34566  0.02216  0.58700  1.0000
  H   H1426     1.0  0.26915  0.04839  0.46705  1.0000
  H   H1427     1.0  0.27749  0.04943  0.47543  1.0000
  C   C915      1.0  0.25655  0.01856  0.47826  1.0000
  C   C916      1.0  0.44301  0.00179  0.57614  1.0000
  H   H1428     1.0  0.47015  0.01271  0.38842  1.0000
  H   H1429     1.0  0.45294  0.04795  0.40632  1.0000
  C   C917      1.0  0.27076  0.99439  0.51868  1.0000
  H   H1430     1.0  0.44598  0.03394  0.38869  1.0000
  C   C918      1.0  0.44229  0.08693  0.58617  1.0000
  C   C919      1.0  0.40522  0.00515  0.35463  1.0000
  C   C920      1.0  0.46111  0.01467  0.41917  1.0000
  H   H1431     1.0  0.38134  0.05431  0.64412  1.0000
  N   N86       1.0  0.37024  0.06665  0.44213  1.0000
  C   C921      1.0  0.37539  0.05480  0.44327  1.0000
  C   C922      1.0  0.37858  0.07292  0.44062  1.0000
  C   C923      1.0  0.36180  0.06834  0.45218  1.0000
  C   C924      1.0  0.36517  0.07053  0.43246  1.0000
  H   H1432     1.0  0.37908  0.05151  0.45065  1.0000
  H   H1433     1.0  0.38185  0.05317  0.43587  1.0000
  H   H1434     1.0  0.36933  0.04985  0.44438  1.0000
  H   H1435     1.0  0.37497  0.08190  0.43970  1.0000
  H   H1436     1.0  0.38253  0.07019  0.44781  1.0000
  H   H1437     1.0  0.38508  0.07176  0.43311  1.0000
  H   H1438     1.0  0.36526  0.06524  0.45971  1.0000
  H   H1439     1.0  0.35535  0.06379  0.45344  1.0000
  H   H1440     1.0  0.35777  0.07719  0.45174  1.0000
  H   H1441     1.0  0.36088  0.07935  0.43151  1.0000
  H   H1442     1.0  0.35908  0.06573  0.43316  1.0000
  H   H1443     1.0  0.37132  0.06966  0.42465  1.0000
  H   H1444     1.0  0.41575  0.00294  0.36561  1.0000
  H   H1445     1.0  0.43362  0.05762  0.38737  1.0000
  H   H1446     1.0  0.45644  0.03481  0.39462  1.0000
  C   C925      1.0  0.26562  0.02274  0.47192  1.0000
  H   H1447     1.0  0.48145  0.01918  0.39659  1.0000
  C   C926      1.0  0.45461  0.01112  0.41448  1.0000
  C   C927      1.0  0.38453  0.08359  0.32743  1.0000
  H   H1448     1.0  0.26676  0.02522  0.46307  1.0000
  S   S354      1.0  0.39217  0.00810  0.34042  1.0000
  C   C928      1.0  0.39189  0.07501  0.33258  1.0000
  S   S355      1.0  0.24152  0.06222  0.49778  1.0000
  H   H1449     1.0  0.38714  0.08297  0.61910  1.0000
  H   H1450     1.0  0.38485  0.04613  0.63391  1.0000
  H   H1451     1.0  0.42502  0.05598  0.40096  1.0000
  H   H1452     1.0  0.40976  0.00093  0.61588  1.0000
  H   H1453     1.0  0.43893  0.07458  0.60663  1.0000
  S   S356      1.0  0.33717  0.00875  0.50185  1.0000
  N   N87       1.0  0.35506  0.08904  0.52412  1.0000
  C   C929      1.0  0.36328  0.07861  0.52380  1.0000
  C   C930      1.0  0.34728  0.08998  0.51736  1.0000
  C   C931      1.0  0.36054  0.09840  0.51965  1.0000
  C   C932      1.0  0.34918  0.08914  0.53567  1.0000
  H   H1454     1.0  0.35939  0.07145  0.52742  1.0000
  H   H1455     1.0  0.36939  0.07764  0.52869  1.0000
  H   H1456     1.0  0.36766  0.07799  0.51520  1.0000
  H   H1457     1.0  0.34098  0.09779  0.51731  1.0000
  H   H1458     1.0  0.35146  0.08967  0.50864  1.0000
  H   H1459     1.0  0.34294  0.08309  0.52051  1.0000
  H   H1460     1.0  0.35458  0.10642  0.51975  1.0000
  H   H1461     1.0  0.36509  0.09850  0.51096  1.0000
  H   H1462     1.0  0.36647  0.09793  0.52457  1.0000
  H   H1463     1.0  0.34296  0.09692  0.53630  1.0000
  H   H1464     1.0  0.35486  0.08817  0.54104  1.0000
  H   H1465     1.0  0.34493  0.08219  0.53926  1.0000
  H   H1466     1.0  0.46465  0.99965  0.57218  1.0000
  S   S357      1.0  0.26707  0.02222  0.44192  1.0000
  H   H1467     1.0  0.44596  0.08845  0.57716  1.0000
  C   C933      1.0  0.44114  0.00635  0.33807  1.0000
  H   H1468     1.0  0.38438  0.00462  0.32294  1.0000
  H   H1469     1.0  0.33540  0.99159  0.39354  1.0000
  H   H1470     1.0  0.26007  0.99548  0.47096  1.0000
  H   H1471     1.0  0.37895  0.02891  0.34836  1.0000
  H   H1472     1.0  0.28250  0.00435  0.54149  1.0000
  S   S358      1.0  0.24985  0.02736  0.54637  1.0000
  H   H1473     1.0  0.33399  0.03323  0.58551  1.0000
  N   N88       1.0  0.43769  0.07698  0.58984  1.0000
  C   C934      1.0  0.45776  0.01061  0.40334  1.0000
  H   H1474     1.0  0.39467  0.05245  0.63543  1.0000
  H   H1475     1.0  0.27527  0.07632  0.45527  1.0000
  C   C935      1.0  0.37670  0.03638  0.34194  1.0000
  H   H1476     1.0  0.24826  0.01184  0.49461  1.0000
  C   C936      1.0  0.25342  0.00411  0.41909  1.0000
  S   S359      1.0  0.27604  0.03163  0.52316  1.0000
  N   N89       1.0  0.43945  0.00197  0.32943  1.0000
  C   C937      1.0  0.40103  0.03092  0.64262  1.0000
  H   H1477     1.0  0.39888  0.02850  0.63602  1.0000
  H   H1478     1.0  0.29333  0.04112  0.50316  1.0000
  N   N90       1.0  0.45738  0.02833  0.34777  1.0000
  H   H1479     1.0  0.28581  0.04311  0.53634  1.0000
  C   C938      1.0  0.29556  0.05385  0.52443  1.0000
  C   C939      1.0  0.45398  0.01928  0.35688  1.0000
  H   H1480     1.0  0.44699  0.00910  0.41939  1.0000
  H   H1481     1.0  0.45472  0.99536  0.59170  1.0000
  H   H1482     1.0  0.34381  0.02966  0.57350  1.0000
  H   H1483     1.0  0.44211  0.00432  0.59643  1.0000
  C   C940      1.0  0.38794  0.04821  0.64009  1.0000
  H   H1484     1.0  0.46061  0.07204  0.33159  1.0000
  C   C941      1.0  0.32517  0.01442  0.55901  1.0000
  H   H1485     1.0  0.33951  0.00651  0.46698  1.0000
  H   H1486     1.0  0.31950  0.05725  0.52707  1.0000
  H   H1487     1.0  0.40806  0.03496  0.63876  1.0000
  H   H1488     1.0  0.39406  0.04510  0.33875  1.0000
  N   N91       1.0  0.26762  0.06487  0.46868  1.0000
  H   H1489     1.0  0.33624  0.05268  0.57919  1.0000
  H   H1490     1.0  0.30697  0.06373  0.51426  1.0000
  H   H1491     1.0  0.29562  0.00275  0.48546  1.0000
  H   H1492     1.0  0.32074  0.04302  0.48552  1.0000
  H   H1493     1.0  0.29712  0.98956  0.49490  1.0000
  H   H1494     1.0  0.40015  0.00898  0.52537  1.0000
  H   H1495     1.0  0.44978  0.00370  0.33886  1.0000
  H   H1496     1.0  0.43890  0.01552  0.33625  1.0000
  H   H1497     1.0  0.43592  0.09439  0.58781  1.0000
  C   C942      1.0  0.44766  0.03619  0.34447  1.0000
  C   C943      1.0  0.33159  0.01775  0.53922  1.0000
  N   N92       1.0  0.27151  0.99497  0.55346  1.0000
  H   H1498     1.0  0.47840  0.06600  0.33640  1.0000
  S   S360      1.0  0.48564  0.05340  0.40417  1.0000
  N   N93       1.0  0.29516  0.02274  0.41556  1.0000
  C   C944      1.0  0.28528  0.03041  0.41241  1.0000
  C   C945      1.0  0.30435  0.02301  0.40586  1.0000
  H   H1499     1.0  0.28294  0.02808  0.40588  1.0000
  H   H1500     1.0  0.27825  0.03043  0.41957  1.0000
  H   H1501     1.0  0.30545  0.02076  0.42666  1.0000
  H   H1502     1.0  0.31195  0.01731  0.40801  1.0000
  H   H1503     1.0  0.30604  0.03142  0.40263  1.0000
  H   H1504     1.0  0.30265  0.02049  0.39907  1.0000
  N   N94       1.0  0.34902  0.03837  0.58231  1.0000
  C   C946      1.0  0.34283  0.03053  0.58206  1.0000
  C   C947      1.0  0.34494  0.04933  0.57573  1.0000
  C   C948      1.0  0.36070  0.03446  0.57762  1.0000
  C   C949      1.0  0.34759  0.03919  0.59382  1.0000
  C   C950      1.0  0.34269  0.00430  0.55101  1.0000
  H   H1505     1.0  0.27293  0.00152  0.56641  1.0000
  Fe  Fe169     1.0  0.25789  0.03546  0.52950  1.0000
  C   C951      1.0  0.30024  0.04257  0.54164  1.0000
  H   H1506     1.0  0.47082  0.02842  0.35422  1.0000
  C   C952      1.0  0.24637  0.00134  0.42923  1.0000
  H   H1507     1.0  0.42344  0.09775  0.33391  1.0000
  H   H1508     1.0  0.47561  0.05199  0.63997  1.0000
  C   C953      1.0  0.47919  0.07143  0.63964  1.0000
  H   H1509     1.0  0.27597  0.06350  0.45210  1.0000
  H   H1510     1.0  0.42844  0.07174  0.32467  1.0000
  C   C954      1.0  0.26941  0.05283  0.47316  1.0000
  C   C955      1.0  0.44641  0.06726  0.58765  1.0000
  H   H1511     1.0  0.45288  0.06586  0.59225  1.0000
  H   H1512     1.0  0.44319  0.05961  0.59024  1.0000
  H   H1513     1.0  0.45036  0.06821  0.57873  1.0000
  N   N95       1.0  0.46850  0.06878  0.64133  1.0000
  H   H1514     1.0  0.26156  0.01413  0.50375  1.0000
  H   H1515     1.0  0.43492  0.03020  0.40711  1.0000
  H   H1516     1.0  0.46687  0.03041  0.33112  1.0000
  H   H1517     1.0  0.47446  0.07517  0.34569  1.0000
  H   H1518     1.0  0.38166  0.99656  0.62255  1.0000
  H   H1519     1.0  0.32287  0.99094  0.43572  1.0000
  S   S361      1.0  0.28127  0.02226  0.49479  1.0000
  C   C956      1.0  0.27363  0.00485  0.54485  1.0000
  H   H1520     1.0  0.40293  0.09258  0.33148  1.0000
  H   H1521     1.0  0.37061  0.04070  0.36221  1.0000
  N   N96       1.0  0.44087  0.04509  0.39971  1.0000
  H   H1522     1.0  0.40430  0.06024  0.33083  1.0000
  Fe  Fe170     1.0  0.38833  0.99210  0.35096  1.0000
  S   S362      1.0  0.25352  0.03947  0.42343  1.0000
  H   H1523     1.0  0.45607  0.08124  0.34088  1.0000
  H   H1524     1.0  0.31671  0.01856  0.55806  1.0000
  H   H1525     1.0  0.39754  0.01118  0.61735  1.0000
  H   H1526     1.0  0.44803  0.05910  0.39592  1.0000
  C   C957      1.0  0.43747  0.03661  0.40946  1.0000
  S   S363      1.0  0.24703  0.01727  0.47187  1.0000
  H   H1527     1.0  0.33330  0.00289  0.48139  1.0000
  C   C958      1.0  0.46939  0.05681  0.64569  1.0000
  C   C959      1.0  0.29781  0.02611  0.42435  1.0000
  H   H1528     1.0  0.30150  0.05042  0.49415  1.0000
  C   C960      1.0  0.42918  0.07836  0.58379  1.0000
  H   H1529     1.0  0.42951  0.06779  0.60483  1.0000
  C   C961      1.0  0.27337  0.02353  0.47704  1.0000
  H   H1530     1.0  0.46111  0.01322  0.35964  1.0000
  H   H1531     1.0  0.42555  0.07098  0.58643  1.0000
  H   H1532     1.0  0.30069  0.02115  0.50689  1.0000
  H   H1533     1.0  0.45902  0.01156  0.56272  1.0000
  C   C962      1.0  0.30511  0.05775  0.52185  1.0000
  H   H1534     1.0  0.38341  0.01217  0.53929  1.0000
  H   H1535     1.0  0.47878  0.08043  0.63673  1.0000
  C   C963      1.0  0.38653  0.00446  0.54499  1.0000
  C   C964      1.0  0.31345  0.03436  0.50688  1.0000
  H   H1536     1.0  0.30704  0.03332  0.51458  1.0000
  H   H1537     1.0  0.45849  0.01543  0.42768  1.0000
  C   C965      1.0  0.30742  0.02243  0.49951  1.0000
  H   H1538     1.0  0.27752  0.00062  0.47639  1.0000
  H   H1539     1.0  0.32898  0.02083  0.55965  1.0000
  N   N97       1.0  0.44881  0.00853  0.57897  1.0000
  N   N98       1.0  0.30989  0.03341  0.49736  1.0000
  H   H1540     1.0  0.31462  0.01571  0.50098  1.0000
  H   H1541     1.0  0.43429  0.02056  0.58346  1.0000
  S   S364      1.0  0.44881  0.00811  0.39699  1.0000
  C   C966      1.0  0.34986  0.02057  0.50501  1.0000
  H   H1542     1.0  0.41748  0.08622  0.34172  1.0000
  H   H1543     1.0  0.43051  0.04026  0.41552  1.0000
  H   H1544     1.0  0.30483  0.02141  0.49243  1.0000
  C   C967      1.0  0.30974  0.04659  0.53909  1.0000
  C   C968      1.0  0.47056  0.09393  0.33077  1.0000
  C   C969      1.0  0.43133  0.05147  0.39504  1.0000
  H   H1545     1.0  0.36877  0.05541  0.35782  1.0000
  C   C970      1.0  0.34672  0.01049  0.50803  1.0000
  S   S365      1.0  0.30110  0.00174  0.44466  1.0000
  C   C971      1.0  0.40760  0.06548  0.63741  1.0000
  C   C972      1.0  0.44553  0.05251  0.40303  1.0000
  C   C973      1.0  0.38779  0.04583  0.34648  1.0000
  H   H1546     1.0  0.43489  0.00165  0.58181  1.0000
  H   H1547     1.0  0.30063  0.00537  0.42171  1.0000
  C   C974      1.0  0.44247  0.02003  0.57780  1.0000
  H   H1548     1.0  0.45195  0.04587  0.38385  1.0000
  C   C975      1.0  0.32626  0.00070  0.54918  1.0000
  H   H1549     1.0  0.43959  0.05657  0.40949  1.0000
  H   H1550     1.0  0.32619  0.02844  0.48820  1.0000
  H   H1551     1.0  0.41330  0.06063  0.64250  1.0000
  H   H1552     1.0  0.44284  0.03215  0.34157  1.0000
  Fe  Fe171     1.0  0.23859  0.03996  0.43716  1.0000
  H   H1553     1.0  0.37418  0.06398  0.33800  1.0000
  H   H1554     1.0  0.38257  0.03524  0.33403  1.0000
  H   H1555     1.0  0.32322  0.02196  0.53802  1.0000
  H   H1556     1.0  0.44771  0.99312  0.57671  1.0000
  H   H1557     1.0  0.36086  0.99752  0.52823  1.0000
  C   C976      1.0  0.33345  0.99891  0.43923  1.0000
  C   C977      1.0  0.38892  0.99298  0.53228  1.0000
  H   H1558     1.0  0.37935  0.00107  0.55011  1.0000
  H   H1559     1.0  0.25548  0.99423  0.51577  1.0000
  H   H1560     1.0  0.48544  0.06729  0.63341  1.0000
  H   H1561     1.0  0.39017  0.03856  0.35304  1.0000
  S   S366      1.0  0.27072  0.04996  0.50095  1.0000
  H   H1562     1.0  0.48585  0.03114  0.64910  1.0000
  N   N99       1.0  0.47129  0.08275  0.32948  1.0000
  C   C978      1.0  0.26801  0.07044  0.47706  1.0000
  N   N100      1.0  0.37685  0.04655  0.34493  1.0000
  H   H1563     1.0  0.38812  0.05327  0.34895  1.0000
  H   H1564     1.0  0.44987  0.04324  0.33774  1.0000
  C   C979      1.0  0.39851  0.06687  0.32696  1.0000
  H   H1565     1.0  0.34686  0.02704  0.49850  1.0000
  H   H1566     1.0  0.28968  0.00518  0.46830  1.0000
  H   H1567     1.0  0.45706  0.07002  0.63171  1.0000
  H   H1568     1.0  0.36214  0.03418  0.56880  1.0000
  H   H1569     1.0  0.25519  0.07797  0.46239  1.0000
  C   C980      1.0  0.36879  0.04783  0.35531  1.0000
  C   C981      1.0  0.45965  0.00823  0.57148  1.0000
  C   C982      1.0  0.24146  0.00046  0.40986  1.0000
  H   H1570     1.0  0.43608  0.00339  0.34630  1.0000
  H   H1571     1.0  0.33606  0.01415  0.53193  1.0000
  C   C983      1.0  0.47790  0.07457  0.33693  1.0000
  H   H1572     1.0  0.36852  0.03652  0.34090  1.0000
  H   H1573     1.0  0.25564  0.00363  0.56053  1.0000
  C   C984      1.0  0.25685  0.06891  0.46579  1.0000
  H   H1574     1.0  0.44166  0.00503  0.56759  1.0000
  H   H1575     1.0  0.39621  0.00668  0.63723  1.0000
  H   H1576     1.0  0.36560  0.98925  0.40546  1.0000
  H   H1577     1.0  0.28446  0.06408  0.46057  1.0000
  H   H1578     1.0  0.38551  0.00010  0.52615  1.0000
  H   H1579     1.0  0.25779  0.99265  0.45372  1.0000
  H   H1580     1.0  0.44854  0.02242  0.36418  1.0000
  S   S367      1.0  0.24172  0.02171  0.44326  1.0000
  C   C985      1.0  0.27620  0.06731  0.45873  1.0000
  H   H1581     1.0  0.32470  0.00821  0.56695  1.0000
  H   H1582     1.0  0.47098  0.06749  0.62455  1.0000
  H   H1583     1.0  0.34749  0.99999  0.54431  1.0000
  C   C986      1.0  0.46028  0.08053  0.33227  1.0000
  S   S368      1.0  0.48682  0.03362  0.62579  1.0000
  H   H1584     1.0  0.45218  0.07316  0.65065  1.0000
  N   N101      1.0  0.39624  0.99533  0.62784  1.0000
  N   N102      1.0  0.39167  0.03828  0.64826  1.0000
  H   H1585     1.0  0.45466  0.00881  0.59285  1.0000
  C   C987      1.0  0.40333  0.00162  0.53144  1.0000
  C   C988      1.0  0.38427  0.99768  0.62960  1.0000
  H   H1586     1.0  0.39024  0.00676  0.55055  1.0000
  C   C989      1.0  0.46038  0.07485  0.64929  1.0000
  H   H1587     1.0  0.46434  0.08096  0.62712  1.0000
  H   H1588     1.0  0.39869  0.00076  0.61019  1.0000
  H   H1589     1.0  0.36601  0.05695  0.33452  1.0000
  H   H1590     1.0  0.45962  0.08391  0.64637  1.0000
  H   H1591     1.0  0.24109  0.02533  0.41334  1.0000
  H   H1592     1.0  0.40285  0.99737  0.35852  1.0000
  C   C990      1.0  0.25965  0.99592  0.55745  1.0000
  S   S369      1.0  0.37862  0.99739  0.57419  1.0000
  S   S370      1.0  0.45087  0.98946  0.37664  1.0000
  C   C991      1.0  0.34123  0.00258  0.47532  1.0000
  H   H1593     1.0  0.47879  0.09577  0.32874  1.0000
  C   C992      1.0  0.29224  0.99521  0.48892  1.0000
  H   H1594     1.0  0.39554  0.99302  0.64508  1.0000
  C   C993      1.0  0.42017  0.07711  0.32461  1.0000
  H   H1595     1.0  0.46671  0.09480  0.33941  1.0000
  H   H1596     1.0  0.34563  0.00779  0.47726  1.0000
  H   H1597     1.0  0.43147  0.08386  0.33463  1.0000
  H   H1598     1.0  0.26783  0.00238  0.52077  1.0000
  S   S371      1.0  0.47414  0.99508  0.37612  1.0000
  C   C994      1.0  0.42326  0.08918  0.33402  1.0000
  H   H1599     1.0  0.34288  0.99813  0.55894  1.0000
  H   H1600     1.0  0.40177  0.04592  0.65296  1.0000
  H   H1601     1.0  0.28383  0.99772  0.49375  1.0000
  H   H1602     1.0  0.24222  0.04024  0.39668  1.0000
  H   H1603     1.0  0.28610  0.99404  0.46549  1.0000
  H   H1604     1.0  0.34862  0.99424  0.51857  1.0000
  N   N103      1.0  0.42002  0.08865  0.32414  1.0000
  Fe  Fe172     1.0  0.32949  0.99461  0.51166  1.0000
  H   H1605     1.0  0.42552  0.01497  0.32671  1.0000
  C   C995      1.0  0.44214  0.98980  0.33243  1.0000
  H   H1606     1.0  0.38064  0.99220  0.63719  1.0000
  C   C996      1.0  0.40891  0.09540  0.32389  1.0000
  H   H1607     1.0  0.40816  0.99577  0.63616  1.0000
  H   H1608     1.0  0.40760  0.00437  0.53618  1.0000
  H   H1609     1.0  0.33094  0.99650  0.54230  1.0000
  S   S372      1.0  0.31731  0.99476  0.52762  1.0000
  N   N104      1.0  0.39445  0.99644  0.53886  1.0000
  H   H1610     1.0  0.48453  0.01348  0.64969  1.0000
  H   H1611     1.0  0.40948  0.99578  0.52671  1.0000
  H   H1612     1.0  0.23802  0.02279  0.39626  1.0000
  H   H1613     1.0  0.23956  0.00013  0.40235  1.0000
  H   H1614     1.0  0.32585  0.99422  0.55693  1.0000
  S   S373      1.0  0.29002  0.99506  0.52226  1.0000
  H   H1615     1.0  0.48639  0.07574  0.33478  1.0000
  H   H1616     1.0  0.35699  0.99467  0.45922  1.0000
  H   H1617     1.0  0.36286  0.99622  0.46951  1.0000
  C   C997      1.0  0.27644  0.99413  0.56272  1.0000
  H   H1618     1.0  0.28539  0.99344  0.55993  1.0000
  N   N105      1.0  0.29235  0.98988  0.48016  1.0000
  S   S374      1.0  0.47013  0.99439  0.34762  1.0000
  H   H1619     1.0  0.35406  0.99100  0.48945  1.0000
  C   C998      1.0  0.26372  0.98976  0.51585  1.0000
  H   H1620     1.0  0.42652  0.00308  0.32171  1.0000
  C   C999      1.0  0.41461  0.98926  0.59038  1.0000
  H   H1621     1.0  0.48772  0.00172  0.33157  1.0000
  H   H1622     1.0  0.48718  0.00661  0.34886  1.0000
  H   H1623     1.0  0.38199  0.98929  0.53762  1.0000
  C   C1000     1.0  0.41082  0.00691  0.66615  1.0000
  Fe  Fe173     1.0  0.40105  0.18659  0.95409  1.0000
  S   S375      1.0  0.38352  0.19534  0.95665  1.0000
  S   S376      1.0  0.40886  0.17234  0.96576  1.0000
  Fe  Fe174     1.0  0.40748  0.20168  0.93230  1.0000
  S   S377      1.0  0.39066  0.21196  0.93261  1.0000
  S   S378      1.0  0.42215  0.20491  0.91923  1.0000
  Fe  Fe175     1.0  0.38994  0.21084  0.95037  1.0000
  S   S379      1.0  0.38200  0.22497  0.95891  1.0000
  Fe  Fe176     1.0  0.38557  0.19574  0.93874  1.0000
  S   S380      1.0  0.37212  0.19432  0.93203  1.0000
  S   S381      1.0  0.40731  0.20198  0.94957  1.0000
  S   S382      1.0  0.40258  0.18551  0.93670  1.0000
  Fe  Fe177     1.0  0.39703  0.11700  0.94048  1.0000
  S   S383      1.0  0.38373  0.11833  0.93217  1.0000
  S   S384      1.0  0.39633  0.10859  0.95832  1.0000
  Fe  Fe178     1.0  0.41189  0.12535  0.91889  1.0000
  S   S385      1.0  0.40000  0.12699  0.90870  1.0000
  S   S386      1.0  0.42864  0.12850  0.91169  1.0000
  Fe  Fe179     1.0  0.38797  0.13446  0.92239  1.0000
  S   S387      1.0  0.37541  0.14995  0.91830  1.0000
  Fe  Fe180     1.0  0.39696  0.11067  0.91943  1.0000
  S   S388      1.0  0.39681  0.09405  0.91691  1.0000
  S   S389      1.0  0.40016  0.13376  0.93184  1.0000
  S   S390      1.0  0.41003  0.10852  0.92840  1.0000
  H   H1624     1.0  0.46548  0.02532  0.86208  1.0000
  Fe  Fe181     1.0  0.47826  0.05537  0.88755  1.0000
  H   H1625     1.0  0.43882  0.01622  0.90627  1.0000
  Fe  Fe182     1.0  0.46661  0.28832  0.95569  1.0000
  H   H1626     1.0  0.48564  0.01870  0.83514  1.0000
  H   H1627     1.0  0.39308  0.00290  0.80072  1.0000
  C   C1001     1.0  0.47617  0.06082  0.85143  1.0000
  C   C1002     1.0  0.43730  0.31691  0.92973  1.0000
  Fe  Fe183     1.0  0.39682  0.03981  0.87300  1.0000
  S   S391      1.0  0.41450  0.03347  0.86673  1.0000
  S   S392      1.0  0.38642  0.02761  0.87584  1.0000
  Fe  Fe184     1.0  0.40023  0.06241  0.87272  1.0000
  S   S393      1.0  0.41822  0.05754  0.86604  1.0000
  S   S394      1.0  0.39420  0.08026  0.87432  1.0000
  Fe  Fe185     1.0  0.41370  0.04983  0.85492  1.0000
  S   S395      1.0  0.42254  0.04987  0.83728  1.0000
  Fe  Fe186     1.0  0.41697  0.04177  0.87852  1.0000
  S   S396      1.0  0.42984  0.03332  0.88823  1.0000
  S   S397      1.0  0.39576  0.05587  0.86048  1.0000
  S   S398      1.0  0.39928  0.04693  0.88599  1.0000
  H   H1628     1.0  0.34125  0.22971  0.94428  1.0000
  C   C1003     1.0  0.43568  0.09595  0.91116  1.0000
  Fe  Fe187     1.0  0.45608  0.06870  0.89608  1.0000
  S   S399      1.0  0.43917  0.06898  0.90626  1.0000
  H   H1629     1.0  0.36262  0.03590  0.85404  1.0000
  C   C1004     1.0  0.47310  0.24373  0.97518  1.0000
  H   H1630     1.0  0.48028  0.17620  0.96151  1.0000
  S   S400      1.0  0.46241  0.05965  0.88237  1.0000
  Fe  Fe188     1.0  0.40721  0.06443  0.69051  1.0000
  S   S401      1.0  0.42071  0.04945  0.69138  1.0000
  S   S402      1.0  0.40158  0.07452  0.70348  1.0000
  Fe  Fe189     1.0  0.42657  0.05654  0.67342  1.0000
  S   S403      1.0  0.44446  0.05561  0.66698  1.0000
  Fe  Fe190     1.0  0.41049  0.04219  0.68527  1.0000
  S   S404      1.0  0.40727  0.02524  0.69276  1.0000
  S   S405      1.0  0.41384  0.07223  0.67291  1.0000
  S   S406      1.0  0.39634  0.05659  0.68599  1.0000
  C   C1005     1.0  0.47890  0.16638  0.98283  1.0000
  H   H1631     1.0  0.47253  0.17299  0.98633  1.0000
  H   H1632     1.0  0.48763  0.01933  0.85361  1.0000
  C   C1006     1.0  0.40160  0.24139  0.97624  1.0000
  H   H1633     1.0  0.39173  0.03905  0.70792  1.0000
  Fe  Fe191     1.0  0.46820  0.04954  0.71126  1.0000
  S   S407      1.0  0.45998  0.06652  0.70374  1.0000
  H   H1634     1.0  0.43090  0.10457  0.90934  1.0000
  H   H1635     1.0  0.44238  0.31851  0.93444  1.0000
  C   C1007     1.0  0.40207  0.00194  0.79872  1.0000
  S   S408      1.0  0.47514  0.18804  0.92650  1.0000
  H   H1636     1.0  0.39136  0.03626  0.84003  1.0000
  Fe  Fe192     1.0  0.41781  0.05616  0.76694  1.0000
  S   S409      1.0  0.40002  0.06312  0.77235  1.0000
  S   S410      1.0  0.42925  0.06742  0.75785  1.0000
  Fe  Fe193     1.0  0.41494  0.03261  0.77450  1.0000
  S   S411      1.0  0.39698  0.03755  0.78078  1.0000
  S   S412      1.0  0.42317  0.01487  0.77503  1.0000
  Fe  Fe194     1.0  0.39771  0.05040  0.76495  1.0000
  S   S413      1.0  0.38613  0.05331  0.75396  1.0000
  Fe  Fe195     1.0  0.40117  0.04963  0.78762  1.0000
  S   S414      1.0  0.39309  0.05296  0.80462  1.0000
  S   S415      1.0  0.41542  0.04462  0.75824  1.0000
  S   S416      1.0  0.41917  0.04353  0.78264  1.0000
  H   H1637     1.0  0.47737  0.24236  0.92173  1.0000
  S   S417      1.0  0.46000  0.04813  0.81160  1.0000
  H   H1638     1.0  0.43339  0.00873  0.88841  1.0000
  C   C1008     1.0  0.46008  0.03302  0.76637  1.0000
  S   S418      1.0  0.46943  0.04515  0.78589  1.0000
  C   C1009     1.0  0.47463  0.01238  0.88187  1.0000
  Fe  Fe196     1.0  0.46538  0.05865  0.79494  1.0000
  S   S419      1.0  0.45664  0.07516  0.78693  1.0000
  Fe  Fe197     1.0  0.46601  0.03429  0.80264  1.0000
  C   C1010     1.0  0.47301  0.17256  0.96559  1.0000
  H   H1639     1.0  0.46642  0.29053  0.97988  1.0000
  C   C1011     1.0  0.43663  0.06961  0.76612  1.0000
  C   C1012     1.0  0.44032  0.07940  0.76331  1.0000
  C   C1013     1.0  0.44625  0.08122  0.76987  1.0000
  C   C1014     1.0  0.44880  0.07310  0.77904  1.0000
  C   C1015     1.0  0.44522  0.06327  0.78179  1.0000
  C   C1016     1.0  0.43905  0.06159  0.77540  1.0000
  H   H1640     1.0  0.43844  0.08563  0.75613  1.0000
  H   H1641     1.0  0.44899  0.08885  0.76774  1.0000
  H   H1642     1.0  0.44703  0.05700  0.78894  1.0000
  H   H1643     1.0  0.43631  0.05403  0.77757  1.0000
  H   H1644     1.0  0.45808  0.99708  0.71292  1.0000
  C   C1017     1.0  0.46888  0.07037  0.84757  1.0000
  H   H1645     1.0  0.34498  0.24196  0.93504  1.0000
  C   C1018     1.0  0.41013  0.00309  0.75218  1.0000
  C   C1019     1.0  0.40626  0.01389  0.75371  1.0000
  C   C1020     1.0  0.41034  0.01752  0.76064  1.0000
  C   C1021     1.0  0.41842  0.01044  0.76597  1.0000
  C   C1022     1.0  0.42249  0.99971  0.76428  1.0000
  H   H1646     1.0  0.41295  0.25371  0.95927  1.0000
  H   H1647     1.0  0.39980  0.01935  0.74994  1.0000
  H   H1648     1.0  0.40694  0.02573  0.76207  1.0000
  H   H1649     1.0  0.46681  0.03754  0.88828  1.0000
  C   C1023     1.0  0.41164  0.22670  0.96680  1.0000
  C   C1024     1.0  0.43096  0.13669  0.97471  1.0000
  S   S420      1.0  0.46564  0.13614  0.96254  1.0000
  C   C1025     1.0  0.41298  0.24551  0.95811  1.0000
  H   H1650     1.0  0.43702  0.30955  0.96532  1.0000
  C   C1026     1.0  0.43227  0.00808  0.72514  1.0000
  C   C1027     1.0  0.43469  0.01386  0.73156  1.0000
  H   H1651     1.0  0.47041  0.16799  0.92632  1.0000
  C   C1028     1.0  0.48316  0.00750  0.78286  1.0000
  H   H1652     1.0  0.35855  0.23046  0.92277  1.0000
  H   H1653     1.0  0.46045  0.07905  0.83448  1.0000
  H   H1654     1.0  0.41957  0.17682  0.89932  1.0000
  H   H1655     1.0  0.42068  0.24285  0.95227  1.0000
  S   S421      1.0  0.47652  0.09448  0.94404  1.0000
  H   H1656     1.0  0.44184  0.07352  0.86727  1.0000
  C   C1029     1.0  0.44551  0.01396  0.73080  1.0000
  S   S422      1.0  0.40938  0.31651  0.93190  1.0000
  C   C1030     1.0  0.47748  0.09412  0.93024  1.0000
  C   C1031     1.0  0.47792  0.08408  0.92780  1.0000
  H   H1657     1.0  0.46981  0.98942  0.81302  1.0000
  C   C1032     1.0  0.40866  0.01833  0.68241  1.0000
  H   H1658     1.0  0.42190  0.99380  0.80298  1.0000
  N   N106      1.0  0.44796  0.02200  0.68403  1.0000
  H   H1659     1.0  0.48156  0.15138  0.96406  1.0000
  C   C1033     1.0  0.40257  0.00591  0.67569  1.0000
  C   C1034     1.0  0.40146  0.01164  0.68378  1.0000
  H   H1660     1.0  0.45486  0.00516  0.68263  1.0000
  H   H1661     1.0  0.46263  0.07241  0.65747  1.0000
  C   C1035     1.0  0.48402  0.15427  0.97015  1.0000
  H   H1662     1.0  0.39487  0.01107  0.69098  1.0000
  C   C1036     1.0  0.39744  0.06821  0.71742  1.0000
  C   C1037     1.0  0.38943  0.07447  0.72430  1.0000
  C   C1038     1.0  0.38608  0.06988  0.73552  1.0000
  C   C1039     1.0  0.39103  0.05916  0.74007  1.0000
  C   C1040     1.0  0.39928  0.05294  0.73328  1.0000
  C   C1041     1.0  0.40236  0.05740  0.72190  1.0000
  H   H1663     1.0  0.38566  0.08285  0.72090  1.0000
  H   H1664     1.0  0.37965  0.07469  0.74071  1.0000
  H   H1665     1.0  0.40320  0.04470  0.73687  1.0000
  H   H1666     1.0  0.40863  0.05258  0.71663  1.0000
  C   C1042     1.0  0.44933  0.05982  0.67610  1.0000
  C   C1043     1.0  0.44268  0.06787  0.68183  1.0000
  C   C1044     1.0  0.44636  0.07067  0.68968  1.0000
  C   C1045     1.0  0.45646  0.06501  0.69219  1.0000
  C   C1046     1.0  0.46321  0.05720  0.68621  1.0000
  C   C1047     1.0  0.45973  0.05475  0.67804  1.0000
  H   H1667     1.0  0.43466  0.07189  0.68029  1.0000
  H   H1668     1.0  0.44114  0.07678  0.69419  1.0000
  H   H1669     1.0  0.47105  0.05284  0.68804  1.0000
  H   H1670     1.0  0.43115  0.19542  0.94088  1.0000
  N   N107      1.0  0.37556  0.03475  0.83967  1.0000
  C   C1048     1.0  0.41793  0.01374  0.66468  1.0000
  H   H1671     1.0  0.42390  0.00809  0.72564  1.0000
  C   C1049     1.0  0.48325  0.02813  0.88594  1.0000
  H   H1672     1.0  0.39372  0.16008  0.90675  1.0000
  H   H1673     1.0  0.37527  0.17957  0.97799  1.0000
  C   C1050     1.0  0.41415  0.04991  0.82871  1.0000
  C   C1051     1.0  0.40328  0.05562  0.83035  1.0000
  C   C1052     1.0  0.39694  0.05648  0.82290  1.0000
  C   C1053     1.0  0.40136  0.05152  0.81382  1.0000
  C   C1054     1.0  0.41218  0.04560  0.81229  1.0000
  C   C1055     1.0  0.41859  0.04491  0.81964  1.0000
  H   H1674     1.0  0.39985  0.05977  0.83711  1.0000
  H   H1675     1.0  0.38863  0.06119  0.82406  1.0000
  H   H1676     1.0  0.41561  0.04151  0.80549  1.0000
  H   H1677     1.0  0.42700  0.04045  0.81831  1.0000
  C   C1056     1.0  0.43153  0.04234  0.89517  1.0000
  C   C1057     1.0  0.42341  0.05169  0.89703  1.0000
  C   C1058     1.0  0.42534  0.05940  0.90162  1.0000
  C   C1059     1.0  0.43556  0.05802  0.90378  1.0000
  C   C1060     1.0  0.44346  0.04842  0.90241  1.0000
  C   C1061     1.0  0.44136  0.04049  0.89830  1.0000
  H   H1678     1.0  0.41571  0.05306  0.89481  1.0000
  H   H1679     1.0  0.41915  0.06669  0.90295  1.0000
  H   H1680     1.0  0.45131  0.04722  0.90427  1.0000
  H   H1681     1.0  0.44755  0.03317  0.89716  1.0000
  Fe  Fe198     1.0  0.46747  0.07501  0.87203  1.0000
  H   H1682     1.0  0.44161  0.04982  0.84663  1.0000
  C   C1062     1.0  0.39195  0.01760  0.86770  1.0000
  C   C1063     1.0  0.39957  0.01962  0.85776  1.0000
  C   C1064     1.0  0.40289  0.01224  0.85069  1.0000
  H   H1683     1.0  0.48635  0.16976  0.97900  1.0000
  H   H1684     1.0  0.47783  0.12693  0.98286  1.0000
  C   C1065     1.0  0.38807  0.00788  0.87072  1.0000
  H   H1685     1.0  0.40246  0.02716  0.85521  1.0000
  H   H1686     1.0  0.40838  0.01415  0.84279  1.0000
  C   C1066     1.0  0.47217  0.03011  0.88621  1.0000
  H   H1687     1.0  0.38216  0.00627  0.87837  1.0000
  H   H1688     1.0  0.37760  0.01936  0.85155  1.0000
  H   H1689     1.0  0.37442  0.23259  0.93520  1.0000
  H   H1690     1.0  0.40956  0.19945  0.98518  1.0000
  H   H1691     1.0  0.48353  0.25231  0.95485  1.0000
  H   H1692     1.0  0.37534  0.04777  0.82504  1.0000
  C   C1067     1.0  0.48581  0.22684  0.97185  1.0000
  C   C1068     1.0  0.39605  0.09058  0.90489  1.0000
  C   C1069     1.0  0.39416  0.09853  0.89537  1.0000
  C   C1070     1.0  0.39351  0.09528  0.88607  1.0000
  C   C1071     1.0  0.39488  0.08408  0.88618  1.0000
  C   C1072     1.0  0.39688  0.07616  0.89566  1.0000
  C   C1073     1.0  0.39735  0.07941  0.90499  1.0000
  H   H1693     1.0  0.39304  0.10716  0.89522  1.0000
  H   H1694     1.0  0.39190  0.10146  0.87878  1.0000
  H   H1695     1.0  0.39789  0.06753  0.89587  1.0000
  H   H1696     1.0  0.39880  0.07321  0.91232  1.0000
  C   C1074     1.0  0.39209  0.11760  0.96740  1.0000
  C   C1075     1.0  0.38841  0.12892  0.96364  1.0000
  C   C1076     1.0  0.38507  0.13599  0.97101  1.0000
  H   H1697     1.0  0.48281  0.03146  0.74937  1.0000
  H   H1698     1.0  0.41777  0.08243  0.88901  1.0000
  C   C1077     1.0  0.39241  0.11337  0.97856  1.0000
  H   H1699     1.0  0.38799  0.13223  0.95508  1.0000
  H   H1700     1.0  0.38219  0.14474  0.96808  1.0000
  H   H1701     1.0  0.42582  0.08492  0.85879  1.0000
  H   H1702     1.0  0.46460  0.03442  0.75763  1.0000
  C   C1078     1.0  0.43274  0.13321  0.92103  1.0000
  C   C1079     1.0  0.44314  0.12877  0.92319  1.0000
  C   C1080     1.0  0.44624  0.13213  0.93104  1.0000
  C   C1081     1.0  0.43916  0.14028  0.93639  1.0000
  C   C1082     1.0  0.42887  0.14496  0.93398  1.0000
  C   C1083     1.0  0.42561  0.14126  0.92647  1.0000
  H   H1703     1.0  0.44873  0.12257  0.91901  1.0000
  H   H1704     1.0  0.45414  0.12840  0.93290  1.0000
  H   H1705     1.0  0.42334  0.15126  0.93810  1.0000
  H   H1706     1.0  0.41761  0.14470  0.92484  1.0000
  C   C1084     1.0  0.37306  0.18165  0.92886  1.0000
  C   C1085     1.0  0.36689  0.18147  0.92171  1.0000
  C   C1086     1.0  0.36756  0.17165  0.91876  1.0000
  C   C1087     1.0  0.37432  0.16184  0.92302  1.0000
  C   C1088     1.0  0.38033  0.16191  0.93043  1.0000
  C   C1089     1.0  0.37977  0.17184  0.93329  1.0000
  H   H1707     1.0  0.36162  0.18899  0.91833  1.0000
  H   H1708     1.0  0.36285  0.17166  0.91309  1.0000
  H   H1709     1.0  0.38533  0.15434  0.93401  1.0000
  H   H1710     1.0  0.38440  0.17186  0.93901  1.0000
  C   C1090     1.0  0.41451  0.17758  0.97346  1.0000
  H   H1711     1.0  0.43393  0.00583  0.91759  1.0000
  H   H1712     1.0  0.40152  0.19202  0.97443  1.0000
  H   H1713     1.0  0.39724  0.99007  0.70265  1.0000
  C   C1091     1.0  0.41843  0.99609  0.75729  1.0000
  S   S423      1.0  0.36684  0.30365  0.97074  1.0000
  H   H1714     1.0  0.47668  0.08226  0.74513  1.0000
  H   H1715     1.0  0.39196  0.17537  0.98507  1.0000
  H   H1716     1.0  0.44061  0.99010  0.74184  1.0000
  C   C1092     1.0  0.47614  0.01456  0.78953  1.0000
  C   C1093     1.0  0.42737  0.21356  0.92370  1.0000
  C   C1094     1.0  0.43861  0.21234  0.92193  1.0000
  C   C1095     1.0  0.44278  0.21749  0.92752  1.0000
  H   H1717     1.0  0.35544  0.21440  0.95172  1.0000
  H   H1718     1.0  0.40456  0.03300  0.72550  1.0000
  C   C1096     1.0  0.42034  0.22062  0.93036  1.0000
  H   H1719     1.0  0.44411  0.20704  0.91664  1.0000
  H   H1720     1.0  0.44104  0.18844  0.92364  1.0000
  C   C1097     1.0  0.48095  0.15492  0.93532  1.0000
  H   H1721     1.0  0.41166  0.22169  0.93159  1.0000
  H   H1722     1.0  0.48555  0.22336  0.98079  1.0000
  H   H1723     1.0  0.40472  0.22748  0.96301  1.0000
  S   S424      1.0  0.48241  0.05660  0.79658  1.0000
  C   C1098     1.0  0.48720  0.07215  0.76811  1.0000
  C   C1099     1.0  0.38954  0.25862  0.94056  1.0000
  C   C1100     1.0  0.39352  0.24966  0.93540  1.0000
  C   C1101     1.0  0.39141  0.23925  0.94105  1.0000
  C   C1102     1.0  0.38517  0.23779  0.95182  1.0000
  C   C1103     1.0  0.38110  0.24676  0.95696  1.0000
  C   C1104     1.0  0.38332  0.25713  0.95137  1.0000
  H   H1724     1.0  0.39830  0.25076  0.92702  1.0000
  H   H1725     1.0  0.39448  0.23241  0.93698  1.0000
  H   H1726     1.0  0.37612  0.24571  0.96525  1.0000
  H   H1727     1.0  0.37991  0.26406  0.95529  1.0000
  C   C1105     1.0  0.44984  0.17163  0.94622  1.0000
  H   H1728     1.0  0.38152  0.03644  0.85288  1.0000
  C   C1106     1.0  0.42147  0.08642  0.86712  1.0000
  H   H1729     1.0  0.44154  0.09461  0.87255  1.0000
  H   H1730     1.0  0.43457  0.10740  0.92610  1.0000
  H   H1731     1.0  0.44597  0.99388  0.83596  1.0000
  H   H1732     1.0  0.47142  0.25290  0.97324  1.0000
  H   H1733     1.0  0.46452  0.01278  0.68237  1.0000
  H   H1734     1.0  0.38818  0.04726  0.66103  1.0000
  C   C1107     1.0  0.46620  0.01218  0.79592  1.0000
  H   H1735     1.0  0.43683  0.17187  0.98433  1.0000
  S   S425      1.0  0.44871  0.02184  0.73798  1.0000
  C   C1108     1.0  0.44450  0.26436  0.97702  1.0000
  C   C1109     1.0  0.44162  0.00544  0.89031  1.0000
  H   H1736     1.0  0.46072  0.01133  0.77025  1.0000
  Fe  Fe199     1.0  0.47596  0.28990  0.93138  1.0000
  N   N108      1.0  0.42913  0.08622  0.87370  1.0000
  C   C1110     1.0  0.48088  0.24828  0.92324  1.0000
  H   H1737     1.0  0.42261  0.02438  0.67182  1.0000
  Fe  Fe200     1.0  0.40422  0.06291  0.66837  1.0000
  C   C1111     1.0  0.47680  0.16595  0.93079  1.0000
  H   H1738     1.0  0.43417  0.27293  0.94710  1.0000
  H   H1739     1.0  0.45208  0.24495  0.95210  1.0000
  Fe  Fe201     1.0  0.40254  0.30205  0.94305  1.0000
  S   S426      1.0  0.38877  0.27845  0.96180  1.0000
  N   N109      1.0  0.42933  0.06598  0.72481  1.0000
  C   C1112     1.0  0.42887  0.06124  0.71585  1.0000
  C   C1113     1.0  0.41875  0.06689  0.73280  1.0000
  C   C1114     1.0  0.43168  0.07708  0.72018  1.0000
  C   C1115     1.0  0.43800  0.05874  0.73043  1.0000
  H   H1740     1.0  0.42675  0.05302  0.71914  1.0000
  H   H1741     1.0  0.43687  0.06004  0.70994  1.0000
  H   H1742     1.0  0.42271  0.06667  0.71110  1.0000
  H   H1743     1.0  0.41667  0.05871  0.73645  1.0000
  H   H1744     1.0  0.41883  0.07038  0.73972  1.0000
  H   H1745     1.0  0.41203  0.07230  0.72882  1.0000
  H   H1746     1.0  0.43963  0.07678  0.71418  1.0000
  H   H1747     1.0  0.43202  0.08088  0.72678  1.0000
  H   H1748     1.0  0.42534  0.08269  0.71577  1.0000
  H   H1749     1.0  0.43877  0.06215  0.73709  1.0000
  H   H1750     1.0  0.44605  0.05780  0.72455  1.0000
  H   H1751     1.0  0.43637  0.05034  0.73419  1.0000
  N   N110      1.0  0.44699  0.26019  0.94099  1.0000
  C   C1116     1.0  0.43699  0.26883  0.94001  1.0000
  C   C1117     1.0  0.45576  0.26519  0.94118  1.0000
  C   C1118     1.0  0.45029  0.25489  0.93146  1.0000
  C   C1119     1.0  0.44486  0.25185  0.95131  1.0000
  H   H1752     1.0  0.43023  0.26532  0.93979  1.0000
  H   H1753     1.0  0.43832  0.27531  0.93234  1.0000
  H   H1754     1.0  0.45750  0.27163  0.93356  1.0000
  H   H1755     1.0  0.45357  0.26920  0.94831  1.0000
  H   H1756     1.0  0.44371  0.25133  0.93090  1.0000
  H   H1757     1.0  0.45759  0.24803  0.93208  1.0000
  H   H1758     1.0  0.45221  0.26089  0.92355  1.0000
  H   H1759     1.0  0.43799  0.24825  0.95165  1.0000
  H   H1760     1.0  0.44271  0.25549  0.95866  1.0000
  H   H1761     1.0  0.45444  0.08065  0.91154  1.0000
  S   S427      1.0  0.40144  0.99476  0.84365  1.0000
  N   N111      1.0  0.45093  0.02784  0.76783  1.0000
  H   H1762     1.0  0.43931  0.09331  0.90318  1.0000
  H   H1763     1.0  0.37202  0.03554  0.82414  1.0000
  C   C1120     1.0  0.43910  0.09866  0.92753  1.0000
  H   H1764     1.0  0.48311  0.03483  0.76743  1.0000
  H   H1765     1.0  0.44373  0.19359  0.94464  1.0000
  H   H1766     1.0  0.46636  0.17923  0.96866  1.0000
  H   H1767     1.0  0.42258  0.99287  0.78922  1.0000
  C   C1121     1.0  0.45515  0.01693  0.76493  1.0000
  C   C1122     1.0  0.38272  0.03242  0.65359  1.0000
  C   C1123     1.0  0.45710  0.21596  0.97953  1.0000
  H   H1768     1.0  0.44838  0.01285  0.76591  1.0000
  H   H1769     1.0  0.47848  0.05977  0.85913  1.0000
  H   H1770     1.0  0.43767  0.02306  0.78082  1.0000
  H   H1771     1.0  0.44732  0.11082  0.90747  1.0000
  C   C1124     1.0  0.36725  0.30988  0.98102  1.0000
  H   H1772     1.0  0.44584  0.01240  0.88752  1.0000
  C   C1125     1.0  0.48301  0.02666  0.66689  1.0000
  H   H1773     1.0  0.45003  0.02074  0.78506  1.0000
  H   H1774     1.0  0.48198  0.27733  0.97131  1.0000
  H   H1775     1.0  0.44193  0.07462  0.88075  1.0000
  S   S428      1.0  0.47944  0.01834  0.72119  1.0000
  N   N112      1.0  0.38309  0.08578  0.95065  1.0000
  C   C1126     1.0  0.37743  0.09367  0.95788  1.0000
  C   C1127     1.0  0.37754  0.08811  0.94148  1.0000
  C   C1128     1.0  0.38297  0.07442  0.95710  1.0000
  C   C1129     1.0  0.39447  0.08694  0.94613  1.0000
  H   H1776     1.0  0.38151  0.09225  0.96480  1.0000
  H   H1777     1.0  0.36881  0.09306  0.96147  1.0000
  H   H1778     1.0  0.37743  0.10233  0.95327  1.0000
  H   H1779     1.0  0.36893  0.08732  0.94453  1.0000
  H   H1780     1.0  0.37756  0.09660  0.93639  1.0000
  H   H1781     1.0  0.38171  0.08241  0.93577  1.0000
  H   H1782     1.0  0.38712  0.07241  0.96407  1.0000
  H   H1783     1.0  0.38722  0.06830  0.95186  1.0000
  H   H1784     1.0  0.37450  0.07324  0.96063  1.0000
  H   H1785     1.0  0.39901  0.08122  0.94052  1.0000
  H   H1786     1.0  0.39892  0.08540  0.95279  1.0000
  H   H1787     1.0  0.39480  0.09540  0.94122  1.0000
  N   N113      1.0  0.42439  0.07814  0.80821  1.0000
  C   C1130     1.0  0.43369  0.06919  0.81101  1.0000
  C   C1131     1.0  0.41679  0.08063  0.81849  1.0000
  C   C1132     1.0  0.41870  0.07463  0.80183  1.0000
  C   C1133     1.0  0.42838  0.08809  0.80153  1.0000
  H   H1788     1.0  0.43810  0.07146  0.81597  1.0000
  H   H1789     1.0  0.43966  0.06718  0.80350  1.0000
  H   H1790     1.0  0.43104  0.06148  0.81583  1.0000
  H   H1791     1.0  0.40951  0.08714  0.81675  1.0000
  H   H1792     1.0  0.41386  0.07321  0.82384  1.0000
  H   H1793     1.0  0.42078  0.08346  0.82342  1.0000
  H   H1794     1.0  0.41167  0.08118  0.79950  1.0000
  H   H1795     1.0  0.41551  0.06720  0.80665  1.0000
  H   H1796     1.0  0.42423  0.07254  0.79408  1.0000
  H   H1797     1.0  0.43307  0.09074  0.80591  1.0000
  H   H1798     1.0  0.42156  0.09509  0.79949  1.0000
  H   H1799     1.0  0.43391  0.08654  0.79358  1.0000
  N   N114      1.0  0.41953  0.13703  0.97500  1.0000
  N   N115      1.0  0.48463  0.07152  0.75791  1.0000
  Fe  Fe202     1.0  0.47189  0.20471  0.95810  1.0000
  N   N116      1.0  0.41184  0.23737  0.96872  1.0000
  H   H1800     1.0  0.39884  0.00066  0.70822  1.0000
  C   C1134     1.0  0.43476  0.00916  0.90855  1.0000
  C   C1135     1.0  0.48132  0.26733  0.92175  1.0000
  H   H1801     1.0  0.43319  0.18705  0.95405  1.0000
  H   H1802     1.0  0.45832  0.99861  0.83322  1.0000
  H   H1803     1.0  0.43479  0.30763  0.91487  1.0000
  H   H1804     1.0  0.40845  0.14306  0.96404  1.0000
  H   H1805     1.0  0.44925  0.02713  0.69797  1.0000
  S   S429      1.0  0.46085  0.03667  0.70961  1.0000
  C   C1136     1.0  0.43421  0.26274  0.97768  1.0000
  C   C1137     1.0  0.47975  0.09264  0.90830  1.0000
  H   H1806     1.0  0.44405  0.03814  0.68747  1.0000
  H   H1807     1.0  0.44625  0.99926  0.88522  1.0000
  H   H1808     1.0  0.38527  0.02486  0.65979  1.0000
  N   N117      1.0  0.40769  0.99019  0.80078  1.0000
  H   H1809     1.0  0.43190  0.25514  0.98260  1.0000
  C   C1138     1.0  0.40920  0.18757  0.97661  1.0000
  H   H1810     1.0  0.47833  0.02071  0.66769  1.0000
  H   H1811     1.0  0.45717  0.04117  0.76872  1.0000
  H   H1812     1.0  0.41670  0.07993  0.87122  1.0000
  S   S430      1.0  0.38614  0.30069  0.94212  1.0000
  Fe  Fe203     1.0  0.47287  0.11022  0.95005  1.0000
  C   C1139     1.0  0.47761  0.05376  0.83538  1.0000
  H   H1813     1.0  0.46348  0.25892  0.94174  1.0000
  H   H1814     1.0  0.38690  0.01930  0.83842  1.0000
  C   C1140     1.0  0.48730  0.03249  0.65636  1.0000
  C   C1141     1.0  0.45173  0.10217  0.91005  1.0000
  C   C1142     1.0  0.41776  0.12568  0.97820  1.0000
  H   H1815     1.0  0.37303  0.01896  0.83984  1.0000
  H   H1816     1.0  0.38583  0.03570  0.82340  1.0000
  H   H1817     1.0  0.41665  0.15694  0.89290  1.0000
  C   C1143     1.0  0.38261  0.03912  0.84375  1.0000
  H   H1818     1.0  0.47575  0.06258  0.75313  1.0000
  H   H1819     1.0  0.38418  0.31038  0.97537  1.0000
  C   C1144     1.0  0.45608  0.01160  0.68607  1.0000
  H   H1820     1.0  0.40589  0.18467  0.89955  1.0000
  H   H1821     1.0  0.43985  0.04306  0.76279  1.0000
  S   S431      1.0  0.41460  0.26814  0.97212  1.0000
  C   C1145     1.0  0.41372  0.19177  0.98275  1.0000
  H   H1822     1.0  0.36926  0.21579  0.94795  1.0000
  C   C1146     1.0  0.37837  0.02257  0.84250  1.0000
  C   C1147     1.0  0.37722  0.03860  0.82755  1.0000
  H   H1823     1.0  0.35850  0.03556  0.84201  1.0000
  C   C1148     1.0  0.43692  0.01998  0.68918  1.0000
  C   C1149     1.0  0.36407  0.03870  0.84488  1.0000
  C   C1150     1.0  0.42701  0.27082  0.97190  1.0000
  H   H1824     1.0  0.38073  0.04828  0.84174  1.0000
  H   H1825     1.0  0.36169  0.04786  0.84293  1.0000
  N   N118      1.0  0.35842  0.22920  0.93977  1.0000
  S   S432      1.0  0.48243  0.30488  0.92919  1.0000
  H   H1826     1.0  0.45786  0.05068  0.85916  1.0000
  H   H1827     1.0  0.45512  0.00144  0.79966  1.0000
  H   H1828     1.0  0.34534  0.23917  0.94937  1.0000
  Fe  Fe204     1.0  0.45763  0.13241  0.95126  1.0000
  S   S433      1.0  0.46297  0.08051  0.85544  1.0000
  S   S434      1.0  0.45965  0.08457  0.88528  1.0000
  C   C1151     1.0  0.38414  0.03024  0.73571  1.0000
  H   H1829     1.0  0.44030  0.09325  0.85961  1.0000
  H   H1830     1.0  0.47764  0.14855  0.93442  1.0000
  H   H1831     1.0  0.45662  0.08250  0.92392  1.0000
  H   H1832     1.0  0.42818  0.01840  0.73692  1.0000
  S   S435      1.0  0.47219  0.19720  0.97584  1.0000
  H   H1833     1.0  0.38557  0.02227  0.74180  1.0000
  H   H1834     1.0  0.42221  0.13742  0.95775  1.0000
  S   S436      1.0  0.48240  0.04271  0.82859  1.0000
  C   C1152     1.0  0.44446  0.03080  0.86172  1.0000
  H   H1835     1.0  0.47109  0.08542  0.75854  1.0000
  C   C1153     1.0  0.44988  0.04434  0.84546  1.0000
  H   H1836     1.0  0.44631  0.02554  0.86968  1.0000
  S   S437      1.0  0.47525  0.28145  0.91866  1.0000
  S   S438      1.0  0.45766  0.02076  0.80467  1.0000
  C   C1154     1.0  0.36572  0.23689  0.93711  1.0000
  H   H1837     1.0  0.45005  0.03899  0.83998  1.0000
  H   H1838     1.0  0.43613  0.03593  0.86361  1.0000
  H   H1839     1.0  0.41928  0.22345  0.96116  1.0000
  H   H1840     1.0  0.36881  0.21951  0.92817  1.0000
  C   C1155     1.0  0.40193  0.02637  0.72373  1.0000
  C   C1156     1.0  0.45195  0.04525  0.86315  1.0000
  C   C1157     1.0  0.41850  0.98927  0.70025  1.0000
  H   H1841     1.0  0.41958  0.12140  0.98641  1.0000
  N   N119      1.0  0.45245  0.03777  0.85613  1.0000
  H   H1842     1.0  0.45582  0.04961  0.84095  1.0000
  C   C1158     1.0  0.45150  0.00186  0.71793  1.0000
  H   H1843     1.0  0.45338  0.18755  0.92756  1.0000
  H   H1844     1.0  0.40406  0.00651  0.80375  1.0000
  C   C1159     1.0  0.38711  0.02009  0.72169  1.0000
  C   C1160     1.0  0.46792  0.02234  0.88405  1.0000
  H   H1845     1.0  0.46591  0.02776  0.77155  1.0000
  S   S439      1.0  0.47178  0.30323  0.95603  1.0000
  C   C1161     1.0  0.47698  0.25964  0.91953  1.0000
  H   H1846     1.0  0.45773  0.10235  0.91455  1.0000
  C   C1162     1.0  0.47944  0.10268  0.91072  1.0000
  Fe  Fe205     1.0  0.46645  0.31089  0.94001  1.0000
  H   H1847     1.0  0.45386  0.04059  0.87126  1.0000
  H   H1848     1.0  0.40919  0.12568  0.97859  1.0000
  C   C1163     1.0  0.45318  0.31307  0.91527  1.0000
  H   H1849     1.0  0.43545  0.01325  0.68637  1.0000
  Fe  Fe206     1.0  0.45805  0.22025  0.94251  1.0000
  N   N120      1.0  0.44419  0.09507  0.91701  1.0000
  H   H1850     1.0  0.47858  0.02172  0.78978  1.0000
  H   H1851     1.0  0.36423  0.24366  0.92984  1.0000
  H   H1852     1.0  0.42861  0.99418  0.76852  1.0000
  H   H1853     1.0  0.40663  0.02518  0.71538  1.0000
  H   H1854     1.0  0.40442  0.01868  0.72975  1.0000
  C   C1164     1.0  0.36025  0.22414  0.93028  1.0000
  C   C1165     1.0  0.48083  0.17433  0.93206  1.0000
  C   C1166     1.0  0.47881  0.08248  0.75281  1.0000
  N   N121      1.0  0.47533  0.16296  0.97466  1.0000
  S   S440      1.0  0.45668  0.11536  0.96109  1.0000
  H   H1855     1.0  0.46974  0.03561  0.85041  1.0000
  C   C1167     1.0  0.46539  0.15861  0.98008  1.0000
  C   C1168     1.0  0.42112  0.23591  0.97377  1.0000
  C   C1169     1.0  0.44357  0.03491  0.76058  1.0000
  H   H1856     1.0  0.47048  0.26248  0.91512  1.0000
  H   H1857     1.0  0.47751  0.07679  0.93438  1.0000
  H   H1858     1.0  0.44371  0.05063  0.86488  1.0000
  H   H1859     1.0  0.47180  0.05411  0.65378  1.0000
  C   C1170     1.0  0.41523  0.15702  0.90177  1.0000
  H   H1860     1.0  0.44249  0.29004  0.96046  1.0000
  C   C1171     1.0  0.41223  0.14343  0.98310  1.0000
  H   H1861     1.0  0.40619  0.24666  0.95401  1.0000
  C   C1172     1.0  0.44493  0.02648  0.77946  1.0000
  H   H1862     1.0  0.46492  0.04851  0.67366  1.0000
  H   H1863     1.0  0.43690  0.03092  0.76109  1.0000
  C   C1173     1.0  0.44756  0.27414  0.97072  1.0000
  C   C1174     1.0  0.38710  0.03951  0.71648  1.0000
  H   H1864     1.0  0.45146  0.21607  0.92650  1.0000
  C   C1175     1.0  0.37690  0.31210  0.98150  1.0000
  H   H1865     1.0  0.43668  0.30813  0.93282  1.0000
  H   H1866     1.0  0.44222  0.03439  0.78220  1.0000
  Fe  Fe207     1.0  0.46287  0.02848  0.72669  1.0000
  C   C1176     1.0  0.46298  0.00309  0.79506  1.0000
  S   S441      1.0  0.44296  0.14448  0.94627  1.0000
  S   S442      1.0  0.46823  0.22306  0.95229  1.0000
  C   C1177     1.0  0.41714  0.14229  0.96398  1.0000
  H   H1867     1.0  0.45101  0.17574  0.92466  1.0000
  S   S443      1.0  0.39904  0.29899  0.96149  1.0000
  H   H1868     1.0  0.40579  0.31895  0.95434  1.0000
  H   H1869     1.0  0.42326  0.15617  0.90363  1.0000
  N   N122      1.0  0.40742  0.16712  0.90447  1.0000
  H   H1870     1.0  0.47764  0.11126  0.92348  1.0000
  H   H1871     1.0  0.38833  0.99303  0.86600  1.0000
  C   C1178     1.0  0.42295  0.08848  0.88458  1.0000
  C   C1179     1.0  0.44992  0.03012  0.68891  1.0000
  H   H1872     1.0  0.45698  0.02845  0.66800  1.0000
  H   H1873     1.0  0.45677  0.17532  0.94556  1.0000
  H   H1874     1.0  0.44533  0.09804  0.93217  1.0000
  C   C1180     1.0  0.48488  0.24316  0.95721  1.0000
  S   S444      1.0  0.47146  0.06323  0.90230  1.0000
  Fe  Fe208     1.0  0.40507  0.28119  0.96093  1.0000
  H   H1875     1.0  0.45972  0.01765  0.75620  1.0000
  H   H1876     1.0  0.48681  0.31297  0.95850  1.0000
  C   C1181     1.0  0.34698  0.23528  0.94222  1.0000
  H   H1877     1.0  0.39519  0.10461  0.98151  1.0000
  H   H1878     1.0  0.46226  0.00791  0.72341  1.0000
  Fe  Fe209     1.0  0.47564  0.07865  0.89051  1.0000
  C   C1182     1.0  0.44704  0.18295  0.92852  1.0000
  S   S445      1.0  0.48531  0.04133  0.70464  1.0000
  C   C1183     1.0  0.43000  0.28067  0.96566  1.0000
  S   S446      1.0  0.48273  0.28083  0.94629  1.0000
  H   H1879     1.0  0.44479  0.07785  0.92423  1.0000
  C   C1184     1.0  0.36069  0.22046  0.94952  1.0000
  C   C1185     1.0  0.46346  0.03064  0.85422  1.0000
  H   H1880     1.0  0.44614  0.16899  0.95512  1.0000
  H   H1881     1.0  0.35947  0.22394  0.95685  1.0000
  S   S447      1.0  0.39218  0.27162  0.93326  1.0000
  H   H1882     1.0  0.43584  0.16724  0.93680  1.0000
  H   H1883     1.0  0.46248  0.15592  0.97416  1.0000
  C   C1186     1.0  0.45028  0.08351  0.91931  1.0000
  S   S448      1.0  0.48311  0.03024  0.80490  1.0000
  Fe  Fe210     1.0  0.46619  0.11855  0.97142  1.0000
  H   H1884     1.0  0.45937  0.02402  0.88410  1.0000
  N   N123      1.0  0.44175  0.17954  0.94024  1.0000
  H   H1885     1.0  0.37521  0.03297  0.73632  1.0000
  C   C1187     1.0  0.38544  0.13176  0.98215  1.0000
  H   H1886     1.0  0.41219  0.14948  0.90662  1.0000
  H   H1887     1.0  0.41347  0.99659  0.71877  1.0000
  C   C1188     1.0  0.46995  0.99611  0.78826  1.0000
  C   C1189     1.0  0.43284  0.17430  0.94097  1.0000
  H   H1888     1.0  0.45234  0.99950  0.82205  1.0000
  H   H1889     1.0  0.39054  0.17480  0.90466  1.0000
  C   C1190     1.0  0.39685  0.16762  0.90216  1.0000
  H   H1890     1.0  0.38883  0.04654  0.71854  1.0000
  S   S449      1.0  0.46885  0.00336  0.87854  1.0000
  H   H1891     1.0  0.39752  0.16825  0.89325  1.0000
  C   C1191     1.0  0.41689  0.01939  0.67285  1.0000
  H   H1892     1.0  0.44811  0.02002  0.66802  1.0000
  C   C1192     1.0  0.47811  0.10347  0.92168  1.0000
  Fe  Fe211     1.0  0.39347  0.28259  0.94341  1.0000
  C   C1193     1.0  0.44031  0.28232  0.96505  1.0000
  H   H1893     1.0  0.42436  0.28703  0.96135  1.0000
  H   H1894     1.0  0.42990  0.09059  0.91610  1.0000
  S   S450      1.0  0.45945  0.29657  0.94089  1.0000
  H   H1895     1.0  0.42644  0.01262  0.90689  1.0000
  C   C1194     1.0  0.43727  0.18931  0.94521  1.0000
  H   H1896     1.0  0.42637  0.18025  0.93698  1.0000
  H   H1897     1.0  0.42902  0.17109  0.94969  1.0000
  H   H1898     1.0  0.45639  0.09922  0.90241  1.0000
  H   H1899     1.0  0.46422  0.02518  0.84864  1.0000
  H   H1900     1.0  0.37818  0.02166  0.72241  1.0000
  H   H1901     1.0  0.40264  0.15970  0.92162  1.0000
  Fe  Fe212     1.0  0.47749  0.04495  0.81260  1.0000
  C   C1195     1.0  0.42450  0.22610  0.93563  1.0000
  S   S451      1.0  0.46853  0.04225  0.72914  1.0000
  S   S452      1.0  0.41025  0.28431  0.94254  1.0000
  C   C1196     1.0  0.46604  0.07165  0.83752  1.0000
  H   H1902     1.0  0.41744  0.09680  0.88380  1.0000
  H   H1903     1.0  0.38332  0.26664  0.98483  1.0000
  S   S453      1.0  0.48093  0.09209  0.89452  1.0000
  C   C1197     1.0  0.46603  0.20800  0.98269  1.0000
  C   C1198     1.0  0.38910  0.12044  0.98593  1.0000
  C   C1199     1.0  0.40594  0.16691  0.91627  1.0000
  H   H1904     1.0  0.36469  0.24070  0.94418  1.0000
  H   H1905     1.0  0.35504  0.21811  0.93209  1.0000
  S   S454      1.0  0.46031  0.27610  0.97051  1.0000
  H   H1906     1.0  0.41376  0.16642  0.91837  1.0000
  H   H1907     1.0  0.38956  0.01204  0.72735  1.0000
  C   C1200     1.0  0.43653  0.07524  0.87524  1.0000
  H   H1908     1.0  0.41548  0.09444  0.86610  1.0000
  H   H1909     1.0  0.43025  0.10311  0.86666  1.0000
  H   H1910     1.0  0.43327  0.09356  0.93295  1.0000
  H   H1911     1.0  0.41897  0.23145  0.94083  1.0000
  H   H1912     1.0  0.39689  0.00084  0.67679  1.0000
  H   H1913     1.0  0.41356  0.15195  0.98105  1.0000
  S   S455      1.0  0.47307  0.12711  0.93934  1.0000
  H   H1914     1.0  0.43669  0.13165  0.96892  1.0000
  H   H1915     1.0  0.43563  0.01757  0.69832  1.0000
  C   C1201     1.0  0.43574  0.22426  0.93450  1.0000
  H   H1916     1.0  0.41288  0.17736  0.88874  1.0000
  H   H1917     1.0  0.40013  0.17445  0.91856  1.0000
  H   H1918     1.0  0.46813  0.06435  0.82372  1.0000
  H   H1919     1.0  0.47999  0.10991  0.90410  1.0000
  S   S456      1.0  0.46039  0.20216  0.94970  1.0000
  Fe  Fe213     1.0  0.38304  0.29665  0.96061  1.0000
  C   C1202     1.0  0.39161  0.00035  0.86375  1.0000
  C   C1203     1.0  0.41163  0.17692  0.89771  1.0000
  H   H1920     1.0  0.39120  0.01922  0.71310  1.0000
  H   H1921     1.0  0.37829  0.04160  0.71645  1.0000
  S   S457      1.0  0.41217  0.99967  0.65609  1.0000
  C   C1204     1.0  0.43555  0.09470  0.86788  1.0000
  H   H1922     1.0  0.45322  0.16405  0.94281  1.0000
  C   C1205     1.0  0.42445  0.17189  0.97629  1.0000
  S   S458      1.0  0.44097  0.22983  0.94231  1.0000
  H   H1923     1.0  0.43195  0.06858  0.87908  1.0000
  H   H1924     1.0  0.45558  0.00830  0.69505  1.0000
  H   H1925     1.0  0.38669  0.03642  0.73839  1.0000
  N   N124      1.0  0.39007  0.02907  0.72441  1.0000
  C   C1206     1.0  0.47041  0.06336  0.83142  1.0000
  H   H1926     1.0  0.44795  0.03643  0.75178  1.0000
  H   H1927     1.0  0.42845  0.08796  0.88998  1.0000
  C   C1207     1.0  0.44897  0.02622  0.67202  1.0000
  C   C1208     1.0  0.44070  0.00211  0.71829  1.0000
  S   S459      1.0  0.40398  0.99811  0.74467  1.0000
  H   H1928     1.0  0.42862  0.16420  0.97383  1.0000
  S   S460      1.0  0.48239  0.11189  0.96133  1.0000
  H   H1929     1.0  0.45824  0.03172  0.68531  1.0000
  H   H1930     1.0  0.44259  0.03376  0.67018  1.0000
  S   S461      1.0  0.43768  0.99505  0.71014  1.0000
  H   H1931     1.0  0.45362  0.21514  0.97322  1.0000
  H   H1932     1.0  0.43055  0.02745  0.68717  1.0000
  H   H1933     1.0  0.45365  0.30403  0.91807  1.0000
  C   C1209     1.0  0.37143  0.17466  0.98592  1.0000
  Fe  Fe214     1.0  0.47467  0.20076  0.93546  1.0000
  C   C1210     1.0  0.42912  0.17625  0.98217  1.0000
  C   C1211     1.0  0.48022  0.99807  0.78253  1.0000
  H   H1934     1.0  0.44433  0.02529  0.85654  1.0000
  Fe  Fe215     1.0  0.47795  0.02788  0.70402  1.0000
  H   H1935     1.0  0.39778  0.03425  0.66305  1.0000
  C   C1212     1.0  0.39499  0.04153  0.65671  1.0000
  Fe  Fe216     1.0  0.48206  0.21995  0.93803  1.0000
  H   H1936     1.0  0.45647  0.00350  0.90184  1.0000
  S   S462      1.0  0.47154  0.21886  0.92752  1.0000
  H   H1937     1.0  0.40041  0.23544  0.98432  1.0000
  H   H1938     1.0  0.48169  0.05531  0.76477  1.0000
  H   H1939     1.0  0.42303  0.12070  0.97214  1.0000
  H   H1940     1.0  0.47967  0.07466  0.77427  1.0000
  H   H1941     1.0  0.41841  0.99818  0.69892  1.0000
  C   C1213     1.0  0.41958  0.98933  0.79810  1.0000
  H   H1942     1.0  0.41078  0.22036  0.97464  1.0000
  C   C1214     1.0  0.45388  0.00799  0.72395  1.0000
  H   H1943     1.0  0.40354  0.14409  0.98336  1.0000
  Fe  Fe217     1.0  0.48109  0.12931  0.95152  1.0000
  C   C1215     1.0  0.39884  0.00265  0.85359  1.0000
  S   S463      1.0  0.41759  0.04784  0.66732  1.0000
  H   H1944     1.0  0.44570  0.23115  0.98215  1.0000
  Fe  Fe218     1.0  0.48511  0.03273  0.72244  1.0000
  C   C1216     1.0  0.43752  0.31337  0.97156  1.0000
  C   C1217     1.0  0.48054  0.05256  0.84534  1.0000
  H   H1945     1.0  0.42900  0.23280  0.96837  1.0000
  H   H1946     1.0  0.47059  0.17024  0.95909  1.0000
  C   C1218     1.0  0.47764  0.06354  0.76063  1.0000
  N   N125      1.0  0.44185  0.31944  0.91771  1.0000
  H   H1947     1.0  0.43292  0.13315  0.98301  1.0000
  C   C1219     1.0  0.42371  0.18615  0.98551  1.0000
  C   C1220     1.0  0.45208  0.99666  0.90431  1.0000
  C   C1221     1.0  0.45258  0.22496  0.98462  1.0000
  C   C1222     1.0  0.47893  0.08336  0.91689  1.0000
  S   S464      1.0  0.39293  0.06998  0.65659  1.0000
  C   C1223     1.0  0.43518  0.31648  0.91192  1.0000
  N   N126      1.0  0.44098  0.00064  0.90220  1.0000
  H   H1948     1.0  0.42707  0.99408  0.90401  1.0000
  H   H1949     1.0  0.47225  0.24088  0.98427  1.0000
  S   S465      1.0  0.47997  0.02057  0.68940  1.0000
  H   H1950     1.0  0.39442  0.24269  0.97267  1.0000
  H   H1951     1.0  0.47948  0.22411  0.96970  1.0000
  H   H1952     1.0  0.43270  0.14508  0.97185  1.0000
  C   C1224     1.0  0.45397  0.99426  0.83012  1.0000
  H   H1953     1.0  0.46660  0.24132  0.97299  1.0000
  S   S466      1.0  0.48392  0.07036  0.87615  1.0000
  H   H1954     1.0  0.47929  0.07557  0.91511  1.0000
  H   H1955     1.0  0.46979  0.06612  0.76635  1.0000
  S   S467      1.0  0.48657  0.20162  0.94459  1.0000
  H   H1956     1.0  0.37551  0.03777  0.65791  1.0000
  H   H1957     1.0  0.45883  0.99166  0.74274  1.0000
  H   H1958     1.0  0.47471  0.29995  0.97858  1.0000
  H   H1959     1.0  0.41884  0.15070  0.96104  1.0000
  C   C1225     1.0  0.48481  0.02849  0.67636  1.0000
  H   H1960     1.0  0.40163  0.24934  0.97799  1.0000
  H   H1961     1.0  0.40449  0.00607  0.78989  1.0000
  H   H1962     1.0  0.42149  0.24381  0.97535  1.0000
  H   H1963     1.0  0.48384  0.08873  0.75062  1.0000
  Fe  Fe219     1.0  0.48610  0.04220  0.78864  1.0000
  C   C1226     1.0  0.43546  0.99133  0.90557  1.0000
  H   H1964     1.0  0.42435  0.01451  0.65731  1.0000
  H   H1965     1.0  0.45707  0.99034  0.89951  1.0000
  N   N127      1.0  0.48127  0.28306  0.98563  1.0000
  H   H1966     1.0  0.42665  0.32136  0.91337  1.0000
  C   C1227     1.0  0.48720  0.28009  0.97498  1.0000
  H   H1967     1.0  0.36810  0.28250  0.98592  1.0000
  H   H1968     1.0  0.48691  0.00397  0.83925  1.0000
  H   H1969     1.0  0.37444  0.32075  0.95318  1.0000
  N   N128      1.0  0.48403  0.23899  0.96921  1.0000
  C   C1228     1.0  0.48567  0.01009  0.88202  1.0000
  C   C1229     1.0  0.39961  0.99164  0.70961  1.0000
  H   H1970     1.0  0.48532  0.32080  0.97433  1.0000
  H   H1971     1.0  0.38649  0.28566  0.98280  1.0000
  C   C1230     1.0  0.43008  0.31240  0.98172  1.0000
  S   S468      1.0  0.41979  0.30532  0.98421  1.0000
  H   H1972     1.0  0.45865  0.16495  0.98360  1.0000
  Fe  Fe220     1.0  0.48746  0.29650  0.94528  1.0000
  H   H1973     1.0  0.47886  0.24071  0.95431  1.0000
  C   C1231     1.0  0.47194  0.29241  0.98390  1.0000
  H   H1974     1.0  0.45844  0.31518  0.91946  1.0000
  H   H1975     1.0  0.42039  0.22993  0.98188  1.0000
  H   H1976     1.0  0.45004  0.25802  0.98145  1.0000
  H   H1977     1.0  0.45687  0.31476  0.90628  1.0000
  H   H1978     1.0  0.48613  0.04518  0.84845  1.0000
  H   H1979     1.0  0.42902  0.32205  0.93191  1.0000
  H   H1980     1.0  0.45099  0.32051  0.96140  1.0000
  H   H1981     1.0  0.48608  0.14693  0.97674  1.0000
  H   H1982     1.0  0.45196  0.99292  0.91319  1.0000
  H   H1983     1.0  0.37285  0.16609  0.98479  1.0000
  H   H1984     1.0  0.43851  0.31801  0.90286  1.0000
  C   C1232     1.0  0.44540  0.31954  0.96936  1.0000
  Fe  Fe221     1.0  0.37306  0.40468  0.01069  1.0000
  S   S469      1.0  0.38201  0.41635  0.01222  1.0000
  H   H1985     1.0  0.39076  0.42010  0.04371  1.0000
  Fe  Fe222     1.0  0.38010  0.38723  0.02986  1.0000
  S   S470      1.0  0.38959  0.39749  0.03337  1.0000
  S   S471      1.0  0.37752  0.37031  0.03932  1.0000
  Fe  Fe223     1.0  0.37529  0.41154  0.03036  1.0000
  S   S472      1.0  0.36968  0.42601  0.03858  1.0000
  Fe  Fe224     1.0  0.39549  0.40154  0.01497  1.0000
  S   S473      1.0  0.41245  0.40303  0.00547  1.0000
  S   S474      1.0  0.36521  0.40097  0.02862  1.0000
  S   S475      1.0  0.38714  0.39019  0.01168  1.0000
  S   S476      1.0  0.44199  0.41836  0.02697  1.0000
  H   H1986     1.0  0.45164  0.33656  0.03401  1.0000
  S   S477      1.0  0.33083  0.47267  0.99213  1.0000
  S   S478      1.0  0.33413  0.58107  0.01237  1.0000
  H   H1987     1.0  0.31089  0.53463  0.00353  1.0000
  Fe  Fe225     1.0  0.34068  0.55448  0.00115  1.0000
  S   S479      1.0  0.34374  0.55419  0.01743  1.0000
  S   S480      1.0  0.34258  0.53907  0.99524  1.0000
  Fe  Fe226     1.0  0.32733  0.56575  0.01944  1.0000
  S   S481      1.0  0.31401  0.56346  0.03470  1.0000
  Fe  Fe227     1.0  0.35035  0.56948  0.00864  1.0000
  S   S482      1.0  0.36677  0.57191  0.00904  1.0000
  S   S483      1.0  0.32404  0.56526  0.00362  1.0000
  S   S484      1.0  0.45187  0.33339  0.00567  1.0000
  Fe  Fe228     1.0  0.31440  0.49054  0.02494  1.0000
  H   H1988     1.0  0.28529  0.47961  0.99049  1.0000
  S   S485      1.0  0.31484  0.50609  0.02931  1.0000
  Fe  Fe229     1.0  0.31541  0.46605  0.03295  1.0000
  S   S486      1.0  0.30910  0.46516  0.01888  1.0000
  S   S487      1.0  0.31968  0.44967  0.04456  1.0000
  H   H1989     1.0  0.37991  0.62969  0.99376  1.0000
  S   S488      1.0  0.47426  0.41426  0.01994  1.0000
  Fe  Fe230     1.0  0.29735  0.48091  0.02130  1.0000
  S   S489      1.0  0.28103  0.48624  0.01671  1.0000
  S   S490      1.0  0.32790  0.47568  0.02248  1.0000
  S   S491      1.0  0.30227  0.48093  0.03658  1.0000
  H   H1990     1.0  0.37768  0.36829  0.01567  1.0000
  H   H1991     1.0  0.42441  0.65234  0.02663  1.0000
  C   C1233     1.0  0.47043  0.38220  0.01254  1.0000
  H   H1992     1.0  0.24531  0.47970  0.02040  1.0000
  H   H1993     1.0  0.31757  0.45622  0.00146  1.0000
  H   H1994     1.0  0.44576  0.38813  0.00726  1.0000
  H   H1995     1.0  0.24648  0.49449  0.06889  1.0000
  H   H1996     1.0  0.26040  0.48916  0.05229  1.0000
  S   S492      1.0  0.39920  0.32347  0.00444  1.0000
  H   H1997     1.0  0.36100  0.34719  0.02679  1.0000
  H   H1998     1.0  0.38200  0.61282  0.04502  1.0000
  S   S493      1.0  0.25910  0.56484  0.00198  1.0000
  H   H1999     1.0  0.48083  0.35623  0.99991  1.0000
  Fe  Fe231     1.0  0.46887  0.64092  0.02125  1.0000
  S   S494      1.0  0.45124  0.64009  0.02838  1.0000
  H   H2000     1.0  0.40506  0.42513  0.02050  1.0000
  N   N129      1.0  0.30782  0.53171  0.98923  1.0000
  Fe  Fe232     1.0  0.38778  0.61964  0.01715  1.0000
  S   S495      1.0  0.38208  0.63790  0.01120  1.0000
  S   S496      1.0  0.37361  0.61124  0.02515  1.0000
  Fe  Fe233     1.0  0.41164  0.62134  0.01078  1.0000
  S   S497      1.0  0.40768  0.63960  0.00439  1.0000
  S   S498      1.0  0.42954  0.61395  0.00886  1.0000
  Fe  Fe234     1.0  0.39419  0.63966  0.01941  1.0000
  H   H2001     1.0  0.37836  0.36917  0.00140  1.0000
  Fe  Fe235     1.0  0.39609  0.63587  0.99692  1.0000
  H   H2002     1.0  0.31118  0.58996  0.00705  1.0000
  S   S499      1.0  0.39899  0.62158  0.02657  1.0000
  S   S500      1.0  0.40098  0.61752  0.00200  1.0000
  C   C1234     1.0  0.28213  0.56363  0.04086  1.0000
  H   H2003     1.0  0.34131  0.51719  0.99527  1.0000
  C   C1235     1.0  0.30351  0.58919  0.01335  1.0000
  H   H2004     1.0  0.36839  0.61095  0.05016  1.0000
  Fe  Fe236     1.0  0.48697  0.64101  0.00069  1.0000
  H   H2005     1.0  0.29014  0.52290  0.05475  1.0000
  H   H2006     1.0  0.47118  0.63647  0.99405  1.0000
  H   H2007     1.0  0.39486  0.59877  0.99269  1.0000
  C   C1236     1.0  0.44586  0.63173  0.02357  1.0000
  C   C1237     1.0  0.45175  0.62690  0.01463  1.0000
  C   C1238     1.0  0.44681  0.62121  0.01028  1.0000
  C   C1239     1.0  0.43589  0.62056  0.01468  1.0000
  C   C1240     1.0  0.43004  0.62532  0.02366  1.0000
  C   C1241     1.0  0.43509  0.63066  0.02823  1.0000
  H   H2008     1.0  0.46005  0.62765  0.01099  1.0000
  H   H2009     1.0  0.45136  0.61752  0.00334  1.0000
  H   H2010     1.0  0.42167  0.62472  0.02721  1.0000
  H   H2011     1.0  0.43059  0.63408  0.03534  1.0000
  H   H2012     1.0  0.30879  0.44736  0.99292  1.0000
  C   C1242     1.0  0.28097  0.56057  0.03177  1.0000
  Fe  Fe237     1.0  0.26556  0.54830  0.99745  1.0000
  H   H2013     1.0  0.35737  0.43498  0.01777  1.0000
  Fe  Fe238     1.0  0.47848  0.43018  0.00884  1.0000
  H   H2014     1.0  0.43240  0.38652  0.00815  1.0000
  H   H2015     1.0  0.42395  0.33849  0.05254  1.0000
  N   N130      1.0  0.44386  0.38376  0.99312  1.0000
  S   S501      1.0  0.41096  0.32754  0.02658  1.0000
  Fe  Fe239     1.0  0.33233  0.57938  0.99625  1.0000
  Fe  Fe240     1.0  0.25320  0.53660  0.01861  1.0000
  S   S502      1.0  0.48466  0.42263  0.99398  1.0000
  H   H2016     1.0  0.45180  0.32291  0.04259  1.0000
  H   H2017     1.0  0.24695  0.49988  0.02643  1.0000
  H   H2018     1.0  0.36163  0.62919  0.03908  1.0000
  C   C1243     1.0  0.28260  0.51511  0.03546  1.0000
  N   N131      1.0  0.37006  0.35693  0.01283  1.0000
  H   H2019     1.0  0.38152  0.62637  0.06136  1.0000
  S   S503      1.0  0.36877  0.32291  0.00968  1.0000
  H   H2020     1.0  0.29562  0.54684  0.98817  1.0000
  C   C1244     1.0  0.27079  0.47868  0.02276  1.0000
  H   H2021     1.0  0.43611  0.34380  0.04833  1.0000
  C   C1245     1.0  0.43874  0.32334  0.98765  1.0000
  C   C1246     1.0  0.25287  0.46878  0.03331  1.0000
  C   C1247     1.0  0.26248  0.46508  0.03732  1.0000
  C   C1248     1.0  0.27145  0.47003  0.03205  1.0000
  H   H2022     1.0  0.33334  0.43883  0.99969  1.0000
  C   C1249     1.0  0.24044  0.51732  0.02339  1.0000
  H   H2023     1.0  0.26290  0.45858  0.04466  1.0000
  H   H2024     1.0  0.27872  0.46736  0.03535  1.0000
  C   C1250     1.0  0.36840  0.58305  0.01343  1.0000
  C   C1251     1.0  0.37896  0.58400  0.01285  1.0000
  C   C1252     1.0  0.38069  0.59289  0.01592  1.0000
  C   C1253     1.0  0.37180  0.60070  0.01999  1.0000
  C   C1254     1.0  0.36122  0.59968  0.02073  1.0000
  C   C1255     1.0  0.35952  0.59098  0.01730  1.0000
  H   H2025     1.0  0.38583  0.57771  0.01018  1.0000
  H   H2026     1.0  0.38886  0.59342  0.01559  1.0000
  H   H2027     1.0  0.35430  0.60562  0.02397  1.0000
  H   H2028     1.0  0.35134  0.59032  0.01785  1.0000
  C   C1256     1.0  0.33540  0.52960  0.00499  1.0000
  C   C1257     1.0  0.33608  0.51937  0.00280  1.0000
  C   C1258     1.0  0.32993  0.51198  0.01028  1.0000
  C   C1259     1.0  0.32319  0.51476  0.02004  1.0000
  C   C1260     1.0  0.32267  0.52490  0.02230  1.0000
  C   C1261     1.0  0.32870  0.53231  0.01479  1.0000
  H   H2029     1.0  0.27710  0.59129  0.01325  1.0000
  H   H2030     1.0  0.33041  0.50416  0.00850  1.0000
  H   H2031     1.0  0.31757  0.52706  0.02989  1.0000
  H   H2032     1.0  0.32816  0.54014  0.01660  1.0000
  C   C1262     1.0  0.30161  0.56141  0.03367  1.0000
  C   C1263     1.0  0.30058  0.55783  0.02477  1.0000
  C   C1264     1.0  0.43151  0.34054  0.03071  1.0000
  H   H2033     1.0  0.30772  0.55536  0.01867  1.0000
  C   C1265     1.0  0.29294  0.60215  0.00082  1.0000
  C   C1266     1.0  0.35575  0.43245  0.04050  1.0000
  C   C1267     1.0  0.34775  0.42629  0.04359  1.0000
  C   C1268     1.0  0.33669  0.43163  0.04504  1.0000
  C   C1269     1.0  0.33358  0.44317  0.04318  1.0000
  C   C1270     1.0  0.34161  0.44932  0.04007  1.0000
  C   C1271     1.0  0.35265  0.44397  0.03885  1.0000
  H   H2034     1.0  0.35006  0.41739  0.04502  1.0000
  H   H2035     1.0  0.33051  0.42683  0.04753  1.0000
  H   H2036     1.0  0.33928  0.45820  0.03880  1.0000
  H   H2037     1.0  0.35879  0.44878  0.03656  1.0000
  C   C1272     1.0  0.38705  0.35857  0.03570  1.0000
  C   C1273     1.0  0.39659  0.35944  0.02761  1.0000
  C   C1274     1.0  0.40387  0.34989  0.02474  1.0000
  C   C1275     1.0  0.40156  0.33946  0.02984  1.0000
  C   C1276     1.0  0.39198  0.33861  0.03784  1.0000
  C   C1277     1.0  0.38481  0.34813  0.04085  1.0000
  H   H2038     1.0  0.39839  0.36746  0.02363  1.0000
  H   H2039     1.0  0.41127  0.35059  0.01851  1.0000
  H   H2040     1.0  0.30442  0.51625  0.98971  1.0000
  H   H2041     1.0  0.37746  0.34741  0.04716  1.0000
  C   C1278     1.0  0.42029  0.40748  0.01169  1.0000
  C   C1279     1.0  0.41978  0.40415  0.02305  1.0000
  C   C1280     1.0  0.42657  0.40739  0.02770  1.0000
  C   C1281     1.0  0.43385  0.41397  0.02102  1.0000
  C   C1282     1.0  0.43420  0.41741  0.00970  1.0000
  C   C1283     1.0  0.42751  0.41411  0.00505  1.0000
  H   H2042     1.0  0.41433  0.39891  0.02821  1.0000
  H   H2043     1.0  0.42628  0.40470  0.03647  1.0000
  H   H2044     1.0  0.43947  0.42284  0.00456  1.0000
  H   H2045     1.0  0.42781  0.41687  0.99629  1.0000
  H   H2046     1.0  0.26638  0.52761  0.99306  1.0000
  C   C1284     1.0  0.43296  0.33627  0.04969  1.0000
  C   C1285     1.0  0.44121  0.38322  0.00512  1.0000
  H   H2047     1.0  0.36162  0.34839  0.00703  1.0000
  H   H2048     1.0  0.36752  0.35590  0.03021  1.0000
  H   H2049     1.0  0.41688  0.42901  0.03032  1.0000
  H   H2050     1.0  0.42761  0.64784  0.00367  1.0000
  C   C1286     1.0  0.24056  0.50647  0.02359  1.0000
  C   C1287     1.0  0.28823  0.49982  0.98821  1.0000
  H   H2051     1.0  0.39088  0.44279  0.04634  1.0000
  N   N132      1.0  0.43607  0.33201  0.03951  1.0000
  H   H2052     1.0  0.39687  0.58441  0.99296  1.0000
  H   H2053     1.0  0.38526  0.34879  0.00392  1.0000
  S   S504      1.0  0.24930  0.54398  0.00196  1.0000
  H   H2054     1.0  0.37672  0.60959  0.05965  1.0000
  H   H2055     1.0  0.44320  0.37459  0.00986  1.0000
  H   H2056     1.0  0.34231  0.45119  0.01757  1.0000
  Fe  Fe241     1.0  0.46779  0.42894  0.99128  1.0000
  H   H2057     1.0  0.41449  0.65037  0.02057  1.0000
  H   H2058     1.0  0.39936  0.42285  0.05078  1.0000
  C   C1288     1.0  0.33887  0.43303  0.00493  1.0000
  H   H2059     1.0  0.39888  0.43952  0.01728  1.0000
  S   S505      1.0  0.24555  0.55187  0.02509  1.0000
  H   H2060     1.0  0.36519  0.64129  0.04025  1.0000
  C   C1289     1.0  0.30153  0.52525  0.98665  1.0000
  N   N133      1.0  0.34523  0.43890  0.00819  1.0000
  H   H2061     1.0  0.48503  0.60087  0.99249  1.0000
  H   H2062     1.0  0.34646  0.45095  0.99288  1.0000
  C   C1290     1.0  0.29023  0.55753  0.02374  1.0000
  H   H2063     1.0  0.28985  0.58413  0.99711  1.0000
  H   H2064     1.0  0.48225  0.49683  0.05531  1.0000
  H   H2065     1.0  0.45742  0.36985  0.99342  1.0000
  H   H2066     1.0  0.29309  0.56670  0.04875  1.0000
  H   H2067     1.0  0.27743  0.50946  0.04118  1.0000
  S   S506      1.0  0.47399  0.34027  0.98885  1.0000
  N   N134      1.0  0.28386  0.52313  0.04098  1.0000
  S   S507      1.0  0.30860  0.49156  0.00994  1.0000
  H   H2068     1.0  0.30210  0.59516  0.01860  1.0000
  H   H2069     1.0  0.29062  0.50991  0.03231  1.0000
  H   H2070     1.0  0.36667  0.62195  0.98956  1.0000
  H   H2071     1.0  0.28222  0.59661  0.02181  1.0000
  N   N135      1.0  0.37070  0.62630  0.05154  1.0000
  C   C1291     1.0  0.39866  0.42236  0.04257  1.0000
  Fe  Fe242     1.0  0.47892  0.40757  0.00454  1.0000
  H   H2072     1.0  0.28690  0.53550  0.02618  1.0000
  S   S508      1.0  0.47877  0.64528  0.03050  1.0000
  C   C1292     1.0  0.36392  0.35651  0.00501  1.0000
  S   S509      1.0  0.27010  0.53949  0.01358  1.0000
  C   C1293     1.0  0.36322  0.35538  0.02413  1.0000
  H   H2073     1.0  0.28617  0.60379  0.99656  1.0000
  H   H2074     1.0  0.33245  0.44273  0.02208  1.0000
  C   C1294     1.0  0.28905  0.51713  0.05038  1.0000
  H   H2075     1.0  0.38493  0.34822  0.01798  1.0000
  C   C1295     1.0  0.25251  0.47700  0.02371  1.0000
  H   H2076     1.0  0.29694  0.57427  0.00696  1.0000
  C   C1296     1.0  0.35256  0.43085  0.01497  1.0000
  H   H2077     1.0  0.48666  0.51329  0.04087  1.0000
  H   H2078     1.0  0.42256  0.34338  0.03341  1.0000
  H   H2079     1.0  0.35770  0.63690  0.06052  1.0000
  S   S510      1.0  0.34879  0.56861  0.99200  1.0000
  S   S511      1.0  0.47271  0.65391  0.00616  1.0000
  C   C1297     1.0  0.37929  0.63059  0.05329  1.0000
  H   H2080     1.0  0.43280  0.39934  0.98942  1.0000
  H   H2081     1.0  0.38683  0.62945  0.04674  1.0000
  H   H2082     1.0  0.37764  0.58828  0.99009  1.0000
  C   C1298     1.0  0.29637  0.58267  0.00164  1.0000
  H   H2083     1.0  0.39072  0.44981  0.03224  1.0000
  Fe  Fe243     1.0  0.48273  0.32340  0.99609  1.0000
  C   C1299     1.0  0.37311  0.36773  0.00984  1.0000
  H   H2084     1.0  0.29733  0.53299  0.00508  1.0000
  H   H2085     1.0  0.26085  0.48861  0.01127  1.0000
  Fe  Fe244     1.0  0.24303  0.55968  0.00795  1.0000
  N   N136      1.0  0.29424  0.59107  0.00817  1.0000
  S   S512      1.0  0.46163  0.43721  0.00552  1.0000
  C   C1300     1.0  0.35175  0.44483  0.99822  1.0000
  C   C1301     1.0  0.31874  0.45818  0.99266  1.0000
  H   H2086     1.0  0.43905  0.32732  0.99383  1.0000
  Fe  Fe245     1.0  0.46528  0.34061  0.00642  1.0000
  H   H2087     1.0  0.33240  0.45329  0.00972  1.0000
  H   H2088     1.0  0.24773  0.47179  0.05595  1.0000
  C   C1302     1.0  0.36802  0.63225  0.04077  1.0000
  H   H2089     1.0  0.33377  0.42856  0.01229  1.0000
  H   H2090     1.0  0.36260  0.62361  0.06866  1.0000
  C   C1303     1.0  0.26140  0.48196  0.01848  1.0000
  H   H2091     1.0  0.36884  0.35767  0.99640  1.0000
  C   C1304     1.0  0.46798  0.36468  0.01113  1.0000
  H   H2092     1.0  0.27956  0.49912  0.99089  1.0000
  C   C1305     1.0  0.29078  0.53042  0.03310  1.0000
  H   H2093     1.0  0.35757  0.43903  0.99322  1.0000
  C   C1306     1.0  0.43161  0.65405  0.00441  1.0000
  C   C1307     1.0  0.39750  0.59260  0.98742  1.0000
  H   H2094     1.0  0.42828  0.38136  0.99322  1.0000
  S   S513      1.0  0.48216  0.62752  0.01490  1.0000
  C   C1308     1.0  0.46431  0.37405  0.01571  1.0000
  H   H2095     1.0  0.34792  0.42605  0.02243  1.0000
  H   H2096     1.0  0.25243  0.50020  0.04396  1.0000
  H   H2097     1.0  0.43524  0.34785  0.02824  1.0000
  H   H2098     1.0  0.43833  0.64949  0.00871  1.0000
  H   H2099     1.0  0.30050  0.60301  0.99437  1.0000
  C   C1309     1.0  0.33777  0.44685  0.01468  1.0000
  H   H2100     1.0  0.27377  0.53621  0.04894  1.0000
  H   H2101     1.0  0.29237  0.53616  0.03718  1.0000
  H   H2102     1.0  0.36581  0.37466  0.01009  1.0000
  C   C1310     1.0  0.37999  0.34804  0.01237  1.0000
  C   C1311     1.0  0.36087  0.62800  0.06041  1.0000
  C   C1312     1.0  0.44806  0.32918  0.03606  1.0000
  H   H2103     1.0  0.47967  0.49150  0.04507  1.0000
  H   H2104     1.0  0.26888  0.53444  0.03810  1.0000
  C   C1313     1.0  0.24525  0.47731  0.06186  1.0000
  C   C1314     1.0  0.39046  0.44177  0.03822  1.0000
  N   N137      1.0  0.39938  0.43285  0.03440  1.0000
  C   C1315     1.0  0.48041  0.38090  0.00497  1.0000
  H   H2105     1.0  0.23861  0.50499  0.06003  1.0000
  H   H2106     1.0  0.34429  0.42683  0.00018  1.0000
  H   H2107     1.0  0.29727  0.51206  0.04757  1.0000
  H   H2108     1.0  0.25182  0.47516  0.06647  1.0000
  H   H2109     1.0  0.29118  0.60870  0.00550  1.0000
  H   H2110     1.0  0.30421  0.58256  0.99552  1.0000
  H   H2111     1.0  0.27502  0.56596  0.04711  1.0000
  N   N138      1.0  0.24335  0.48903  0.05608  1.0000
  H   H2112     1.0  0.28939  0.55513  0.01670  1.0000
  H   H2113     1.0  0.41082  0.44338  0.02705  1.0000
  S   S514      1.0  0.26769  0.56130  0.03077  1.0000
  H   H2114     1.0  0.38577  0.41010  0.99127  1.0000
  H   H2115     1.0  0.28414  0.51145  0.05649  1.0000
  S   S515      1.0  0.24107  0.46388  0.04097  1.0000
  H   H2116     1.0  0.32256  0.51912  0.98818  1.0000
  H   H2117     1.0  0.29881  0.52563  0.02951  1.0000
  Fe  Fe246     1.0  0.45791  0.42084  0.01522  1.0000
  H   H2118     1.0  0.30497  0.58081  0.01868  1.0000
  C   C1316     1.0  0.39844  0.43175  0.02365  1.0000
  H   H2119     1.0  0.41100  0.43636  0.04115  1.0000
  H   H2120     1.0  0.35556  0.36184  0.02475  1.0000
  S   S516      1.0  0.45961  0.35510  0.01465  1.0000
  H   H2121     1.0  0.45670  0.37503  0.02173  1.0000
  H   H2122     1.0  0.26763  0.52472  0.05108  1.0000
  S   S517      1.0  0.36328  0.40868  0.99782  1.0000
  C   C1317     1.0  0.37462  0.61440  0.05165  1.0000
  S   S518      1.0  0.25043  0.52006  0.02820  1.0000
  H   H2123     1.0  0.46751  0.38938  0.01614  1.0000
  H   H2124     1.0  0.35424  0.62487  0.05929  1.0000
  S   S519      1.0  0.46253  0.41329  0.00049  1.0000
  Fe  Fe247     1.0  0.26225  0.55552  0.01870  1.0000
  H   H2125     1.0  0.43863  0.36890  0.99506  1.0000
  H   H2126     1.0  0.39019  0.33059  0.04188  1.0000
  H   H2127     1.0  0.25584  0.48662  0.04161  1.0000
  H   H2128     1.0  0.48420  0.50787  0.03061  1.0000
  H   H2129     1.0  0.37526  0.63101  0.03398  1.0000
  H   H2130     1.0  0.39058  0.42963  0.02431  1.0000
  C   C1318     1.0  0.40995  0.43554  0.03319  1.0000
  S   S520      1.0  0.39039  0.65175  0.03017  1.0000
  C   C1319     1.0  0.29237  0.56404  0.04180  1.0000
  C   C1320     1.0  0.25345  0.49135  0.04818  1.0000
  H   H2131     1.0  0.35631  0.36304  0.00517  1.0000
  H   H2132     1.0  0.27869  0.51929  0.02833  1.0000
  C   C1321     1.0  0.28421  0.59027  0.01683  1.0000
  H   H2133     1.0  0.44629  0.40028  0.98914  1.0000
  C   C1322     1.0  0.47792  0.36343  0.00347  1.0000
  H   H2134     1.0  0.35654  0.44946  0.00042  1.0000
  H   H2135     1.0  0.38235  0.44002  0.03923  1.0000
  H   H2136     1.0  0.29273  0.52750  0.99048  1.0000
  H   H2137     1.0  0.35843  0.42485  0.01029  1.0000
  H   H2138     1.0  0.29118  0.49856  0.99584  1.0000
  Fe  Fe248     1.0  0.32075  0.47570  0.00861  1.0000
  C   C1323     1.0  0.31390  0.45297  0.98778  1.0000
  H   H2139     1.0  0.28510  0.58210  0.02266  1.0000
  S   S521      1.0  0.47515  0.32437  0.01382  1.0000
  H   H2140     1.0  0.40521  0.41544  0.03993  1.0000
  C   C1324     1.0  0.27307  0.52988  0.04498  1.0000
  C   C1325     1.0  0.30605  0.53006  0.00132  1.0000
  H   H2141     1.0  0.45635  0.63433  0.98690  1.0000
  C   C1326     1.0  0.44158  0.39539  0.98719  1.0000
  H   H2142     1.0  0.37798  0.33975  0.01484  1.0000
  H   H2143     1.0  0.46080  0.38281  0.99177  1.0000
  Fe  Fe249     1.0  0.46159  0.33134  0.98896  1.0000
  H   H2144     1.0  0.42270  0.32386  0.04436  1.0000
  H   H2145     1.0  0.45067  0.32561  0.02864  1.0000
  H   H2146     1.0  0.37668  0.63961  0.05302  1.0000
  C   C1327     1.0  0.24007  0.49608  0.06419  1.0000
  C   C1328     1.0  0.48416  0.37148  0.00048  1.0000
  C   C1329     1.0  0.48613  0.49182  0.04894  1.0000
  H   H2147     1.0  0.47567  0.46087  0.98816  1.0000
  C   C1330     1.0  0.45550  0.37878  0.98951  1.0000
  H   H2148     1.0  0.43286  0.33729  0.02321  1.0000
  H   H2149     1.0  0.29693  0.47845  0.99572  1.0000
  H   H2150     1.0  0.30848  0.52119  0.00525  1.0000
  H   H2151     1.0  0.37645  0.60241  0.99009  1.0000
  C   C1331     1.0  0.29391  0.48047  0.98800  1.0000
  H   H2152     1.0  0.43626  0.33004  0.05652  1.0000
  C   C1332     1.0  0.43712  0.37772  0.99064  1.0000
  Fe  Fe250     1.0  0.40110  0.39109  0.92188  1.0000
  S   S522      1.0  0.40579  0.38414  0.93819  1.0000
  S   S523      1.0  0.41302  0.39360  0.90565  1.0000
  Fe  Fe251     1.0  0.37689  0.39573  0.93211  1.0000
  S   S524      1.0  0.37962  0.38912  0.94932  1.0000
  S   S525      1.0  0.35979  0.40126  0.92927  1.0000
  Fe  Fe252     1.0  0.39299  0.39837  0.94336  1.0000
  S   S526      1.0  0.39715  0.40833  0.95253  1.0000
  Fe  Fe253     1.0  0.39211  0.37548  0.94248  1.0000
  S   S527      1.0  0.39370  0.35832  0.95312  1.0000
  S   S528      1.0  0.38933  0.40611  0.92669  1.0000
  S   S529      1.0  0.38833  0.38125  0.92565  1.0000
  C   C1333     1.0  0.38568  0.65431  0.92473  1.0000
  H   H2153     1.0  0.27996  0.56730  0.94688  1.0000
  H   H2154     1.0  0.31841  0.62433  0.95944  1.0000
  C   C1334     1.0  0.46347  0.42969  0.95789  1.0000
  H   H2155     1.0  0.47859  0.47233  0.96392  1.0000
  C   C1335     1.0  0.43188  0.40091  0.89668  1.0000
  C   C1336     1.0  0.43097  0.63830  0.95130  1.0000
  H   H2156     1.0  0.44502  0.33358  0.90486  1.0000
  C   C1337     1.0  0.30635  0.49252  0.97871  1.0000
  Fe  Fe254     1.0  0.37157  0.60974  0.93360  1.0000
  N   N139      1.0  0.43093  0.35388  0.95626  1.0000
  Fe  Fe255     1.0  0.31297  0.55517  0.93298  1.0000
  S   S530      1.0  0.30409  0.54861  0.94994  1.0000
  S   S531      1.0  0.30442  0.55948  0.91907  1.0000
  Fe  Fe256     1.0  0.33314  0.55462  0.94058  1.0000
  S   S532      1.0  0.32590  0.54772  0.95824  1.0000
  S   S533      1.0  0.35039  0.55706  0.93640  1.0000
  Fe  Fe257     1.0  0.31996  0.53681  0.95146  1.0000
  S   S534      1.0  0.32060  0.51874  0.95889  1.0000
  Fe  Fe258     1.0  0.31073  0.56013  0.95494  1.0000
  S   S535      1.0  0.29957  0.57118  0.96590  1.0000
  S   S536      1.0  0.32854  0.54253  0.93403  1.0000
  S   S537      1.0  0.31830  0.56785  0.93777  1.0000
  Fe  Fe259     1.0  0.31937  0.45759  0.92946  1.0000
  S   S538      1.0  0.30874  0.44651  0.94117  1.0000
  S   S539      1.0  0.33663  0.45190  0.92040  1.0000
  Fe  Fe260     1.0  0.30389  0.47845  0.93634  1.0000
  S   S540      1.0  0.29221  0.46889  0.94870  1.0000
  S   S541      1.0  0.29945  0.49699  0.93419  1.0000
  Fe  Fe261     1.0  0.30721  0.45689  0.95304  1.0000
  S   S542      1.0  0.30867  0.44904  0.97054  1.0000
  Fe  Fe262     1.0  0.29474  0.45961  0.93558  1.0000
  S   S543      1.0  0.28097  0.45654  0.93024  1.0000
  S   S544      1.0  0.31867  0.46717  0.94169  1.0000
  S   S545      1.0  0.30559  0.46999  0.92277  1.0000
  Fe  Fe263     1.0  0.24953  0.54655  0.94091  1.0000
  S   S546      1.0  0.26168  0.53195  0.93564  1.0000
  S   S547      1.0  0.25374  0.56310  0.93625  1.0000
  S   S548      1.0  0.24919  0.52517  0.91473  1.0000
  H   H2157     1.0  0.38290  0.32999  0.94461  1.0000
  H   H2158     1.0  0.40076  0.60549  0.96654  1.0000
  H   H2159     1.0  0.45666  0.65382  0.94823  1.0000
  H   H2160     1.0  0.35482  0.34688  0.94522  1.0000
  Fe  Fe264     1.0  0.46437  0.39737  0.92218  1.0000
  S   S549      1.0  0.46593  0.41128  0.92842  1.0000
  S   S550      1.0  0.45551  0.38884  0.93836  1.0000
  H   H2161     1.0  0.25705  0.57894  0.97419  1.0000
  C   C1338     1.0  0.33821  0.62734  0.95907  1.0000
  H   H2162     1.0  0.35282  0.56635  0.96519  1.0000
  C   C1339     1.0  0.44186  0.40274  0.89692  1.0000
  C   C1340     1.0  0.26354  0.57209  0.97128  1.0000
  H   H2163     1.0  0.28372  0.53989  0.96039  1.0000
  Fe  Fe265     1.0  0.46338  0.62914  0.94904  1.0000
  S   S551      1.0  0.46117  0.61372  0.94622  1.0000
  S   S552      1.0  0.45521  0.63466  0.96489  1.0000
  Fe  Fe266     1.0  0.47704  0.63544  0.92609  1.0000
  S   S553      1.0  0.38835  0.61216  0.92400  1.0000
  Fe  Fe267     1.0  0.45831  0.62421  0.92984  1.0000
  S   S554      1.0  0.44369  0.62638  0.92293  1.0000
  C   C1341     1.0  0.33607  0.62224  0.94332  1.0000
  S   S555      1.0  0.45923  0.63987  0.93335  1.0000
  S   S556      1.0  0.37667  0.60230  0.94974  1.0000
  H   H2164     1.0  0.36716  0.41589  0.88445  1.0000
  S   S557      1.0  0.40874  0.59684  0.94527  1.0000
  C   C1342     1.0  0.31536  0.45526  0.97633  1.0000
  H   H2165     1.0  0.42070  0.41121  0.94991  1.0000
  H   H2166     1.0  0.34133  0.44343  0.94486  1.0000
  H   H2167     1.0  0.41864  0.40571  0.93397  1.0000
  Fe  Fe268     1.0  0.24767  0.52868  0.93125  1.0000
  H   H2168     1.0  0.48631  0.42150  0.95713  1.0000
  S   S558      1.0  0.35770  0.60510  0.92999  1.0000
  C   C1343     1.0  0.34533  0.58976  0.93536  1.0000
  C   C1344     1.0  0.35593  0.59152  0.93263  1.0000
  H   H2169     1.0  0.43226  0.37064  0.95370  1.0000
  H   H2170     1.0  0.37275  0.39185  0.89612  1.0000
  C   C1345     1.0  0.43421  0.61795  0.92939  1.0000
  C   C1346     1.0  0.42464  0.62039  0.92555  1.0000
  C   C1347     1.0  0.41682  0.61399  0.93049  1.0000
  C   C1348     1.0  0.41857  0.60494  0.93921  1.0000
  C   C1349     1.0  0.42814  0.60246  0.94310  1.0000
  C   C1350     1.0  0.43593  0.60901  0.93824  1.0000
  H   H2171     1.0  0.42957  0.59544  0.94981  1.0000
  H   H2172     1.0  0.44335  0.60696  0.94117  1.0000
  H   H2173     1.0  0.42494  0.38738  0.92327  1.0000
  C   C1351     1.0  0.42005  0.41984  0.94496  1.0000
  C   C1352     1.0  0.39065  0.40990  0.97404  1.0000
  H   H2174     1.0  0.29571  0.48797  0.96607  1.0000
  H   H2175     1.0  0.35326  0.41554  0.95975  1.0000
  C   C1353     1.0  0.46491  0.63759  0.96990  1.0000
  H   H2176     1.0  0.42333  0.64336  0.92551  1.0000
  Fe  Fe269     1.0  0.47890  0.61134  0.93765  1.0000
  H   H2177     1.0  0.38734  0.64683  0.95985  1.0000
  C   C1354     1.0  0.34589  0.43545  0.96510  1.0000
  H   H2178     1.0  0.36082  0.54685  0.98287  1.0000
  C   C1355     1.0  0.26941  0.49214  0.94397  1.0000
  N   N140      1.0  0.37772  0.40656  0.89548  1.0000
  C   C1356     1.0  0.38285  0.64142  0.96637  1.0000
  H   H2179     1.0  0.36094  0.40830  0.97653  1.0000
  C   C1357     1.0  0.38317  0.40982  0.98416  1.0000
  Fe  Fe270     1.0  0.38304  0.62880  0.92835  1.0000
  H   H2180     1.0  0.33844  0.59661  0.93626  1.0000
  H   H2181     1.0  0.43693  0.35004  0.97103  1.0000
  H   H2182     1.0  0.44661  0.40695  0.88950  1.0000
  S   S559      1.0  0.45508  0.33318  0.97424  1.0000
  H   H2183     1.0  0.33975  0.44162  0.96945  1.0000
  H   H2184     1.0  0.44497  0.36063  0.95332  1.0000
  H   H2185     1.0  0.26007  0.56460  0.97383  1.0000
  H   H2186     1.0  0.37779  0.54688  0.95489  1.0000
  H   H2187     1.0  0.35704  0.32778  0.96530  1.0000
  C   C1358     1.0  0.32216  0.46235  0.96978  1.0000
  C   C1359     1.0  0.43688  0.36285  0.95107  1.0000
  Fe  Fe271     1.0  0.45817  0.40200  0.94476  1.0000
  H   H2188     1.0  0.33230  0.47301  0.96954  1.0000
  H   H2189     1.0  0.32366  0.46396  0.96098  1.0000
  C   C1360     1.0  0.26735  0.46005  0.93755  1.0000
  C   C1361     1.0  0.25878  0.46149  0.93240  1.0000
  C   C1362     1.0  0.24786  0.46433  0.93801  1.0000
  C   C1363     1.0  0.24545  0.46553  0.94890  1.0000
  C   C1364     1.0  0.25403  0.46414  0.95403  1.0000
  C   C1365     1.0  0.26493  0.46150  0.94836  1.0000
  H   H2190     1.0  0.26058  0.46038  0.92404  1.0000
  H   H2191     1.0  0.35898  0.33245  0.94504  1.0000
  H   H2192     1.0  0.25224  0.46496  0.96249  1.0000
  H   H2193     1.0  0.27145  0.46028  0.95246  1.0000
  C   C1366     1.0  0.35237  0.57039  0.93502  1.0000
  C   C1367     1.0  0.36300  0.57215  0.93228  1.0000
  C   C1368     1.0  0.36478  0.58264  0.93128  1.0000
  C   C1369     1.0  0.45001  0.41893  0.96111  1.0000
  H   H2194     1.0  0.27721  0.48754  0.91797  1.0000
  C   C1370     1.0  0.34355  0.57921  0.93673  1.0000
  H   H2195     1.0  0.36988  0.56545  0.93067  1.0000
  H   H2196     1.0  0.37298  0.58398  0.92894  1.0000
  H   H2197     1.0  0.27016  0.57032  0.97579  1.0000
  H   H2198     1.0  0.33535  0.57797  0.93887  1.0000
  C   C1371     1.0  0.30732  0.57796  0.96962  1.0000
  H   H2199     1.0  0.43875  0.63944  0.95220  1.0000
  H   H2200     1.0  0.33210  0.63523  0.95777  1.0000
  H   H2201     1.0  0.43544  0.64396  0.90639  1.0000
  C   C1372     1.0  0.25833  0.49218  0.93184  1.0000
  H   H2202     1.0  0.30728  0.50105  0.97443  1.0000
  H   H2203     1.0  0.35383  0.53624  0.97393  1.0000
  C   C1373     1.0  0.48167  0.63983  0.97796  1.0000
  H   H2204     1.0  0.26915  0.50750  0.91797  1.0000
  C   C1374     1.0  0.47126  0.35292  0.94472  1.0000
  C   C1375     1.0  0.31457  0.51264  0.95224  1.0000
  C   C1376     1.0  0.30563  0.51869  0.94766  1.0000
  C   C1377     1.0  0.30087  0.51371  0.94243  1.0000
  C   C1378     1.0  0.30506  0.50268  0.94164  1.0000
  C   C1379     1.0  0.31384  0.49655  0.94644  1.0000
  C   C1380     1.0  0.31857  0.50152  0.95175  1.0000
  H   H2205     1.0  0.30227  0.52717  0.94829  1.0000
  H   H2206     1.0  0.29387  0.51842  0.93904  1.0000
  H   H2207     1.0  0.31716  0.48806  0.94590  1.0000
  H   H2208     1.0  0.32544  0.49677  0.95534  1.0000
  C   C1381     1.0  0.29037  0.56034  0.92400  1.0000
  C   C1382     1.0  0.28307  0.56950  0.91948  1.0000
  C   C1383     1.0  0.27183  0.57036  0.92336  1.0000
  C   C1384     1.0  0.26784  0.56187  0.93148  1.0000
  C   C1385     1.0  0.27512  0.55262  0.93591  1.0000
  C   C1386     1.0  0.28638  0.55191  0.93226  1.0000
  H   H2209     1.0  0.28611  0.57602  0.91308  1.0000
  H   H2210     1.0  0.26622  0.57752  0.91991  1.0000
  H   H2211     1.0  0.27207  0.54614  0.94235  1.0000
  H   H2212     1.0  0.29193  0.54479  0.93580  1.0000
  H   H2213     1.0  0.43846  0.36452  0.94191  1.0000
  H   H2214     1.0  0.40624  0.59227  0.98342  1.0000
  C   C1387     1.0  0.35154  0.55804  0.96577  1.0000
  H   H2215     1.0  0.42329  0.62718  0.91861  1.0000
  H   H2216     1.0  0.25215  0.58405  0.95588  1.0000
  H   H2217     1.0  0.32820  0.42127  0.96379  1.0000
  C   C1388     1.0  0.43740  0.34376  0.95251  1.0000
  H   H2218     1.0  0.37413  0.63897  0.95578  1.0000
  H   H2219     1.0  0.42901  0.40374  0.88909  1.0000
  S   S560      1.0  0.36254  0.62243  0.96861  1.0000
  C   C1389     1.0  0.35336  0.41535  0.92739  1.0000
  C   C1390     1.0  0.34218  0.41849  0.92760  1.0000
  C   C1391     1.0  0.33689  0.42968  0.92579  1.0000
  C   C1392     1.0  0.34283  0.43780  0.92345  1.0000
  C   C1393     1.0  0.35400  0.43467  0.92329  1.0000
  C   C1394     1.0  0.35921  0.42347  0.92546  1.0000
  H   H2220     1.0  0.33758  0.41225  0.92911  1.0000
  H   H2221     1.0  0.32828  0.43204  0.92587  1.0000
  H   H2222     1.0  0.35861  0.44094  0.92152  1.0000
  H   H2223     1.0  0.36777  0.42118  0.92549  1.0000
  C   C1395     1.0  0.38748  0.40917  0.96486  1.0000
  H   H2224     1.0  0.37591  0.34641  0.95964  1.0000
  H   H2225     1.0  0.24132  0.46535  0.93399  1.0000
  H   H2226     1.0  0.41014  0.62690  0.96816  1.0000
  H   H2227     1.0  0.43380  0.61639  0.95916  1.0000
  H   H2228     1.0  0.47124  0.32569  0.95036  1.0000
  C   C1396     1.0  0.36979  0.62977  0.97229  1.0000
  H   H2229     1.0  0.44077  0.41850  0.93387  1.0000
  H   H2230     1.0  0.33129  0.43562  0.94706  1.0000
  H   H2231     1.0  0.37423  0.40842  0.95853  1.0000
  C   C1397     1.0  0.39914  0.34694  0.94687  1.0000
  C   C1398     1.0  0.40089  0.33637  0.95362  1.0000
  S   S561      1.0  0.47590  0.62069  0.92088  1.0000
  C   C1399     1.0  0.27245  0.58464  0.95619  1.0000
  C   C1400     1.0  0.40463  0.33878  0.93083  1.0000
  C   C1401     1.0  0.40120  0.34816  0.93543  1.0000
  C   C1402     1.0  0.44167  0.33136  0.91389  1.0000
  C   C1403     1.0  0.27502  0.53497  0.97711  1.0000
  H   H2232     1.0  0.40597  0.33973  0.92200  1.0000
  H   H2233     1.0  0.39992  0.35630  0.93015  1.0000
  C   C1404     1.0  0.42562  0.39554  0.90622  1.0000
  C   C1405     1.0  0.42951  0.39183  0.91597  1.0000
  C   C1406     1.0  0.26930  0.50573  0.92687  1.0000
  S   S562      1.0  0.48132  0.62586  0.94210  1.0000
  C   C1407     1.0  0.46543  0.35670  0.93632  1.0000
  H   H2234     1.0  0.46184  0.42200  0.94591  1.0000
  H   H2235     1.0  0.48530  0.47431  0.97340  1.0000
  H   H2236     1.0  0.45788  0.37952  0.98042  1.0000
  N   N141      1.0  0.42424  0.42011  0.93304  1.0000
  C   C1408     1.0  0.29090  0.49394  0.97133  1.0000
  H   H2237     1.0  0.26226  0.51152  0.93071  1.0000
  H   H2238     1.0  0.27685  0.50766  0.92748  1.0000
  H   H2239     1.0  0.44256  0.39052  0.92366  1.0000
  H   H2240     1.0  0.36415  0.33364  0.97144  1.0000
  H   H2241     1.0  0.43892  0.37799  0.98165  1.0000
  S   S563      1.0  0.45820  0.40182  0.90655  1.0000
  S   S564      1.0  0.44473  0.41022  0.95679  1.0000
  H   H2242     1.0  0.25127  0.49711  0.93672  1.0000
  C   C1409     1.0  0.27788  0.48679  0.92655  1.0000
  C   C1410     1.0  0.46160  0.34923  0.93306  1.0000
  H   H2243     1.0  0.48120  0.45336  0.96104  1.0000
  H   H2244     1.0  0.35289  0.34217  0.96557  1.0000
  H   H2245     1.0  0.34255  0.60168  0.95453  1.0000
  N   N142      1.0  0.26774  0.57481  0.95922  1.0000
  C   C1411     1.0  0.37149  0.34771  0.95300  1.0000
  C   C1412     1.0  0.30337  0.58903  0.97030  1.0000
  H   H2246     1.0  0.42532  0.34463  0.97254  1.0000
  H   H2247     1.0  0.40953  0.61593  0.92735  1.0000
  C   C1413     1.0  0.46977  0.33424  0.94624  1.0000
  C   C1414     1.0  0.46378  0.33796  0.93804  1.0000
  H   H2248     1.0  0.30614  0.60277  0.97461  1.0000
  C   C1415     1.0  0.31898  0.58834  0.97719  1.0000
  H   H2249     1.0  0.45697  0.35218  0.92668  1.0000
  H   H2250     1.0  0.39056  0.61266  0.97623  1.0000
  H   H2251     1.0  0.36688  0.55218  0.94786  1.0000
  C   C1416     1.0  0.33253  0.42482  0.96777  1.0000
  H   H2252     1.0  0.46382  0.36536  0.93239  1.0000
  N   N143      1.0  0.42510  0.63251  0.96185  1.0000
  H   H2253     1.0  0.34547  0.55597  0.97355  1.0000
  H   H2254     1.0  0.25794  0.48338  0.93526  1.0000
  C   C1417     1.0  0.43079  0.65252  0.90380  1.0000
  Fe  Fe272     1.0  0.39287  0.60631  0.94060  1.0000
  H   H2255     1.0  0.29807  0.52233  0.91927  1.0000
  C   C1418     1.0  0.31730  0.57223  0.97232  1.0000
  H   H2256     1.0  0.43905  0.34499  0.94339  1.0000
  C   C1419     1.0  0.39419  0.58674  0.97273  1.0000
  H   H2257     1.0  0.36465  0.35500  0.95381  1.0000
  H   H2258     1.0  0.41849  0.63481  0.97847  1.0000
  C   C1420     1.0  0.43956  0.39358  0.91618  1.0000
  H   H2259     1.0  0.27584  0.58678  0.94715  1.0000
  H   H2260     1.0  0.41761  0.64731  0.96805  1.0000
  H   H2261     1.0  0.43297  0.63358  0.94472  1.0000
  S   S565      1.0  0.24234  0.51798  0.94787  1.0000
  H   H2262     1.0  0.34780  0.55872  0.95881  1.0000
  H   H2263     1.0  0.33457  0.61578  0.94014  1.0000
  N   N144      1.0  0.26872  0.49421  0.93232  1.0000
  H   H2264     1.0  0.27869  0.52646  0.95344  1.0000
  C   C1421     1.0  0.27624  0.56541  0.95585  1.0000
  H   H2265     1.0  0.28581  0.48857  0.92613  1.0000
  H   H2266     1.0  0.37418  0.54258  0.97500  1.0000
  N   N145      1.0  0.36184  0.54962  0.96546  1.0000
  H   H2267     1.0  0.47501  0.64197  0.95383  1.0000
  C   C1422     1.0  0.30424  0.54355  0.98439  1.0000
  H   H2268     1.0  0.47473  0.40843  0.96945  1.0000
  H   H2269     1.0  0.29866  0.47413  0.98316  1.0000
  H   H2270     1.0  0.34416  0.62384  0.93852  1.0000
  H   H2271     1.0  0.41573  0.35032  0.95686  1.0000
  C   C1423     1.0  0.40434  0.32703  0.94903  1.0000
  C   C1424     1.0  0.37096  0.39830  0.90092  1.0000
  C   C1425     1.0  0.44573  0.39910  0.90666  1.0000
  H   H2272     1.0  0.42112  0.41432  0.92039  1.0000
  C   C1426     1.0  0.31951  0.52796  0.98456  1.0000
  H   H2273     1.0  0.39947  0.33536  0.96247  1.0000
  C   C1427     1.0  0.36969  0.55261  0.95504  1.0000
  H   H2274     1.0  0.26881  0.48355  0.94838  1.0000
  H   H2275     1.0  0.38154  0.32661  0.95931  1.0000
  H   H2276     1.0  0.27723  0.49343  0.94463  1.0000
  H   H2277     1.0  0.27924  0.58318  0.96037  1.0000
  H   H2278     1.0  0.47751  0.33871  0.95639  1.0000
  H   H2279     1.0  0.40295  0.58572  0.96853  1.0000
  S   S566      1.0  0.45825  0.32872  0.93466  1.0000
  H   H2280     1.0  0.36598  0.41942  0.90267  1.0000
  H   H2281     1.0  0.42433  0.65193  0.90008  1.0000
  C   C1428     1.0  0.37471  0.41513  0.90196  1.0000
  C   C1429     1.0  0.42282  0.63898  0.97035  1.0000
  C   C1430     1.0  0.41805  0.41442  0.92931  1.0000
  H   H2282     1.0  0.36831  0.55700  0.97448  1.0000
  Fe  Fe273     1.0  0.37198  0.61961  0.95194  1.0000
  C   C1431     1.0  0.37541  0.63698  0.96404  1.0000
  H   H2283     1.0  0.25720  0.49431  0.92322  1.0000
  H   H2284     1.0  0.37594  0.41146  0.91049  1.0000
  H   H2285     1.0  0.39897  0.41020  0.97342  1.0000
  C   C1432     1.0  0.45874  0.42336  0.95417  1.0000
  H   H2286     1.0  0.37970  0.42148  0.89823  1.0000
  H   H2287     1.0  0.48300  0.44330  0.93443  1.0000
  H   H2288     1.0  0.42469  0.42385  0.94811  1.0000
  H   H2289     1.0  0.37805  0.40547  0.87910  1.0000
  H   H2290     1.0  0.37242  0.39405  0.90931  1.0000
  H   H2291     1.0  0.39196  0.39459  0.89001  1.0000
  S   S567      1.0  0.38855  0.62302  0.94424  1.0000
  C   C1433     1.0  0.27611  0.52662  0.96211  1.0000
  H   H2292     1.0  0.39472  0.40708  0.89099  1.0000
  H   H2293     1.0  0.26277  0.49781  0.94850  1.0000
  H   H2294     1.0  0.36211  0.40220  0.90201  1.0000
  C   C1434     1.0  0.27889  0.53427  0.96604  1.0000
  C   C1435     1.0  0.38933  0.40111  0.89486  1.0000
  C   C1436     1.0  0.37585  0.41170  0.88424  1.0000
  H   H2295     1.0  0.39097  0.39712  0.90321  1.0000
  H   H2296     1.0  0.38082  0.41800  0.87994  1.0000
  C   C1437     1.0  0.33541  0.43908  0.95133  1.0000
  H   H2297     1.0  0.43888  0.41794  0.97695  1.0000
  C   C1438     1.0  0.32486  0.61686  0.96129  1.0000
  H   H2298     1.0  0.33053  0.57277  0.97877  1.0000
  Fe  Fe274     1.0  0.25518  0.52278  0.95261  1.0000
  H   H2299     1.0  0.47011  0.43325  0.95244  1.0000
  S   S568      1.0  0.47592  0.36195  0.94937  1.0000
  C   C1439     1.0  0.26981  0.51936  0.96931  1.0000
  H   H2300     1.0  0.34386  0.60534  0.96646  1.0000
  H   H2301     1.0  0.41131  0.42406  0.94678  1.0000
  H   H2302     1.0  0.40924  0.41847  0.93062  1.0000
  S   S569      1.0  0.26520  0.51086  0.96406  1.0000
  H   H2303     1.0  0.24008  0.49679  0.97957  1.0000
  H   H2304     1.0  0.32035  0.56368  0.97187  1.0000
  H   H2305     1.0  0.43318  0.33680  0.95617  1.0000
  N   N146      1.0  0.36764  0.33780  0.95371  1.0000
  S   S570      1.0  0.38813  0.64414  0.91722  1.0000
  H   H2306     1.0  0.37722  0.34990  0.94498  1.0000
  C   C1440     1.0  0.34398  0.60835  0.95747  1.0000
  H   H2307     1.0  0.32623  0.43067  0.97239  1.0000
  C   C1441     1.0  0.42033  0.35699  0.95306  1.0000
  H   H2308     1.0  0.32306  0.60994  0.95907  1.0000
  H   H2309     1.0  0.41620  0.62651  0.95391  1.0000
  H   H2310     1.0  0.27283  0.55799  0.95759  1.0000
  H   H2311     1.0  0.35604  0.53912  0.95919  1.0000
  C   C1442     1.0  0.48120  0.40502  0.97429  1.0000
  N   N147      1.0  0.29485  0.49169  0.98156  1.0000
  S   S571      1.0  0.32488  0.59384  0.98437  1.0000
  H   H2312     1.0  0.36748  0.34171  0.93648  1.0000
  C   C1443     1.0  0.47338  0.34169  0.94965  1.0000
  H   H2313     1.0  0.43995  0.65025  0.92060  1.0000
  H   H2314     1.0  0.44371  0.39615  0.97811  1.0000
  C   C1444     1.0  0.30932  0.59430  0.97387  1.0000
  N   N148      1.0  0.33579  0.61870  0.95528  1.0000
  C   C1445     1.0  0.41477  0.63126  0.96035  1.0000
  S   S572      1.0  0.36596  0.62703  0.93643  1.0000
  N   N149      1.0  0.34074  0.43041  0.95952  1.0000
  Fe  Fe275     1.0  0.47210  0.37985  0.94101  1.0000
  H   H2315     1.0  0.35233  0.60950  0.95316  1.0000
  H   H2316     1.0  0.37383  0.59897  0.97872  1.0000
  C   C1446     1.0  0.34910  0.42228  0.95386  1.0000
  H   H2317     1.0  0.28223  0.49341  0.97318  1.0000
  H   H2318     1.0  0.42376  0.35911  0.97159  1.0000
  C   C1447     1.0  0.37672  0.40879  0.96568  1.0000
  Fe  Fe276     1.0  0.48167  0.40039  0.93222  1.0000
  C   C1448     1.0  0.32717  0.46741  0.97467  1.0000
  H   H2319     1.0  0.42133  0.35854  0.94397  1.0000
  C   C1449     1.0  0.37823  0.65383  0.93486  1.0000
  C   C1450     1.0  0.48271  0.64143  0.96662  1.0000
  H   H2320     1.0  0.44665  0.33389  0.91805  1.0000
  H   H2321     1.0  0.35209  0.43978  0.95908  1.0000
  H   H2322     1.0  0.44542  0.34112  0.95490  1.0000
  C   C1451     1.0  0.37704  0.32838  0.95266  1.0000
  C   C1452     1.0  0.42309  0.43167  0.92680  1.0000
  C   C1453     1.0  0.43584  0.41449  0.93109  1.0000
  H   H2323     1.0  0.42626  0.43213  0.91778  1.0000
  H   H2324     1.0  0.42769  0.43616  0.92944  1.0000
  H   H2325     1.0  0.41441  0.43615  0.92808  1.0000
  H   H2326     1.0  0.43692  0.40578  0.93572  1.0000
  H   H2327     1.0  0.43937  0.41448  0.92219  1.0000
  N   N150      1.0  0.31169  0.52955  0.90994  1.0000
  C   C1454     1.0  0.32188  0.52683  0.90176  1.0000
  C   C1455     1.0  0.30587  0.52049  0.91320  1.0000
  C   C1456     1.0  0.30472  0.53985  0.90506  1.0000
  C   C1457     1.0  0.31433  0.53103  0.91975  1.0000
  H   H2328     1.0  0.32648  0.53351  0.89917  1.0000
  H   H2329     1.0  0.32022  0.52567  0.89423  1.0000
  H   H2330     1.0  0.32731  0.51909  0.90523  1.0000
  H   H2331     1.0  0.31082  0.51262  0.91712  1.0000
  H   H2332     1.0  0.27815  0.47807  0.93089  1.0000
  H   H2333     1.0  0.30389  0.51899  0.90600  1.0000
  H   H2334     1.0  0.29707  0.54228  0.91112  1.0000
  H   H2335     1.0  0.30240  0.53903  0.89773  1.0000
  H   H2336     1.0  0.30890  0.54686  0.90241  1.0000
  H   H2337     1.0  0.31933  0.52334  0.92389  1.0000
  H   H2338     1.0  0.30684  0.53344  0.92594  1.0000
  H   H2339     1.0  0.31891  0.53768  0.91753  1.0000
  H   H2340     1.0  0.42605  0.64663  0.94842  1.0000
  H   H2341     1.0  0.32910  0.44539  0.95529  1.0000
  H   H2342     1.0  0.36724  0.53224  0.96586  1.0000
  H   H2343     1.0  0.39291  0.57864  0.97810  1.0000
  C   C1458     1.0  0.44594  0.32462  0.97737  1.0000
  H   H2344     1.0  0.29569  0.59348  0.96812  1.0000
  H   H2345     1.0  0.40938  0.63943  0.95785  1.0000
  C   C1459     1.0  0.44588  0.42100  0.97171  1.0000
  C   C1460     1.0  0.47426  0.64049  0.96260  1.0000
  H   H2346     1.0  0.38674  0.60884  0.96581  1.0000
  C   C1461     1.0  0.36009  0.33525  0.96447  1.0000
  H   H2347     1.0  0.25509  0.56972  0.95561  1.0000
  C   C1462     1.0  0.36651  0.54899  0.97484  1.0000
  C   C1463     1.0  0.35967  0.53881  0.96615  1.0000
  C   C1464     1.0  0.45989  0.43102  0.96876  1.0000
  C   C1465     1.0  0.40594  0.32818  0.93766  1.0000
  H   H2348     1.0  0.32422  0.61471  0.97036  1.0000
  H   H2349     1.0  0.32991  0.62994  0.94135  1.0000
  S   S573      1.0  0.48098  0.38725  0.92426  1.0000
  H   H2350     1.0  0.37351  0.64756  0.93773  1.0000
  H   H2351     1.0  0.43325  0.33641  0.91569  1.0000
  C   C1466     1.0  0.42912  0.35185  0.96839  1.0000
  H   H2352     1.0  0.43046  0.64018  0.97158  1.0000
  H   H2353     1.0  0.32109  0.52878  0.97551  1.0000
  C   C1467     1.0  0.36196  0.33982  0.94471  1.0000
  H   H2354     1.0  0.44810  0.42801  0.98402  1.0000
  H   H2355     1.0  0.34546  0.41840  0.94951  1.0000
  C   C1468     1.0  0.39230  0.60608  0.97161  1.0000
  S   S574      1.0  0.47391  0.39217  0.94920  1.0000
  H   H2356     1.0  0.26627  0.59192  0.95856  1.0000
  C   C1469     1.0  0.45104  0.42676  0.97567  1.0000
  H   H2357     1.0  0.34634  0.62906  0.95457  1.0000
  C   C1470     1.0  0.32306  0.57738  0.97622  1.0000
  S   S575      1.0  0.39435  0.64379  0.97974  1.0000
  H   H2358     1.0  0.41512  0.36456  0.95580  1.0000
  H   H2359     1.0  0.33630  0.41803  0.97393  1.0000
  H   H2360     1.0  0.47914  0.40969  0.98087  1.0000
  H   H2361     1.0  0.37079  0.56114  0.95369  1.0000
  C   C1471     1.0  0.43187  0.62150  0.96539  1.0000
  H   H2362     1.0  0.28289  0.56314  0.96039  1.0000
  H   H2363     1.0  0.35546  0.42620  0.94759  1.0000
  H   H2364     1.0  0.46956  0.45861  0.97830  1.0000
  H   H2365     1.0  0.30476  0.54504  0.97538  1.0000
  C   C1472     1.0  0.47693  0.45603  0.98184  1.0000
  C   C1473     1.0  0.25876  0.57703  0.95355  1.0000
  H   H2366     1.0  0.33840  0.62478  0.96800  1.0000
  H   H2367     1.0  0.29147  0.50236  0.96627  1.0000
  S   S576      1.0  0.27724  0.54562  0.98157  1.0000
  S   S577      1.0  0.46703  0.43737  0.97381  1.0000
  H   H2368     1.0  0.26166  0.57902  0.94441  1.0000
  S   S578      1.0  0.24416  0.53771  0.95831  1.0000
  C   C1474     1.0  0.41876  0.65155  0.92180  1.0000
  H   H2369     1.0  0.38953  0.58879  0.96618  1.0000
  H   H2370     1.0  0.35004  0.42912  0.97131  1.0000
  C   C1475     1.0  0.46364  0.63647  0.98124  1.0000
  C   C1476     1.0  0.38463  0.63867  0.97704  1.0000
  H   H2371     1.0  0.41261  0.64996  0.91834  1.0000
  C   C1477     1.0  0.36919  0.40886  0.97579  1.0000
  H   H2372     1.0  0.48081  0.39632  0.97845  1.0000
  C   C1478     1.0  0.26646  0.51960  0.98052  1.0000
  H   H2373     1.0  0.31145  0.48698  0.97314  1.0000
  N   N151      1.0  0.48686  0.45740  0.97321  1.0000
  H   H2374     1.0  0.48146  0.42523  0.93266  1.0000
  H   H2375     1.0  0.43973  0.62213  0.96660  1.0000
  S   S579      1.0  0.48577  0.64863  0.91509  1.0000
  C   C1479     1.0  0.23854  0.51923  0.91528  1.0000
  H   H2376     1.0  0.30227  0.52674  0.97758  1.0000
  C   C1480     1.0  0.48589  0.46913  0.96759  1.0000
  C   C1481     1.0  0.32520  0.46559  0.98614  1.0000
  C   C1482     1.0  0.37108  0.62748  0.98312  1.0000
  H   H2377     1.0  0.23809  0.52557  0.89809  1.0000
  C   C1483     1.0  0.26908  0.52740  0.98442  1.0000
  H   H2378     1.0  0.42771  0.61695  0.97338  1.0000
  H   H2379     1.0  0.28843  0.50840  0.98347  1.0000
  C   C1484     1.0  0.37247  0.40924  0.98505  1.0000
  N   N152      1.0  0.39079  0.59543  0.97913  1.0000
  C   C1485     1.0  0.47204  0.63762  0.98528  1.0000
  C   C1486     1.0  0.37919  0.59631  0.98475  1.0000
  H   H2380     1.0  0.30984  0.49018  0.98617  1.0000
  C   C1487     1.0  0.37862  0.63184  0.98547  1.0000
  H   H2381     1.0  0.30925  0.54861  0.98557  1.0000
  H   H2382     1.0  0.32453  0.53284  0.98606  1.0000
  H   H2383     1.0  0.26152  0.51403  0.98612  1.0000
  H   H2384     1.0  0.47747  0.44728  0.98628  1.0000
  H   H2385     1.0  0.41426  0.65591  0.92859  1.0000
  S   S580      1.0  0.44470  0.96145  0.11884  1.0000
  Fe  Fe277     1.0  0.39315  0.95943  0.09684  1.0000
  S   S581      1.0  0.40661  0.96843  0.09211  1.0000
  S   S582      1.0  0.38286  0.95948  0.11401  1.0000
  Fe  Fe278     1.0  0.39657  0.95609  0.07329  1.0000
  S   S583      1.0  0.41021  0.96501  0.06718  1.0000
  S   S584      1.0  0.39270  0.95282  0.05855  1.0000
  Fe  Fe279     1.0  0.41551  0.95516  0.08270  1.0000
  S   S585      1.0  0.43305  0.94674  0.08199  1.0000
  Fe  Fe280     1.0  0.39983  0.97722  0.07717  1.0000
  H   H2386     1.0  0.37304  0.96788  0.06543  1.0000
  S   S586      1.0  0.40254  0.94540  0.08839  1.0000
  S   S587      1.0  0.38570  0.96909  0.08238  1.0000
  H   H2387     1.0  0.46005  0.69778  0.02661  1.0000
  S   S588      1.0  0.39363  0.96687  0.17974  1.0000
  C   C1488     1.0  0.43488  0.96412  0.28266  1.0000
  Fe  Fe281     1.0  0.41203  0.98638  0.16010  1.0000
  S   S589      1.0  0.41840  0.96836  0.16558  1.0000
  H   H2388     1.0  0.45817  0.95366  0.09950  1.0000
  Fe  Fe282     1.0  0.40306  0.96671  0.16228  1.0000
  S   S590      1.0  0.40716  0.95399  0.15200  1.0000
  Fe  Fe283     1.0  0.40853  0.97006  0.18245  1.0000
  S   S591      1.0  0.41444  0.96293  0.19831  1.0000
  H   H2389     1.0  0.46418  0.95637  0.06426  1.0000
  H   H2390     1.0  0.47622  0.96760  0.14517  1.0000
  Fe  Fe284     1.0  0.38334  0.97441  0.25312  1.0000
  H   H2391     1.0  0.47060  0.80642  0.99797  1.0000
  S   S592      1.0  0.37701  0.97110  0.24017  1.0000
  S   S593      1.0  0.46916  0.97148  0.12137  1.0000
  C   C1489     1.0  0.42239  0.95986  0.27465  1.0000
  H   H2392     1.0  0.38671  0.66237  0.00818  1.0000
  C   C1490     1.0  0.35212  0.88075  0.03048  1.0000
  Fe  Fe285     1.0  0.41153  0.81089  0.01238  1.0000
  S   S594      1.0  0.39451  0.81123  0.02225  1.0000
  S   S595      1.0  0.42511  0.80656  0.02121  1.0000
  H   H2393     1.0  0.46425  0.69357  0.00761  1.0000
  H   H2394     1.0  0.48063  0.71222  0.01422  1.0000
  Fe  Fe286     1.0  0.38945  0.98531  0.17386  1.0000
  Fe  Fe287     1.0  0.38974  0.82599  0.00920  1.0000
  S   S596      1.0  0.37960  0.84280  0.01066  1.0000
  Fe  Fe288     1.0  0.39380  0.80117  0.01093  1.0000
  S   S597      1.0  0.38768  0.78547  0.01877  1.0000
  S   S598      1.0  0.40689  0.82665  0.00040  1.0000
  S   S599      1.0  0.41118  0.80005  0.00179  1.0000
  Fe  Fe289     1.0  0.47236  0.83110  0.00340  1.0000
  H   H2395     1.0  0.40702  0.98875  0.10732  1.0000
  S   S600      1.0  0.46126  0.83239  0.99253  1.0000
  H   H2396     1.0  0.35267  0.86820  0.01696  1.0000
  H   H2397     1.0  0.44886  0.95482  0.22083  1.0000
  S   S601      1.0  0.47565  0.97808  0.28711  1.0000
  H   H2398     1.0  0.45459  0.90555  0.07935  1.0000
  H   H2399     1.0  0.44681  0.96416  0.13886  1.0000
  H   H2400     1.0  0.44297  0.96480  0.28230  1.0000
  C   C1491     1.0  0.37037  0.88135  0.02006  1.0000
  S   S602      1.0  0.45907  0.73256  0.01784  1.0000
  H   H2401     1.0  0.45540  0.94619  0.16424  1.0000
  S   S603      1.0  0.46156  0.75816  0.01443  1.0000
  H   H2402     1.0  0.45757  0.93386  0.14662  1.0000
  Fe  Fe290     1.0  0.45192  0.74644  0.02657  1.0000
  S   S604      1.0  0.43388  0.75179  0.03066  1.0000
  H   H2403     1.0  0.47143  0.92811  0.00034  1.0000
  H   H2404     1.0  0.45665  0.94556  0.13529  1.0000
  C   C1492     1.0  0.45694  0.68996  0.01060  1.0000
  H   H2405     1.0  0.40149  0.97928  0.11923  1.0000
  Fe  Fe291     1.0  0.40598  0.73074  0.99997  1.0000
  S   S605      1.0  0.42105  0.72175  0.00616  1.0000
  Fe  Fe292     1.0  0.47738  0.98257  0.19378  1.0000
  Fe  Fe293     1.0  0.39713  0.70997  0.00608  1.0000
  S   S606      1.0  0.41136  0.69941  0.01308  1.0000
  S   S607      1.0  0.38519  0.70154  0.00405  1.0000
  Fe  Fe294     1.0  0.40976  0.71359  0.02048  1.0000
  S   S608      1.0  0.41442  0.71076  0.03653  1.0000
  Fe  Fe295     1.0  0.42134  0.70841  0.99823  1.0000
  C   C1493     1.0  0.46925  0.72692  0.99028  1.0000
  S   S609      1.0  0.39443  0.72357  0.01496  1.0000
  C   C1494     1.0  0.48587  0.93492  0.06110  1.0000
  C   C1495     1.0  0.44174  0.95628  0.05334  1.0000
  H   H2406     1.0  0.40801  0.97492  0.13630  1.0000
  H   H2407     1.0  0.41812  0.89549  0.04534  1.0000
  Fe  Fe296     1.0  0.46906  0.90641  0.04050  1.0000
  Fe  Fe297     1.0  0.45664  0.92720  0.02764  1.0000
  S   S610      1.0  0.44006  0.93539  0.02450  1.0000
  C   C1496     1.0  0.36594  0.67899  0.98722  1.0000
  Fe  Fe298     1.0  0.39808  0.90265  0.03170  1.0000
  S   S611      1.0  0.41426  0.89162  0.02651  1.0000
  S   S612      1.0  0.39575  0.90653  0.04844  1.0000
  Fe  Fe299     1.0  0.39034  0.90119  0.01184  1.0000
  S   S613      1.0  0.40604  0.89036  0.00529  1.0000
  C   C1497     1.0  0.47896  0.88312  0.03076  1.0000
  Fe  Fe300     1.0  0.40493  0.88148  0.02295  1.0000
  S   S614      1.0  0.40803  0.86307  0.02857  1.0000
  Fe  Fe301     1.0  0.41361  0.90169  0.00950  1.0000
  S   S615      1.0  0.42907  0.90645  0.99896  1.0000
  S   S616      1.0  0.38873  0.89157  0.02940  1.0000
  S   S617      1.0  0.39790  0.91344  0.01473  1.0000
  C   C1498     1.0  0.43692  0.92850  0.01634  1.0000
  C   C1499     1.0  0.44518  0.92294  0.00906  1.0000
  C   C1500     1.0  0.44274  0.91656  0.00331  1.0000
  C   C1501     1.0  0.43203  0.91550  0.00505  1.0000
  C   C1502     1.0  0.42376  0.92128  0.01217  1.0000
  C   C1503     1.0  0.42616  0.92792  0.01766  1.0000
  H   H2408     1.0  0.45345  0.92364  0.00781  1.0000
  H   H2409     1.0  0.44918  0.91234  0.99768  1.0000
  H   H2410     1.0  0.41549  0.92074  0.01344  1.0000
  H   H2411     1.0  0.41970  0.93231  0.02319  1.0000
  C   C1504     1.0  0.38581  0.96510  0.30472  1.0000
  H   H2412     1.0  0.41833  0.91521  0.03945  1.0000
  H   H2413     1.0  0.37608  0.88164  0.01185  1.0000
  H   H2414     1.0  0.35990  0.97531  0.06298  1.0000
  C   C1505     1.0  0.45728  0.89023  0.99156  1.0000
  H   H2415     1.0  0.47688  0.72464  0.05321  1.0000
  S   S618      1.0  0.47150  0.96108  0.31914  1.0000
  H   H2416     1.0  0.37188  0.85319  0.98851  1.0000
  C   C1506     1.0  0.46721  0.87138  0.99609  1.0000
  S   S619      1.0  0.40542  0.74840  0.99088  1.0000
  H   H2417     1.0  0.42549  0.97190  0.04574  1.0000
  C   C1507     1.0  0.41553  0.66872  0.00396  1.0000
  H   H2418     1.0  0.42427  0.94299  0.23464  1.0000
  S   S620      1.0  0.46647  0.91132  0.02332  1.0000
  H   H2419     1.0  0.47723  0.68808  0.98757  1.0000
  H   H2420     1.0  0.44083  0.94931  0.16812  1.0000
  H   H2421     1.0  0.46296  0.80268  0.99057  1.0000
  H   H2422     1.0  0.38054  0.97065  0.04530  1.0000
  H   H2423     1.0  0.34704  0.88893  0.01066  1.0000
  H   H2424     1.0  0.43925  0.84610  0.04073  1.0000
  C   C1508     1.0  0.45698  0.97070  0.25601  1.0000
  H   H2425     1.0  0.46660  0.96964  0.16433  1.0000
  C   C1509     1.0  0.42819  0.74045  0.03285  1.0000
  C   C1510     1.0  0.43312  0.73001  0.03815  1.0000
  C   C1511     1.0  0.42856  0.72094  0.03978  1.0000
  C   C1512     1.0  0.41934  0.72225  0.03572  1.0000
  C   C1513     1.0  0.41451  0.73267  0.03030  1.0000
  C   C1514     1.0  0.41880  0.74181  0.02905  1.0000
  H   H2426     1.0  0.44036  0.72895  0.04112  1.0000
  H   H2427     1.0  0.43230  0.71288  0.04397  1.0000
  H   H2428     1.0  0.40739  0.73369  0.02713  1.0000
  H   H2429     1.0  0.41496  0.74986  0.02492  1.0000
  H   H2430     1.0  0.40588  0.96149  0.28395  1.0000
  H   H2431     1.0  0.43747  0.81822  0.04023  1.0000
  S   S621      1.0  0.43705  0.69820  0.99060  1.0000
  C   C1515     1.0  0.45047  0.91962  0.09261  1.0000
  H   H2432     1.0  0.45213  0.91333  0.10015  1.0000
  C   C1516     1.0  0.38719  0.66856  0.01207  1.0000
  C   C1517     1.0  0.46825  0.96930  0.25259  1.0000
  H   H2433     1.0  0.36068  0.88889  0.00273  1.0000
  C   C1518     1.0  0.44787  0.95465  0.03437  1.0000
  C   C1519     1.0  0.40166  0.98767  0.31989  1.0000
  H   H2434     1.0  0.46910  0.88529  0.00705  1.0000
  N   N153      1.0  0.37292  0.98363  0.05412  1.0000
  S   S622      1.0  0.41928  0.95830  0.26301  1.0000
  C   C1520     1.0  0.38961  0.67362  0.02774  1.0000
  H   H2435     1.0  0.41083  0.66334  0.00280  1.0000
  H   H2436     1.0  0.43526  0.69239  0.01459  1.0000
  H   H2437     1.0  0.38529  0.86403  0.00386  1.0000
  S   S623      1.0  0.39611  0.98252  0.27238  1.0000
  H   H2438     1.0  0.37088  0.75546  0.98986  1.0000
  C   C1521     1.0  0.38742  0.84852  0.01560  1.0000
  C   C1522     1.0  0.38883  0.85927  0.01082  1.0000
  C   C1523     1.0  0.39514  0.86377  0.01480  1.0000
  C   C1524     1.0  0.40011  0.85752  0.02351  1.0000
  C   C1525     1.0  0.39883  0.84669  0.02816  1.0000
  C   C1526     1.0  0.39255  0.84218  0.02417  1.0000
  C   C1527     1.0  0.48092  0.70366  0.01829  1.0000
  H   H2439     1.0  0.39623  0.87205  0.01105  1.0000
  H   H2440     1.0  0.40259  0.84180  0.03492  1.0000
  H   H2441     1.0  0.39156  0.83383  0.02783  1.0000
  C   C1528     1.0  0.39291  0.77505  0.01115  1.0000
  C   C1529     1.0  0.39170  0.76423  0.01617  1.0000
  C   C1530     1.0  0.39566  0.75593  0.01008  1.0000
  C   C1531     1.0  0.40064  0.75848  0.99889  1.0000
  C   C1532     1.0  0.40189  0.76927  0.99390  1.0000
  C   C1533     1.0  0.39818  0.77747  0.00007  1.0000
  H   H2442     1.0  0.38765  0.76228  0.02477  1.0000
  H   H2443     1.0  0.39469  0.74761  0.01401  1.0000
  C   C1534     1.0  0.47914  0.86649  0.02533  1.0000
  H   H2444     1.0  0.39915  0.78575  0.99618  1.0000
  C   C1535     1.0  0.42626  0.96742  0.29110  1.0000
  C   C1536     1.0  0.35531  0.88926  0.01103  1.0000
  H   H2445     1.0  0.40963  0.67513  0.00813  1.0000
  C   C1537     1.0  0.42972  0.66974  0.01193  1.0000
  S   S624      1.0  0.48071  0.81417  0.01051  1.0000
  H   H2446     1.0  0.44765  0.82541  0.03148  1.0000
  S   S625      1.0  0.44691  0.97783  0.22746  1.0000
  C   C1538     1.0  0.47135  0.88042  0.04049  1.0000
  Fe  Fe302     1.0  0.44581  0.97501  0.29484  1.0000
  H   H2447     1.0  0.44328  0.70902  0.00585  1.0000
  C   C1539     1.0  0.43590  0.81241  0.01267  1.0000
  C   C1540     1.0  0.43564  0.81782  0.00172  1.0000
  C   C1541     1.0  0.44357  0.82379  0.99545  1.0000
  C   C1542     1.0  0.45176  0.82434  0.00010  1.0000
  C   C1543     1.0  0.45229  0.81847  0.01088  1.0000
  C   C1544     1.0  0.44448  0.81237  0.01709  1.0000
  H   H2448     1.0  0.42930  0.81748  0.99810  1.0000
  S   S626      1.0  0.47706  0.71037  0.03761  1.0000
  H   H2449     1.0  0.45852  0.81880  0.01461  1.0000
  H   H2450     1.0  0.44488  0.80796  0.02546  1.0000
  Fe  Fe303     1.0  0.46218  0.96242  0.11357  1.0000
  H   H2451     1.0  0.40629  0.98833  0.29810  1.0000
  C   C1545     1.0  0.38598  0.67965  0.00636  1.0000
  C   C1546     1.0  0.38676  0.68770  0.01127  1.0000
  C   C1547     1.0  0.38871  0.68464  0.02193  1.0000
  H   H2452     1.0  0.46602  0.71105  0.99184  1.0000
  H   H2453     1.0  0.47035  0.97433  0.22481  1.0000
  H   H2454     1.0  0.38463  0.68199  0.99806  1.0000
  H   H2455     1.0  0.38924  0.69083  0.02579  1.0000
  S   S627      1.0  0.45782  0.92168  0.04529  1.0000
  C   C1548     1.0  0.40385  0.96386  0.21013  1.0000
  C   C1549     1.0  0.40635  0.96123  0.22054  1.0000
  C   C1550     1.0  0.39813  0.96320  0.22987  1.0000
  C   C1551     1.0  0.38733  0.96761  0.22885  1.0000
  C   C1552     1.0  0.38478  0.96980  0.21852  1.0000
  C   C1553     1.0  0.39303  0.96811  0.20916  1.0000
  H   H2456     1.0  0.41469  0.95791  0.22132  1.0000
  H   H2457     1.0  0.40011  0.96122  0.23787  1.0000
  H   H2458     1.0  0.37645  0.97304  0.21766  1.0000
  H   H2459     1.0  0.39100  0.97025  0.20119  1.0000
  C   C1554     1.0  0.41587  0.96611  0.29181  1.0000
  C   C1555     1.0  0.41396  0.96227  0.28359  1.0000
  S   S628      1.0  0.46476  0.95324  0.18521  1.0000
  C   C1556     1.0  0.44059  0.74361  0.99150  1.0000
  C   C1557     1.0  0.43295  0.96029  0.27442  1.0000
  H   H2460     1.0  0.48414  0.98566  0.11855  1.0000
  H   H2461     1.0  0.45540  0.68520  0.03240  1.0000
  H   H2462     1.0  0.42983  0.85345  0.03198  1.0000
  H   H2463     1.0  0.47536  0.86569  0.99572  1.0000
  C   C1558     1.0  0.48183  0.79091  0.03214  1.0000
  H   H2464     1.0  0.45382  0.69063  0.00322  1.0000
  H   H2465     1.0  0.48211  0.74029  0.06407  1.0000
  C   C1559     1.0  0.45053  0.97318  0.24825  1.0000
  C   C1560     1.0  0.46376  0.78729  0.03915  1.0000
  H   H2466     1.0  0.47504  0.77269  0.99717  1.0000
  H   H2467     1.0  0.48656  0.98252  0.24511  1.0000
  C   C1561     1.0  0.48165  0.68140  0.02871  1.0000
  H   H2468     1.0  0.41882  0.78679  0.02357  1.0000
  Fe  Fe304     1.0  0.46650  0.96922  0.30298  1.0000
  H   H2469     1.0  0.44278  0.91894  0.09104  1.0000
  H   H2470     1.0  0.46473  0.94441  0.14487  1.0000
  H   H2471     1.0  0.44919  0.92584  0.07148  1.0000
  Fe  Fe305     1.0  0.48371  0.65736  0.01470  1.0000
  S   S629      1.0  0.47057  0.93556  0.02212  1.0000
  H   H2472     1.0  0.42410  0.67588  0.01664  1.0000
  S   S630      1.0  0.38717  0.81609  0.99885  1.0000
  C   C1562     1.0  0.39430  0.93975  0.05576  1.0000
  C   C1563     1.0  0.39493  0.93011  0.06402  1.0000
  C   C1564     1.0  0.39534  0.92002  0.06163  1.0000
  C   C1565     1.0  0.39534  0.91942  0.05094  1.0000
  C   C1566     1.0  0.39506  0.92900  0.04259  1.0000
  C   C1567     1.0  0.39444  0.93914  0.04503  1.0000
  H   H2473     1.0  0.39475  0.93049  0.07232  1.0000
  H   H2474     1.0  0.39554  0.91264  0.06814  1.0000
  H   H2475     1.0  0.39511  0.92864  0.03432  1.0000
  H   H2476     1.0  0.39396  0.94654  0.03858  1.0000
  C   C1568     1.0  0.38989  0.95855  0.12416  1.0000
  C   C1569     1.0  0.40033  0.95189  0.12404  1.0000
  C   C1570     1.0  0.40549  0.95051  0.13266  1.0000
  C   C1571     1.0  0.40041  0.95606  0.14128  1.0000
  C   C1572     1.0  0.39015  0.96308  0.14120  1.0000
  C   C1573     1.0  0.38483  0.96416  0.13275  1.0000
  H   H2477     1.0  0.40422  0.94741  0.11755  1.0000
  H   H2478     1.0  0.41340  0.94503  0.13270  1.0000
  H   H2479     1.0  0.38614  0.96735  0.14783  1.0000
  H   H2480     1.0  0.37672  0.96928  0.13292  1.0000
  C   C1574     1.0  0.44180  0.95601  0.10929  1.0000
  S   S631      1.0  0.40401  0.98841  0.17726  1.0000
  C   C1575     1.0  0.44728  0.95017  0.09192  1.0000
  C   C1576     1.0  0.43659  0.94958  0.09281  1.0000
  C   C1577     1.0  0.42867  0.95153  0.10226  1.0000
  C   C1578     1.0  0.43126  0.95481  0.11048  1.0000
  H   H2481     1.0  0.45638  0.79005  0.00809  1.0000
  H   H2482     1.0  0.35716  0.68084  0.99127  1.0000
  H   H2483     1.0  0.42054  0.95052  0.10323  1.0000
  H   H2484     1.0  0.42507  0.95650  0.11766  1.0000
  C   C1579     1.0  0.40908  0.98215  0.11452  1.0000
  C   C1580     1.0  0.45285  0.69409  0.02862  1.0000
  C   C1581     1.0  0.46469  0.78785  0.00979  1.0000
  H   H2485     1.0  0.46867  0.90589  0.07379  1.0000
  C   C1582     1.0  0.47156  0.95042  0.06571  1.0000
  N   N154      1.0  0.43066  0.90255  0.04637  1.0000
  C   C1583     1.0  0.43748  0.90088  0.03548  1.0000
  C   C1584     1.0  0.42381  0.91383  0.04514  1.0000
  C   C1585     1.0  0.43772  0.90100  0.05404  1.0000
  H   H2486     1.0  0.44294  0.89253  0.03611  1.0000
  H   H2487     1.0  0.44276  0.90698  0.03183  1.0000
  H   H2488     1.0  0.43241  0.90189  0.02950  1.0000
  H   H2489     1.0  0.41854  0.91542  0.05317  1.0000
  H   H2490     1.0  0.42882  0.92016  0.04174  1.0000
  H   H2491     1.0  0.43288  0.90251  0.06223  1.0000
  H   H2492     1.0  0.44342  0.90666  0.05073  1.0000
  H   H2493     1.0  0.44280  0.89246  0.05535  1.0000
  N   N155      1.0  0.43190  0.83583  0.03582  1.0000
  C   C1586     1.0  0.42849  0.83556  0.02594  1.0000
  C   C1587     1.0  0.44045  0.82591  0.03845  1.0000
  C   C1588     1.0  0.42247  0.83601  0.04528  1.0000
  C   C1589     1.0  0.43620  0.84582  0.03362  1.0000
  H   H2494     1.0  0.42219  0.84299  0.02361  1.0000
  H   H2495     1.0  0.42507  0.82821  0.02729  1.0000
  H   H2496     1.0  0.43543  0.83535  0.01866  1.0000
  H   H2497     1.0  0.44341  0.82585  0.04574  1.0000
  S   S632      1.0  0.37610  0.90602  0.00369  1.0000
  H   H2498     1.0  0.48445  0.79183  0.00706  1.0000
  H   H2499     1.0  0.41599  0.84355  0.04373  1.0000
  H   H2500     1.0  0.42484  0.83594  0.05292  1.0000
  H   H2501     1.0  0.41882  0.82876  0.04693  1.0000
  C   C1590     1.0  0.46944  0.92007  0.08522  1.0000
  C   C1591     1.0  0.42415  0.98913  0.11517  1.0000
  N   N156      1.0  0.46820  0.88296  0.99152  1.0000
  C   C1592     1.0  0.48396  0.78627  0.00212  1.0000
  C   C1593     1.0  0.48516  0.98820  0.06926  1.0000
  H   H2502     1.0  0.43729  0.96013  0.24344  1.0000
  H   H2503     1.0  0.42998  0.95107  0.15454  1.0000
  H   H2504     1.0  0.43459  0.94166  0.04713  1.0000
  H   H2505     1.0  0.44325  0.82814  0.98708  1.0000
  H   H2506     1.0  0.45229  0.89007  0.00010  1.0000
  H   H2507     1.0  0.36604  0.97948  0.07153  1.0000
  Fe  Fe306     1.0  0.47509  0.81963  0.02643  1.0000
  S   S633      1.0  0.48428  0.67542  0.00898  1.0000
  H   H2508     1.0  0.42999  0.98547  0.16715  1.0000
  C   C1594     1.0  0.47119  0.95232  0.17153  1.0000
  H   H2509     1.0  0.43620  0.66506  0.01657  1.0000
  H   H2510     1.0  0.42342  0.95223  0.05163  1.0000
  H   H2511     1.0  0.42847  0.88587  0.05185  1.0000
  H   H2512     1.0  0.43764  0.95099  0.21849  1.0000
  S   S634      1.0  0.45980  0.96037  0.29456  1.0000
  H   H2513     1.0  0.43479  0.95904  0.05991  1.0000
  S   S635      1.0  0.36989  0.97812  0.29359  1.0000
  Fe  Fe307     1.0  0.40472  0.81588  0.99078  1.0000
  H   H2514     1.0  0.42578  0.94157  0.24841  1.0000
  S   S636      1.0  0.45269  0.98465  0.27833  1.0000
  H   H2515     1.0  0.41490  0.96008  0.31902  1.0000
  Fe  Fe308     1.0  0.46738  0.97077  0.27867  1.0000
  H   H2516     1.0  0.39380  0.89339  0.98913  1.0000
  H   H2517     1.0  0.46341  0.92546  0.06568  1.0000
  H   H2518     1.0  0.43367  0.67437  0.00390  1.0000
  H   H2519     1.0  0.40538  0.79468  0.03854  1.0000
  H   H2520     1.0  0.41827  0.89563  0.05900  1.0000
  S   S637      1.0  0.38745  0.96246  0.26850  1.0000
  S   S638      1.0  0.44812  0.97944  0.19681  1.0000
  H   H2521     1.0  0.44802  0.93594  0.16559  1.0000
  N   N157      1.0  0.43825  0.95771  0.04301  1.0000
  H   H2522     1.0  0.36071  0.91133  0.99046  1.0000
  H   H2523     1.0  0.48141  0.72067  0.06592  1.0000
  H   H2524     1.0  0.46471  0.78296  0.99109  1.0000
  H   H2525     1.0  0.35114  0.88876  0.03268  1.0000
  C   C1595     1.0  0.36773  0.97628  0.06394  1.0000
  S   S639      1.0  0.46593  0.80779  0.03945  1.0000
  H   H2526     1.0  0.45093  0.95242  0.23981  1.0000
  H   H2527     1.0  0.44924  0.75733  0.99705  1.0000
  C   C1596     1.0  0.45527  0.97463  0.23697  1.0000
  H   H2528     1.0  0.44306  0.93216  0.22961  1.0000
  S   S640      1.0  0.47022  0.96918  0.09620  1.0000
  C   C1597     1.0  0.47089  0.80046  0.99312  1.0000
  C   C1598     1.0  0.44228  0.95173  0.24285  1.0000
  C   C1599     1.0  0.45683  0.92651  0.07313  1.0000
  C   C1600     1.0  0.47510  0.92322  0.99416  1.0000
  H   H2529     1.0  0.44559  0.95551  0.02644  1.0000
  H   H2530     1.0  0.47377  0.98380  0.31305  1.0000
  C   C1601     1.0  0.44731  0.96081  0.14764  1.0000
  H   H2531     1.0  0.43839  0.97494  0.03803  1.0000
  C   C1602     1.0  0.47964  0.70044  0.02975  1.0000
  H   H2532     1.0  0.38951  0.96179  0.29741  1.0000
  S   S641      1.0  0.47482  0.94679  0.11570  1.0000
  H   H2533     1.0  0.42134  0.96971  0.12888  1.0000
  H   H2534     1.0  0.42193  0.95497  0.24015  1.0000
  S   S642      1.0  0.46617  0.88954  0.04960  1.0000
  H   H2535     1.0  0.47760  0.98786  0.26290  1.0000
  N   N158      1.0  0.43630  0.75554  0.99096  1.0000
  N   N159      1.0  0.41041  0.77747  0.03839  1.0000
  C   C1603     1.0  0.40550  0.76773  0.04173  1.0000
  C   C1604     1.0  0.41906  0.77558  0.04442  1.0000
  C   C1605     1.0  0.40193  0.78719  0.04099  1.0000
  C   C1606     1.0  0.41513  0.77947  0.02640  1.0000
  H   H2536     1.0  0.40164  0.76612  0.05067  1.0000
  H   H2537     1.0  0.41171  0.76019  0.04013  1.0000
  H   H2538     1.0  0.39915  0.76886  0.03705  1.0000
  H   H2539     1.0  0.42298  0.78277  0.04191  1.0000
  H   H2540     1.0  0.41580  0.77411  0.05349  1.0000
  H   H2541     1.0  0.42559  0.76827  0.04272  1.0000
  H   H2542     1.0  0.39527  0.78885  0.03658  1.0000
  H   H2543     1.0  0.45523  0.78997  0.04273  1.0000
  H   H2544     1.0  0.39818  0.78598  0.04996  1.0000
  C   C1607     1.0  0.48204  0.95003  0.14995  1.0000
  H   H2545     1.0  0.40888  0.78086  0.02159  1.0000
  H   H2546     1.0  0.42159  0.77236  0.02412  1.0000
  Fe  Fe309     1.0  0.38047  0.97698  0.27666  1.0000
  C   C1608     1.0  0.37506  0.97900  0.04429  1.0000
  H   H2547     1.0  0.44133  0.94661  0.25141  1.0000
  C   C1609     1.0  0.47307  0.97042  0.24131  1.0000
  C   C1610     1.0  0.43061  0.95053  0.04488  1.0000
  C   C1611     1.0  0.42362  0.89449  0.05085  1.0000
  H   H2548     1.0  0.44027  0.96562  0.15266  1.0000
  H   H2549     1.0  0.43657  0.95013  0.14065  1.0000
  Fe  Fe310     1.0  0.47142  0.72763  0.02831  1.0000
  Fe  Fe311     1.0  0.40265  0.96899  0.26304  1.0000
  S   S643      1.0  0.47147  0.96752  0.20427  1.0000
  C   C1612     1.0  0.44021  0.95419  0.22429  1.0000
  H   H2550     1.0  0.43019  0.97068  0.03160  1.0000
  H   H2551     1.0  0.48200  0.88097  0.99835  1.0000
  C   C1613     1.0  0.47628  0.96043  0.15193  1.0000
  C   C1614     1.0  0.39051  0.96108  0.31401  1.0000
  H   H2552     1.0  0.47691  0.93476  0.17616  1.0000
  H   H2553     1.0  0.37056  0.65652  0.99095  1.0000
  H   H2554     1.0  0.44800  0.96107  0.05210  1.0000
  H   H2555     1.0  0.47657  0.91893  0.07823  1.0000
  C   C1615     1.0  0.43284  0.96934  0.03943  1.0000
  H   H2556     1.0  0.47440  0.89495  0.99523  1.0000
  N   N160      1.0  0.43878  0.94710  0.23552  1.0000
  H   H2557     1.0  0.39865  0.98671  0.21669  1.0000
  C   C1616     1.0  0.47618  0.95055  0.07424  1.0000
  H   H2558     1.0  0.36435  0.86246  0.02306  1.0000
  N   N161      1.0  0.41374  0.98610  0.12149  1.0000
  C   C1617     1.0  0.47095  0.96161  0.16277  1.0000
  C   C1618     1.0  0.42808  0.75719  0.00116  1.0000
  S   S644      1.0  0.42840  0.97375  0.30033  1.0000
  S   S645      1.0  0.39909  0.97995  0.24716  1.0000
  H   H2559     1.0  0.36361  0.98323  0.31504  1.0000
  C   C1619     1.0  0.46658  0.97326  0.23349  1.0000
  C   C1620     1.0  0.44794  0.94489  0.16274  1.0000
  H   H2560     1.0  0.43738  0.93802  0.15154  1.0000
  H   H2561     1.0  0.46477  0.79336  0.01501  1.0000
  C   C1621     1.0  0.43878  0.69112  0.02185  1.0000
  C   C1622     1.0  0.44590  0.70758  0.01371  1.0000
  Fe  Fe312     1.0  0.45627  0.97959  0.20985  1.0000
  Fe  Fe313     1.0  0.47243  0.92925  0.03973  1.0000
  H   H2562     1.0  0.48372  0.69836  0.00319  1.0000
  H   H2563     1.0  0.44663  0.69807  0.03501  1.0000
  S   S646      1.0  0.40727  0.71815  0.99053  1.0000
  H   H2564     1.0  0.45208  0.94594  0.03687  1.0000
  S   S647      1.0  0.46318  0.74060  0.03822  1.0000
  C   C1623     1.0  0.38891  0.66555  0.02282  1.0000
  C   C1624     1.0  0.44545  0.93588  0.23512  1.0000
  S   S648      1.0  0.48281  0.73759  0.01605  1.0000
  H   H2565     1.0  0.43535  0.96271  0.22436  1.0000
  H   H2566     1.0  0.42754  0.95166  0.03734  1.0000
  H   H2567     1.0  0.45482  0.96249  0.14863  1.0000
  N   N162      1.0  0.44862  0.69569  0.01870  1.0000
  C   C1625     1.0  0.45702  0.94290  0.14416  1.0000
  Fe  Fe314     1.0  0.46394  0.96872  0.19027  1.0000
  H   H2568     1.0  0.40924  0.96837  0.29848  1.0000
  C   C1626     1.0  0.47291  0.78146  0.99284  1.0000
  S   S649      1.0  0.48411  0.76018  0.02877  1.0000
  C   C1627     1.0  0.48269  0.69579  0.01207  1.0000
  H   H2569     1.0  0.45393  0.95976  0.03279  1.0000
  H   H2570     1.0  0.38906  0.97643  0.05699  1.0000
  C   C1628     1.0  0.47872  0.77327  0.03203  1.0000
  H   H2571     1.0  0.41206  0.66252  0.02575  1.0000
  N   N163      1.0  0.44741  0.94889  0.15099  1.0000
  H   H2572     1.0  0.46193  0.86842  0.05030  1.0000
  H   H2573     1.0  0.45965  0.68104  0.01422  1.0000
  H   H2574     1.0  0.45424  0.93599  0.23195  1.0000
  H   H2575     1.0  0.45559  0.93509  0.07408  1.0000
  H   H2576     1.0  0.48585  0.77769  0.00703  1.0000
  H   H2577     1.0  0.44539  0.94750  0.05657  1.0000
  H   H2578     1.0  0.41550  0.97839  0.22312  1.0000
  S   S650      1.0  0.47129  0.98262  0.17922  1.0000
  S   S651      1.0  0.39713  0.98481  0.15607  1.0000
  C   C1629     1.0  0.42719  0.94661  0.23982  1.0000
  H   H2579     1.0  0.44453  0.93033  0.24347  1.0000
  N   N164      1.0  0.45964  0.91833  0.08301  1.0000
  H   H2580     1.0  0.37907  0.98427  0.03675  1.0000
  H   H2581     1.0  0.34390  0.87990  0.03052  1.0000
  H   H2582     1.0  0.35910  0.98135  0.23048  1.0000
  H   H2583     1.0  0.43235  0.69515  0.02806  1.0000
  H   H2584     1.0  0.41031  0.98398  0.31661  1.0000
  C   C1630     1.0  0.41570  0.97728  0.13127  1.0000
  H   H2585     1.0  0.44185  0.97392  0.25102  1.0000
  H   H2586     1.0  0.44302  0.84616  0.02625  1.0000
  H   H2587     1.0  0.36742  0.97813  0.04280  1.0000
  C   C1631     1.0  0.46775  0.87060  0.04274  1.0000
  C   C1632     1.0  0.36069  0.86950  0.01700  1.0000
  H   H2588     1.0  0.35486  0.89748  0.01251  1.0000
  C   C1633     1.0  0.47367  0.88620  0.99831  1.0000
  C   C1634     1.0  0.41847  0.65662  0.02130  1.0000
  S   S652      1.0  0.47016  0.94294  0.04852  1.0000
  H   H2589     1.0  0.36974  0.88915  0.02248  1.0000
  H   H2590     1.0  0.38185  0.76120  0.98989  1.0000
  H   H2591     1.0  0.45327  0.96962  0.26467  1.0000
  H   H2592     1.0  0.42776  0.98306  0.21581  1.0000
  H   H2593     1.0  0.44061  0.68212  0.02551  1.0000
  S   S653      1.0  0.46587  0.83645  0.01943  1.0000
  C   C1635     1.0  0.43743  0.94695  0.14936  1.0000
  C   C1636     1.0  0.37612  0.97312  0.30503  1.0000
  H   H2594     1.0  0.42146  0.75283  0.00253  1.0000
  N   N165      1.0  0.35961  0.88020  0.01964  1.0000
  H   H2595     1.0  0.36602  0.86895  0.00872  1.0000
  C   C1637     1.0  0.44991  0.95326  0.10023  1.0000
  H   H2596     1.0  0.43952  0.95817  0.26764  1.0000
  H   H2597     1.0  0.46877  0.85614  0.03684  1.0000
  H   H2598     1.0  0.44888  0.92785  0.09454  1.0000
  C   C1638     1.0  0.42001  0.98192  0.21480  1.0000
  C   C1639     1.0  0.47635  0.94260  0.05913  1.0000
  H   H2599     1.0  0.46602  0.77928  0.01477  1.0000
  H   H2600     1.0  0.43176  0.75393  0.00852  1.0000
  H   H2601     1.0  0.42214  0.97570  0.20963  1.0000
  H   H2602     1.0  0.47234  0.95655  0.07930  1.0000
  H   H2603     1.0  0.43398  0.73938  0.99241  1.0000
  H   H2604     1.0  0.35523  0.87407  0.03715  1.0000
  Fe  Fe315     1.0  0.46972  0.74380  0.00648  1.0000
  C   C1640     1.0  0.37118  0.97712  0.31469  1.0000
  H   H2605     1.0  0.47168  0.91422  0.09277  1.0000
  H   H2606     1.0  0.47135  0.67622  0.99201  1.0000
  H   H2607     1.0  0.48184  0.67285  0.03275  1.0000
  C   C1641     1.0  0.48012  0.68928  0.03494  1.0000
  S   S654      1.0  0.37457  0.98828  0.26177  1.0000
  H   H2608     1.0  0.38197  0.98799  0.06317  1.0000
  C   C1642     1.0  0.46183  0.90711  0.08105  1.0000
  Fe  Fe316     1.0  0.47365  0.75103  0.02520  1.0000
  H   H2609     1.0  0.39331  0.98477  0.30445  1.0000
  C   C1643     1.0  0.47083  0.79443  0.03680  1.0000
  C   C1644     1.0  0.47162  0.86364  0.03514  1.0000
  H   H2610     1.0  0.41933  0.97989  0.13668  1.0000
  H   H2611     1.0  0.45345  0.94855  0.08470  1.0000
  H   H2612     1.0  0.46217  0.77133  0.03838  1.0000
  C   C1645     1.0  0.48283  0.87619  0.02325  1.0000
  S   S655      1.0  0.45192  0.98306  0.30425  1.0000
  H   H2613     1.0  0.47911  0.68676  0.04381  1.0000
  H   H2614     1.0  0.39093  0.67135  0.03606  1.0000
  H   H2615     1.0  0.40479  0.98537  0.20271  1.0000
  H   H2616     1.0  0.43922  0.71209  0.01939  1.0000
  C   C1646     1.0  0.46767  0.77675  0.03666  1.0000
  H   H2617     1.0  0.46284  0.87010  0.00491  1.0000
  N   N166      1.0  0.42383  0.66228  0.01039  1.0000
  C   C1647     1.0  0.48424  0.72199  0.05680  1.0000
  N   N167      1.0  0.47311  0.78900  0.99948  1.0000
  H   H2618     1.0  0.45304  0.71138  0.01176  1.0000
  H   H2619     1.0  0.47047  0.72504  0.99856  1.0000
  H   H2620     1.0  0.39790  0.95474  0.31372  1.0000
  S   S656      1.0  0.47635  0.96621  0.26234  1.0000
  Fe  Fe317     1.0  0.47863  0.97670  0.10414  1.0000
  C   C1648     1.0  0.48294  0.68467  0.01725  1.0000
  H   H2621     1.0  0.44459  0.73961  0.99861  1.0000
  H   H2622     1.0  0.37417  0.87443  0.02611  1.0000
  H   H2623     1.0  0.42446  0.95002  0.31196  1.0000
  H   H2624     1.0  0.37504  0.83853  0.99051  1.0000
  H   H2625     1.0  0.46407  0.90069  0.08829  1.0000
  H   H2626     1.0  0.41927  0.67302  0.99564  1.0000
  S   S657      1.0  0.47293  0.74738  0.98802  1.0000
  Fe  Fe318     1.0  0.48073  0.91908  0.01940  1.0000
  H   H2627     1.0  0.46817  0.92858  0.08641  1.0000
  H   H2628     1.0  0.38463  0.74761  0.98747  1.0000
  H   H2629     1.0  0.48202  0.89049  0.02905  1.0000
  H   H2630     1.0  0.41486  0.97510  0.11124  1.0000
  H   H2631     1.0  0.42990  0.98221  0.11162  1.0000
  C   C1649     1.0  0.44528  0.76083  0.98989  1.0000
  H   H2632     1.0  0.48676  0.93280  0.15726  1.0000
  H   H2633     1.0  0.48062  0.98845  0.06306  1.0000
  C   C1650     1.0  0.35405  0.98896  0.22630  1.0000
  C   C1651     1.0  0.37721  0.90270  0.99101  1.0000
  H   H2634     1.0  0.44236  0.76988  0.98932  1.0000
  C   C1652     1.0  0.47671  0.94195  0.16943  1.0000
  H   H2635     1.0  0.46282  0.86873  0.99141  1.0000
  H   H2636     1.0  0.37059  0.67489  0.99384  1.0000
  Fe  Fe319     1.0  0.48163  0.84172  0.01592  1.0000
  C   C1653     1.0  0.38330  0.98459  0.05578  1.0000
  H   H2637     1.0  0.47761  0.74406  0.05134  1.0000
  C   C1654     1.0  0.48224  0.94083  0.15873  1.0000
  H   H2638     1.0  0.42387  0.98328  0.25993  1.0000
  H   H2639     1.0  0.42427  0.76607  0.00086  1.0000
  H   H2640     1.0  0.35664  0.66234  0.98976  1.0000
  H   H2641     1.0  0.43539  0.65798  0.99593  1.0000
  H   H2642     1.0  0.47994  0.98590  0.07758  1.0000
  C   C1655     1.0  0.48565  0.91681  0.99378  1.0000
  C   C1656     1.0  0.48578  0.78033  0.02992  1.0000
  Fe  Fe320     1.0  0.48350  0.95407  0.09881  1.0000
  S   S658      1.0  0.48406  0.91326  0.03655  1.0000
  H   H2643     1.0  0.45273  0.88777  0.98691  1.0000
  Fe  Fe321     1.0  0.48263  0.95638  0.12207  1.0000
  S   S659      1.0  0.48387  0.85867  0.01506  1.0000
  H   H2644     1.0  0.45783  0.89894  0.98764  1.0000
  H   H2645     1.0  0.48182  0.96914  0.23858  1.0000
  H   H2646     1.0  0.43955  0.95483  0.31625  1.0000
  H   H2647     1.0  0.35457  0.98791  0.21790  1.0000
  C   C1657     1.0  0.48578  0.94299  0.07612  1.0000
  H   H2648     1.0  0.48665  0.95886  0.17774  1.0000
  S   S660      1.0  0.48728  0.83789  0.99898  1.0000
  C   C1658     1.0  0.48493  0.74090  0.05501  1.0000
  H   H2649     1.0  0.48767  0.73452  0.03638  1.0000
  H   H2650     1.0  0.48738  0.79630  0.03040  1.0000
  H   H2651     1.0  0.41464  0.98925  0.08087  1.0000
  H   H2652     1.0  0.46112  0.92844  0.98682  1.0000
  Fe  Fe322     1.0  0.39408  0.97162  0.36840  1.0000
  S   S661      1.0  0.40071  0.97627  0.35021  1.0000
  S   S662      1.0  0.40284  0.96151  0.38194  1.0000
  H   H2653     1.0  0.39720  0.98090  0.32306  1.0000
  H   H2654     1.0  0.24556  0.96936  0.47213  1.0000
  H   H2655     1.0  0.48424  0.94432  0.39535  1.0000
  Fe  Fe323     1.0  0.38705  0.97019  0.34825  1.0000
  H   H2656     1.0  0.24749  0.97140  0.48463  1.0000
  C   C1659     1.0  0.48137  0.93998  0.41737  1.0000
  Fe  Fe324     1.0  0.45606  0.96991  0.60330  1.0000
  S   S663      1.0  0.38135  0.96405  0.36654  1.0000
  N   N168      1.0  0.25192  0.98360  0.47005  1.0000
  H   H2657     1.0  0.39638  0.94890  0.62988  1.0000
  H   H2658     1.0  0.30572  0.94406  0.40189  1.0000
  C   C1660     1.0  0.37539  0.97052  0.62462  1.0000
  H   H2659     1.0  0.37062  0.97463  0.61843  1.0000
  C   C1661     1.0  0.46946  0.97419  0.34491  1.0000
  Fe  Fe325     1.0  0.31846  0.96486  0.43391  1.0000
  H   H2660     1.0  0.39226  0.95580  0.64706  1.0000
  S   S664      1.0  0.33413  0.95788  0.42279  1.0000
  Fe  Fe326     1.0  0.30461  0.96175  0.45743  1.0000
  S   S665      1.0  0.29077  0.97540  0.45268  1.0000
  S   S666      1.0  0.30212  0.95436  0.47563  1.0000
  Fe  Fe327     1.0  0.29401  0.96855  0.43775  1.0000
  S   S667      1.0  0.28095  0.96846  0.42973  1.0000
  H   H2661     1.0  0.29743  0.96916  0.39678  1.0000
  N   N169      1.0  0.42631  0.94878  0.32832  1.0000
  S   S668      1.0  0.30668  0.95389  0.44330  1.0000
  S   S669      1.0  0.31754  0.97128  0.44868  1.0000
  Fe  Fe328     1.0  0.32805  0.97225  0.51066  1.0000
  S   S670      1.0  0.31585  0.96991  0.52688  1.0000
  C   C1662     1.0  0.30370  0.98623  0.47434  1.0000
  C   C1663     1.0  0.42066  0.98539  0.59858  1.0000
  H   H2662     1.0  0.43012  0.96479  0.32347  1.0000
  H   H2663     1.0  0.41468  0.95944  0.33825  1.0000
  Fe  Fe329     1.0  0.32624  0.97733  0.53288  1.0000
  S   S671      1.0  0.32877  0.97266  0.55042  1.0000
  H   H2664     1.0  0.45558  0.96702  0.63771  1.0000
  H   H2665     1.0  0.30868  0.98039  0.48012  1.0000
  C   C1664     1.0  0.25677  0.98417  0.45817  1.0000
  H   H2666     1.0  0.47815  0.93577  0.42596  1.0000
  C   C1665     1.0  0.38617  0.97796  0.40063  1.0000
  H   H2667     1.0  0.29157  0.97431  0.49139  1.0000
  S   S672      1.0  0.38685  0.98617  0.59737  1.0000
  H   H2668     1.0  0.38548  0.98520  0.40402  1.0000
  N   N170      1.0  0.37633  0.97330  0.40514  1.0000
  H   H2669     1.0  0.41974  0.96142  0.60821  1.0000
  S   S673      1.0  0.44848  0.95864  0.39195  1.0000
  Fe  Fe330     1.0  0.47816  0.95794  0.59226  1.0000
  H   H2670     1.0  0.41706  0.98696  0.60668  1.0000
  H   H2671     1.0  0.29836  0.97120  0.40964  1.0000
  Fe  Fe331     1.0  0.37052  0.98091  0.36639  1.0000
  C   C1666     1.0  0.41930  0.95074  0.33904  1.0000
  H   H2672     1.0  0.36582  0.97928  0.53990  1.0000
  H   H2673     1.0  0.27505  0.98675  0.56938  1.0000
  Fe  Fe332     1.0  0.30380  0.98443  0.44301  1.0000
  H   H2674     1.0  0.40901  0.94117  0.61323  1.0000
  H   H2675     1.0  0.43293  0.94535  0.40048  1.0000
  S   S674      1.0  0.46643  0.95322  0.60827  1.0000
  H   H2676     1.0  0.41334  0.94614  0.32291  1.0000
  H   H2677     1.0  0.40541  0.94947  0.59466  1.0000
  H   H2678     1.0  0.31991  0.94413  0.39650  1.0000
  H   H2679     1.0  0.39252  0.98269  0.55259  1.0000
  H   H2680     1.0  0.34935  0.97671  0.53601  1.0000
  H   H2681     1.0  0.43324  0.95469  0.58737  1.0000
  H   H2682     1.0  0.30669  0.94723  0.41974  1.0000
  C   C1667     1.0  0.47648  0.97361  0.63765  1.0000
  H   H2683     1.0  0.41573  0.96694  0.59518  1.0000
  C   C1668     1.0  0.47136  0.97031  0.32698  1.0000
  H   H2684     1.0  0.25162  0.98175  0.45410  1.0000
  S   S675      1.0  0.39081  0.97122  0.57928  1.0000
  H   H2685     1.0  0.48490  0.94667  0.41790  1.0000
  C   C1669     1.0  0.34151  0.98462  0.47306  1.0000
  H   H2686     1.0  0.41313  0.94553  0.34218  1.0000
  Fe  Fe333     1.0  0.38238  0.97087  0.59699  1.0000
  H   H2687     1.0  0.32794  0.98100  0.41203  1.0000
  H   H2688     1.0  0.40976  0.98149  0.62610  1.0000
  C   C1670     1.0  0.46988  0.96687  0.33848  1.0000
  C   C1671     1.0  0.38379  0.96132  0.62299  1.0000
  C   C1672     1.0  0.38990  0.95604  0.63109  1.0000
  S   S676      1.0  0.43779  0.97327  0.60751  1.0000
  Fe  Fe334     1.0  0.39401  0.98726  0.57933  1.0000
  C   C1673     1.0  0.43597  0.97689  0.58597  1.0000
  C   C1674     1.0  0.33911  0.98299  0.39614  1.0000
  C   C1675     1.0  0.37893  0.96893  0.64255  1.0000
  H   H2689     1.0  0.34606  0.97591  0.47343  1.0000
  H   H2690     1.0  0.44413  0.97191  0.58433  1.0000
  C   C1676     1.0  0.47722  0.96225  0.64135  1.0000
  H   H2691     1.0  0.38514  0.95736  0.40200  1.0000
  H   H2692     1.0  0.42170  0.94103  0.61610  1.0000
  S   S677      1.0  0.37116  0.98004  0.55948  1.0000
  C   C1677     1.0  0.47240  0.98833  0.32834  1.0000
  H   H2693     1.0  0.37365  0.97677  0.42113  1.0000
  S   S678      1.0  0.47777  0.95395  0.63241  1.0000
  C   C1678     1.0  0.35898  0.97771  0.54662  1.0000
  Fe  Fe335     1.0  0.47458  0.96190  0.61538  1.0000
  Fe  Fe336     1.0  0.47523  0.98066  0.59528  1.0000
  H   H2694     1.0  0.43754  0.93539  0.32167  1.0000
  H   H2695     1.0  0.39456  0.98674  0.52773  1.0000
  H   H2696     1.0  0.37857  0.96619  0.39129  1.0000
  H   H2697     1.0  0.28125  0.96603  0.51059  1.0000
  H   H2698     1.0  0.43536  0.94005  0.59269  1.0000
  C   C1679     1.0  0.34083  0.97405  0.55301  1.0000
  C   C1680     1.0  0.34140  0.97339  0.56388  1.0000
  C   C1681     1.0  0.35068  0.97507  0.56610  1.0000
  C   C1682     1.0  0.35949  0.97729  0.55744  1.0000
  H   H2699     1.0  0.33988  0.98812  0.46462  1.0000
  C   C1683     1.0  0.34966  0.97624  0.54439  1.0000
  H   H2700     1.0  0.33461  0.97166  0.57060  1.0000
  H   H2701     1.0  0.35102  0.97465  0.57447  1.0000
  H   H2702     1.0  0.45077  0.98658  0.33307  1.0000
  H   H2703     1.0  0.43969  0.95412  0.33028  1.0000
  C   C1684     1.0  0.41528  0.96018  0.60264  1.0000
  C   C1685     1.0  0.43427  0.95593  0.32444  1.0000
  C   C1686     1.0  0.31158  0.94949  0.39754  1.0000
  H   H2704     1.0  0.45735  0.95601  0.41165  1.0000
  C   C1687     1.0  0.25091  0.97217  0.47561  1.0000
  H   H2705     1.0  0.48083  0.97123  0.41119  1.0000
  C   C1688     1.0  0.26747  0.97958  0.51282  1.0000
  C   C1689     1.0  0.27830  0.97397  0.51283  1.0000
  C   C1690     1.0  0.28537  0.97859  0.51571  1.0000
  Fe  Fe337     1.0  0.37480  0.98118  0.57525  1.0000
  C   C1691     1.0  0.38758  0.95994  0.64080  1.0000
  H   H2706     1.0  0.36747  0.98439  0.39318  1.0000
  H   H2707     1.0  0.29371  0.97421  0.51569  1.0000
  H   H2708     1.0  0.30994  0.95339  0.38916  1.0000
  C   C1692     1.0  0.31169  0.95608  0.48184  1.0000
  C   C1693     1.0  0.30873  0.95687  0.49292  1.0000
  C   C1694     1.0  0.31601  0.95913  0.49773  1.0000
  C   C1695     1.0  0.32649  0.96001  0.49162  1.0000
  C   C1696     1.0  0.37597  0.97322  0.32393  1.0000
  C   C1697     1.0  0.32216  0.95700  0.47574  1.0000
  H   H2709     1.0  0.30076  0.95584  0.49778  1.0000
  H   H2710     1.0  0.31364  0.95987  0.50625  1.0000
  H   H2711     1.0  0.46182  0.93855  0.40548  1.0000
  H   H2712     1.0  0.32466  0.95596  0.46734  1.0000
  C   C1698     1.0  0.26897  0.96515  0.43873  1.0000
  C   C1699     1.0  0.26912  0.95839  0.44926  1.0000
  C   C1700     1.0  0.25950  0.95542  0.45608  1.0000
  C   C1701     1.0  0.24968  0.95940  0.45249  1.0000
  C   C1702     1.0  0.24951  0.96642  0.44210  1.0000
  C   C1703     1.0  0.25914  0.96919  0.43520  1.0000
  H   H2713     1.0  0.27669  0.95520  0.45201  1.0000
  H   H2714     1.0  0.25969  0.94996  0.46410  1.0000
  C   C1704     1.0  0.39901  0.98672  0.54675  1.0000
  H   H2715     1.0  0.37063  0.95973  0.40392  1.0000
  H   H2716     1.0  0.32703  0.95991  0.39709  1.0000
  H   H2717     1.0  0.30407  0.98190  0.46788  1.0000
  C   C1705     1.0  0.35298  0.96684  0.39251  1.0000
  C   C1706     1.0  0.34862  0.96081  0.40291  1.0000
  C   C1707     1.0  0.33955  0.96586  0.40998  1.0000
  C   C1708     1.0  0.33486  0.97700  0.40661  1.0000
  H   H2718     1.0  0.48071  0.95701  0.39982  1.0000
  H   H2719     1.0  0.35991  0.96286  0.38707  1.0000
  H   H2720     1.0  0.46695  0.95931  0.41711  1.0000
  H   H2721     1.0  0.42640  0.93149  0.33253  1.0000
  N   N171      1.0  0.47277  0.94442  0.41095  1.0000
  S   S679      1.0  0.48732  0.96500  0.59983  1.0000
  H   H2722     1.0  0.48445  0.96712  0.42997  1.0000
  S   S680      1.0  0.33922  0.97779  0.51730  1.0000
  H   H2723     1.0  0.36612  0.98111  0.63577  1.0000
  H   H2724     1.0  0.47119  0.95333  0.39458  1.0000
  H   H2725     1.0  0.35226  0.95217  0.40546  1.0000
  H   H2726     1.0  0.37203  0.97629  0.33134  1.0000
  C   C1709     1.0  0.25898  0.98696  0.47506  1.0000
  S   S681      1.0  0.46295  0.97809  0.39768  1.0000
  S   S682      1.0  0.30584  0.97902  0.42744  1.0000
  H   H2727     1.0  0.43335  0.97870  0.56971  1.0000
  C   C1710     1.0  0.42170  0.96944  0.37807  1.0000
  C   C1711     1.0  0.41570  0.96135  0.38391  1.0000
  C   C1712     1.0  0.41983  0.95276  0.39200  1.0000
  H   H2728     1.0  0.41854  0.97616  0.37186  1.0000
  H   H2729     1.0  0.41528  0.94649  0.39655  1.0000
  H   H2730     1.0  0.29319  0.95986  0.40953  1.0000
  C   C1713     1.0  0.31273  0.95229  0.41480  1.0000
  H   H2731     1.0  0.32102  0.94684  0.41430  1.0000
  H   H2732     1.0  0.36325  0.98267  0.46807  1.0000
  C   C1714     1.0  0.31850  0.96483  0.39779  1.0000
  C   C1715     1.0  0.28730  0.98026  0.48513  1.0000
  H   H2733     1.0  0.44358  0.95417  0.64149  1.0000
  N   N172      1.0  0.44285  0.96454  0.65218  1.0000
  C   C1716     1.0  0.34960  0.98621  0.48702  1.0000
  H   H2734     1.0  0.31775  0.97136  0.40218  1.0000
  C   C1717     1.0  0.41948  0.95134  0.32019  1.0000
  H   H2735     1.0  0.41551  0.95519  0.58378  1.0000
  C   C1718     1.0  0.44932  0.97175  0.64348  1.0000
  H   H2736     1.0  0.25898  0.96631  0.47460  1.0000
  H   H2737     1.0  0.24199  0.96965  0.43929  1.0000
  C   C1719     1.0  0.46391  0.95238  0.41639  1.0000
  C   C1720     1.0  0.38566  0.96518  0.32363  1.0000
  S   S683      1.0  0.46335  0.97832  0.61150  1.0000
  H   H2738     1.0  0.43739  0.93489  0.33574  1.0000
  H   H2739     1.0  0.25547  0.98681  0.48400  1.0000
  H   H2740     1.0  0.43709  0.98661  0.34058  1.0000
  S   S684      1.0  0.25894  0.97407  0.50839  1.0000
  S   S685      1.0  0.46691  0.97384  0.58662  1.0000
  C   C1721     1.0  0.41435  0.94858  0.59138  1.0000
  N   N173      1.0  0.31056  0.95786  0.40375  1.0000
  C   C1722     1.0  0.43125  0.97910  0.59647  1.0000
  H   H2741     1.0  0.43640  0.97507  0.37597  1.0000
  S   S686      1.0  0.39202  0.96027  0.33500  1.0000
  S   S687      1.0  0.36596  0.97925  0.59310  1.0000
  C   C1723     1.0  0.47540  0.98008  0.64516  1.0000
  C   C1724     1.0  0.47077  0.98493  0.33983  1.0000
  H   H2742     1.0  0.36737  0.96616  0.42094  1.0000
  C   C1725     1.0  0.41789  0.94054  0.60961  1.0000
  C   C1726     1.0  0.37284  0.97417  0.63445  1.0000
  H   H2743     1.0  0.40491  0.98040  0.54246  1.0000
  H   H2744     1.0  0.39840  0.98141  0.62086  1.0000
  C   C1727     1.0  0.32959  0.95880  0.48067  1.0000
  H   H2745     1.0  0.46474  0.93092  0.41862  1.0000
  H   H2746     1.0  0.33775  0.95924  0.47599  1.0000
  C   C1728     1.0  0.43217  0.93711  0.32963  1.0000
  C   C1729     1.0  0.43748  0.95930  0.64703  1.0000
  H   H2747     1.0  0.40660  0.96113  0.60693  1.0000
  C   C1730     1.0  0.29942  0.96482  0.40493  1.0000
  S   S688      1.0  0.31915  0.98921  0.50399  1.0000
  S   S689      1.0  0.33586  0.96252  0.49751  1.0000
  C   C1731     1.0  0.34820  0.97795  0.38908  1.0000
  Fe  Fe338     1.0  0.24088  0.98053  0.51387  1.0000
  H   H2748     1.0  0.47668  0.97741  0.62903  1.0000
  C   C1732     1.0  0.42987  0.98073  0.57772  1.0000
  C   C1733     1.0  0.43159  0.94818  0.59495  1.0000
  H   H2749     1.0  0.31233  0.95839  0.41953  1.0000
  H   H2750     1.0  0.47476  0.98887  0.64226  1.0000
  C   C1734     1.0  0.43589  0.96012  0.38855  1.0000
  S   S690      1.0  0.47394  0.97041  0.37419  1.0000
  H   H2751     1.0  0.34183  0.98602  0.49322  1.0000
  C   C1735     1.0  0.40072  0.98358  0.62752  1.0000
  H   H2752     1.0  0.42129  0.93222  0.60771  1.0000
  N   N174      1.0  0.41978  0.94935  0.59965  1.0000
  H   H2753     1.0  0.43593  0.94895  0.60090  1.0000
  H   H2754     1.0  0.46806  0.97151  0.35377  1.0000
  Fe  Fe339     1.0  0.30788  0.98745  0.52055  1.0000
  S   S691      1.0  0.48673  0.94618  0.58106  1.0000
  Fe  Fe340     1.0  0.45743  0.97246  0.38561  1.0000
  H   H2755     1.0  0.27493  0.97739  0.55509  1.0000
  C   C1736     1.0  0.42986  0.95211  0.39424  1.0000
  C   C1737     1.0  0.43179  0.96884  0.38043  1.0000
  H   H2756     1.0  0.41753  0.94050  0.58891  1.0000
  S   S692      1.0  0.38672  0.95657  0.61077  1.0000
  H   H2757     1.0  0.45364  0.97569  0.64709  1.0000
  H   H2758     1.0  0.38183  0.96333  0.41971  1.0000
  H   H2759     1.0  0.43202  0.96555  0.64198  1.0000
  H   H2760     1.0  0.31732  0.96899  0.38930  1.0000
  S   S693      1.0  0.38285  0.98811  0.36938  1.0000
  H   H2761     1.0  0.47477  0.92924  0.40612  1.0000
  H   H2762     1.0  0.44081  0.98617  0.32622  1.0000
  H   H2763     1.0  0.26494  0.97855  0.45683  1.0000
  C   C1738     1.0  0.36673  0.98176  0.40229  1.0000
  H   H2764     1.0  0.35913  0.97859  0.40584  1.0000
  H   H2765     1.0  0.42411  0.94897  0.34543  1.0000
  H   H2766     1.0  0.46010  0.94841  0.42485  1.0000
  H   H2767     1.0  0.25897  0.97451  0.42711  1.0000
  Fe  Fe341     1.0  0.47888  0.97768  0.38548  1.0000
  H   H2768     1.0  0.28761  0.97574  0.47885  1.0000
  S   S694      1.0  0.37508  0.98642  0.34787  1.0000
  C   C1739     1.0  0.47743  0.95001  0.39969  1.0000
  H   H2769     1.0  0.40328  0.98903  0.55181  1.0000
  H   H2770     1.0  0.27281  0.98541  0.54180  1.0000
  Fe  Fe342     1.0  0.46772  0.98786  0.36599  1.0000
  H   H2771     1.0  0.48634  0.98505  0.60721  1.0000
  H   H2772     1.0  0.39760  0.97815  0.63543  1.0000
  C   C1740     1.0  0.46835  0.93536  0.41029  1.0000
  H   H2773     1.0  0.46892  0.95855  0.34245  1.0000
  H   H2774     1.0  0.26719  0.98136  0.47438  1.0000
  H   H2775     1.0  0.25771  0.98883  0.56425  1.0000
  C   C1741     1.0  0.41908  0.98668  0.58004  1.0000
  H   H2776     1.0  0.44413  0.97844  0.63846  1.0000
  H   H2777     1.0  0.35432  0.97753  0.48775  1.0000
  C   C1742     1.0  0.47257  0.98109  0.32192  1.0000
  C   C1743     1.0  0.28159  0.98887  0.51857  1.0000
  H   H2778     1.0  0.38765  0.98069  0.39149  1.0000
  H   H2779     1.0  0.39360  0.97174  0.40251  1.0000
  C   C1744     1.0  0.47700  0.95740  0.65253  1.0000
  C   C1745     1.0  0.37473  0.96973  0.41728  1.0000
  C   C1746     1.0  0.37770  0.96372  0.40041  1.0000
  H   H2780     1.0  0.27864  0.98272  0.48936  1.0000
  S   S695      1.0  0.35327  0.98580  0.37605  1.0000
  H   H2781     1.0  0.28529  0.98408  0.54562  1.0000
  C   C1747     1.0  0.27634  0.98501  0.54883  1.0000
  H   H2782     1.0  0.33355  0.98436  0.47900  1.0000
  S   S696      1.0  0.48589  0.97112  0.71617  1.0000
  C   C1748     1.0  0.43832  0.92605  0.73333  1.0000
  C   C1749     1.0  0.45270  0.76325  0.90175  1.0000
  C   C1750     1.0  0.38957  0.96252  0.71154  1.0000
  S   S697      1.0  0.39811  0.94783  0.88488  1.0000
  S   S698      1.0  0.41812  0.94478  0.85619  1.0000
  Fe  Fe343     1.0  0.47417  0.96296  0.88272  1.0000
  H   H2783     1.0  0.44770  0.66209  0.95735  1.0000
  S   S699      1.0  0.46137  0.95310  0.89013  1.0000
  C   C1751     1.0  0.43127  0.76053  0.98131  1.0000
  S   S700      1.0  0.47189  0.97781  0.86901  1.0000
  Fe  Fe344     1.0  0.38824  0.97267  0.66362  1.0000
  C   C1752     1.0  0.48454  0.91078  0.97798  1.0000
  H   H2784     1.0  0.45490  0.79709  0.90570  1.0000
  Fe  Fe345     1.0  0.46650  0.79883  0.96275  1.0000
  H   H2785     1.0  0.44368  0.92132  0.73918  1.0000
  N   N175      1.0  0.43062  0.72365  0.95612  1.0000
  H   H2786     1.0  0.42106  0.93585  0.88488  1.0000
  C   C1753     1.0  0.43434  0.69034  0.98307  1.0000
  H   H2787     1.0  0.47835  0.87126  0.93746  1.0000
  H   H2788     1.0  0.46900  0.76861  0.93539  1.0000
  S   S701      1.0  0.38969  0.96161  0.68018  1.0000
  H   H2789     1.0  0.46041  0.92760  0.82898  1.0000
  H   H2790     1.0  0.48197  0.93803  0.74568  1.0000
  C   C1754     1.0  0.48583  0.96299  0.72957  1.0000
  H   H2791     1.0  0.47037  0.91184  0.89992  1.0000
  S   S702      1.0  0.45780  0.96700  0.71556  1.0000
  Fe  Fe346     1.0  0.45922  0.95870  0.70200  1.0000
  S   S703      1.0  0.45337  0.94302  0.70588  1.0000
  H   H2792     1.0  0.45292  0.87293  0.94590  1.0000
  S   S704      1.0  0.47660  0.95991  0.69398  1.0000
  C   C1755     1.0  0.48020  0.92763  0.88571  1.0000
  H   H2793     1.0  0.47096  0.66298  0.94810  1.0000
  Fe  Fe347     1.0  0.47554  0.81748  0.94591  1.0000
  S   S705      1.0  0.43352  0.94868  0.76290  1.0000
  N   N176      1.0  0.48217  0.92163  0.89675  1.0000
  H   H2794     1.0  0.43477  0.94898  0.81382  1.0000
  S   S706      1.0  0.41815  0.79440  0.93969  1.0000
  H   H2795     1.0  0.44066  0.93646  0.90030  1.0000
  H   H2796     1.0  0.43709  0.93445  0.81503  1.0000
  H   H2797     1.0  0.42000  0.96884  0.71266  1.0000
  H   H2798     1.0  0.44437  0.93902  0.74252  1.0000
  H   H2799     1.0  0.42594  0.83442  0.91333  1.0000
  H   H2800     1.0  0.48686  0.75080  0.95383  1.0000
  C   C1756     1.0  0.42783  0.91722  0.89966  1.0000
  S   S707      1.0  0.47430  0.94555  0.79428  1.0000
  H   H2801     1.0  0.47089  0.88147  0.97478  1.0000
  S   S708      1.0  0.47361  0.96839  0.77491  1.0000
  C   C1757     1.0  0.47486  0.84484  0.94414  1.0000
  H   H2802     1.0  0.48231  0.93585  0.88338  1.0000
  H   H2803     1.0  0.47542  0.74851  0.93595  1.0000
  H   H2804     1.0  0.43727  0.75939  0.97349  1.0000
  H   H2805     1.0  0.48588  0.66486  0.96702  1.0000
  H   H2806     1.0  0.46043  0.81620  0.91051  1.0000
  C   C1758     1.0  0.44838  0.78584  0.96838  1.0000
  H   H2807     1.0  0.46619  0.73303  0.96009  1.0000
  C   C1759     1.0  0.36802  0.90633  0.98644  1.0000
  C   C1760     1.0  0.45007  0.95590  0.65870  1.0000
  S   S709      1.0  0.39551  0.96373  0.85352  1.0000
  Fe  Fe348     1.0  0.40494  0.95485  0.86689  1.0000
  Fe  Fe349     1.0  0.46753  0.71684  0.92940  1.0000
  H   H2808     1.0  0.46183  0.93024  0.81435  1.0000
  H   H2809     1.0  0.43634  0.82346  0.97383  1.0000
  Fe  Fe350     1.0  0.40390  0.70426  0.94588  1.0000
  S   S710      1.0  0.42118  0.69496  0.94392  1.0000
  S   S711      1.0  0.39864  0.72082  0.95055  1.0000
  Fe  Fe351     1.0  0.39619  0.68525  0.94361  1.0000
  S   S712      1.0  0.41282  0.67421  0.94125  1.0000
  S   S713      1.0  0.38125  0.67896  0.94575  1.0000
  Fe  Fe352     1.0  0.46470  0.96290  0.79218  1.0000
  N   N177      1.0  0.43259  0.92707  0.89506  1.0000
  Fe  Fe353     1.0  0.41809  0.68938  0.93039  1.0000
  S   S714      1.0  0.43269  0.68709  0.91657  1.0000
  S   S715      1.0  0.39784  0.69012  0.95833  1.0000
  S   S716      1.0  0.40117  0.70005  0.93125  1.0000
  H   H2810     1.0  0.46250  0.74175  0.90402  1.0000
  H   H2811     1.0  0.42939  0.96605  0.66603  1.0000
  Fe  Fe354     1.0  0.42828  0.77776  0.93786  1.0000
  S   S717      1.0  0.42948  0.78159  0.91967  1.0000
  S   S718      1.0  0.44294  0.76854  0.94484  1.0000
  H   H2812     1.0  0.37591  0.77752  0.97562  1.0000
  H   H2813     1.0  0.45261  0.92190  0.82338  1.0000
  Fe  Fe355     1.0  0.41458  0.77464  0.92424  1.0000
  S   S719      1.0  0.41518  0.76129  0.91596  1.0000
  S   S720      1.0  0.46764  0.70201  0.94330  1.0000
  H   H2814     1.0  0.36464  0.84660  0.98319  1.0000
  C   C1761     1.0  0.40157  0.84103  0.93092  1.0000
  C   C1762     1.0  0.42208  0.68714  0.97393  1.0000
  Fe  Fe356     1.0  0.39924  0.86621  0.93745  1.0000
  C   C1763     1.0  0.48048  0.85976  0.95273  1.0000
  S   S721      1.0  0.46573  0.89716  0.95263  1.0000
  Fe  Fe357     1.0  0.46970  0.90527  0.93468  1.0000
  S   S722      1.0  0.45782  0.90919  0.92386  1.0000
  H   H2815     1.0  0.48398  0.90569  0.89357  1.0000
  Fe  Fe358     1.0  0.40293  0.88859  0.92303  1.0000
  S   S723      1.0  0.41399  0.87184  0.92642  1.0000
  S   S724      1.0  0.40540  0.89624  0.90469  1.0000
  S   S725      1.0  0.48591  0.89380  0.93088  1.0000
  C   C1764     1.0  0.42407  0.93674  0.89176  1.0000
  H   H2816     1.0  0.41690  0.93795  0.89871  1.0000
  H   H2817     1.0  0.41843  0.71391  0.96198  1.0000
  C   C1765     1.0  0.46487  0.67093  0.94776  1.0000
  C   C1766     1.0  0.37752  0.89718  0.97129  1.0000
  C   C1767     1.0  0.45111  0.89827  0.92857  1.0000
  C   C1768     1.0  0.45554  0.88852  0.93533  1.0000
  C   C1769     1.0  0.44958  0.88032  0.94041  1.0000
  C   C1770     1.0  0.43923  0.88179  0.93855  1.0000
  C   C1771     1.0  0.43512  0.89119  0.93115  1.0000
  C   C1772     1.0  0.44099  0.89950  0.92627  1.0000
  H   H2818     1.0  0.46355  0.88730  0.93676  1.0000
  H   H2819     1.0  0.41972  0.94169  0.75021  1.0000
  H   H2820     1.0  0.42733  0.89219  0.92936  1.0000
  H   H2821     1.0  0.43751  0.90700  0.92107  1.0000
  C   C1773     1.0  0.41996  0.66925  0.90942  1.0000
  H   H2822     1.0  0.38203  0.67798  0.96890  1.0000
  H   H2823     1.0  0.44528  0.93249  0.88168  1.0000
  H   H2824     1.0  0.42411  0.84163  0.97035  1.0000
  S   S726      1.0  0.39008  0.78978  0.95665  1.0000
  H   H2825     1.0  0.44734  0.98097  0.73258  1.0000
  H   H2826     1.0  0.45404  0.95952  0.66298  1.0000
  H   H2827     1.0  0.39600  0.98523  0.79541  1.0000
  C   C1774     1.0  0.40330  0.82404  0.92537  1.0000
  H   H2828     1.0  0.45132  0.76815  0.92100  1.0000
  C   C1775     1.0  0.44463  0.77472  0.95453  1.0000
  C   C1776     1.0  0.43632  0.78289  0.95881  1.0000
  C   C1777     1.0  0.43820  0.78849  0.96572  1.0000
  C   C1778     1.0  0.40730  0.94940  0.80855  1.0000
  H   H2829     1.0  0.42581  0.85057  0.95684  1.0000
  S   S727      1.0  0.39571  0.95005  0.74201  1.0000
  H   H2830     1.0  0.42846  0.78495  0.95682  1.0000
  H   H2831     1.0  0.43191  0.79515  0.96862  1.0000
  N   N178      1.0  0.46043  0.98314  0.82895  1.0000
  H   H2832     1.0  0.47148  0.92915  0.88547  1.0000
  C   C1779     1.0  0.40256  0.73212  0.94045  1.0000
  C   C1780     1.0  0.40912  0.73083  0.93014  1.0000
  C   C1781     1.0  0.41276  0.73988  0.92251  1.0000
  C   C1782     1.0  0.40988  0.75023  0.92521  1.0000
  C   C1783     1.0  0.40301  0.75157  0.93541  1.0000
  C   C1784     1.0  0.39941  0.74253  0.94301  1.0000
  H   H2833     1.0  0.41141  0.72285  0.92806  1.0000
  H   H2834     1.0  0.41791  0.73883  0.91456  1.0000
  H   H2835     1.0  0.40033  0.75961  0.93736  1.0000
  H   H2836     1.0  0.39426  0.74356  0.95093  1.0000
  C   C1785     1.0  0.44882  0.71322  0.91822  1.0000
  C   C1786     1.0  0.43757  0.71536  0.91937  1.0000
  C   C1787     1.0  0.43273  0.70745  0.91838  1.0000
  C   C1788     1.0  0.43914  0.69749  0.91591  1.0000
  C   C1789     1.0  0.45047  0.69551  0.91422  1.0000
  C   C1790     1.0  0.45532  0.70329  0.91563  1.0000
  H   H2837     1.0  0.43257  0.72308  0.92123  1.0000
  H   H2838     1.0  0.42399  0.70904  0.91953  1.0000
  H   H2839     1.0  0.45546  0.68791  0.91205  1.0000
  C   C1791     1.0  0.45584  0.92928  0.82239  1.0000
  H   H2840     1.0  0.35487  0.98028  0.68090  1.0000
  H   H2841     1.0  0.46548  0.76429  0.91464  1.0000
  H   H2842     1.0  0.44457  0.94522  0.72822  1.0000
  C   C1792     1.0  0.48731  0.68506  0.96727  1.0000
  S   S728      1.0  0.38765  0.97466  0.75928  1.0000
  N   N179      1.0  0.41078  0.98557  0.71052  1.0000
  S   S729      1.0  0.40622  0.97126  0.65718  1.0000
  C   C1793     1.0  0.38294  0.66966  0.93748  1.0000
  H   H2843     1.0  0.41958  0.91000  0.95615  1.0000
  H   H2844     1.0  0.43556  0.83213  0.94414  1.0000
  H   H2845     1.0  0.37431  0.83785  0.96700  1.0000
  H   H2846     1.0  0.37093  0.96226  0.70146  1.0000
  H   H2847     1.0  0.39682  0.66338  0.91271  1.0000
  H   H2848     1.0  0.43262  0.90346  0.94905  1.0000
  N   N180      1.0  0.45512  0.75541  0.91197  1.0000
  H   H2849     1.0  0.45090  0.96017  0.75037  1.0000
  C   C1794     1.0  0.46709  0.73126  0.96848  1.0000
  H   H2850     1.0  0.46737  0.98921  0.78746  1.0000
  Fe  Fe359     1.0  0.40396  0.78680  0.94242  1.0000
  S   S730      1.0  0.40933  0.82044  0.97241  1.0000
  C   C1795     1.0  0.43717  0.95141  0.77369  1.0000
  C   C1796     1.0  0.44813  0.95010  0.77354  1.0000
  C   C1797     1.0  0.45100  0.95441  0.78083  1.0000
  Fe  Fe360     1.0  0.39137  0.88648  0.94741  1.0000
  H   H2851     1.0  0.39223  0.96012  0.70368  1.0000
  H   H2852     1.0  0.41975  0.95036  0.73061  1.0000
  H   H2853     1.0  0.45440  0.94620  0.76750  1.0000
  H   H2854     1.0  0.45948  0.95375  0.78030  1.0000
  H   H2855     1.0  0.45601  0.79337  0.93501  1.0000
  H   H2856     1.0  0.42883  0.91471  0.96827  1.0000
  S   S731      1.0  0.38796  0.88247  0.93305  1.0000
  C   C1798     1.0  0.46105  0.66985  0.93091  1.0000
  H   H2857     1.0  0.46550  0.67645  0.92613  1.0000
  H   H2858     1.0  0.48164  0.84654  0.96710  1.0000
  H   H2859     1.0  0.43355  0.81982  0.96272  1.0000
  C   C1799     1.0  0.43921  0.72595  0.94615  1.0000
  C   C1800     1.0  0.44387  0.93470  0.69461  1.0000
  C   C1801     1.0  0.44401  0.94394  0.69810  1.0000
  C   C1802     1.0  0.43656  0.95383  0.69550  1.0000
  C   C1803     1.0  0.42920  0.95457  0.68915  1.0000
  C   C1804     1.0  0.47795  0.86305  0.94232  1.0000
  C   C1805     1.0  0.37750  0.75357  0.96865  1.0000
  H   H2860     1.0  0.43636  0.96087  0.69850  1.0000
  H   H2861     1.0  0.42368  0.96225  0.68709  1.0000
  H   H2862     1.0  0.44302  0.74650  0.91326  1.0000
  S   S732      1.0  0.40151  0.86973  0.95257  1.0000
  H   H2863     1.0  0.38921  0.83153  0.93622  1.0000
  C   C1806     1.0  0.39143  0.66276  0.92076  1.0000
  S   S733      1.0  0.47857  0.97164  0.89300  1.0000
  H   H2864     1.0  0.42984  0.94442  0.71995  1.0000
  H   H2865     1.0  0.38352  0.85828  0.95827  1.0000
  C   C1807     1.0  0.48643  0.95019  0.75102  1.0000
  S   S734      1.0  0.40232  0.95050  0.76938  1.0000
  S   S735      1.0  0.43118  0.87231  0.94619  1.0000
  C   C1808     1.0  0.39958  0.93348  0.89023  1.0000
  C   C1809     1.0  0.40381  0.92597  0.88334  1.0000
  C   C1810     1.0  0.40535  0.91459  0.88790  1.0000
  C   C1811     1.0  0.40281  0.91061  0.89937  1.0000
  C   C1812     1.0  0.39860  0.91811  0.90628  1.0000
  C   C1813     1.0  0.39695  0.92951  0.90171  1.0000
  H   H2866     1.0  0.40580  0.92894  0.87449  1.0000
  H   H2867     1.0  0.40859  0.90884  0.88250  1.0000
  H   H2868     1.0  0.39656  0.91514  0.91513  1.0000
  H   H2869     1.0  0.39365  0.93528  0.90708  1.0000
  H   H2870     1.0  0.44193  0.68214  0.93785  1.0000
  C   C1814     1.0  0.46440  0.74638  0.90907  1.0000
  C   C1815     1.0  0.45798  0.76111  0.91887  1.0000
  C   C1816     1.0  0.47548  0.92816  0.90498  1.0000
  H   H2871     1.0  0.46651  0.74032  0.91656  1.0000
  C   C1817     1.0  0.36814  0.90352  0.97671  1.0000
  H   H2872     1.0  0.41337  0.66917  0.90561  1.0000
  S   S736      1.0  0.48044  0.78648  0.92712  1.0000
  H   H2873     1.0  0.44389  0.66205  0.94510  1.0000
  C   C1818     1.0  0.44184  0.95512  0.87024  1.0000
  C   C1819     1.0  0.44558  0.95459  0.87956  1.0000
  C   C1820     1.0  0.45672  0.95287  0.87886  1.0000
  C   C1821     1.0  0.46413  0.95151  0.86896  1.0000
  Fe  Fe361     1.0  0.40360  0.98591  0.66434  1.0000
  H   H2874     1.0  0.43324  0.95666  0.87071  1.0000
  H   H2875     1.0  0.43985  0.95594  0.88714  1.0000
  H   H2876     1.0  0.47275  0.95026  0.86838  1.0000
  H   H2877     1.0  0.47305  0.85827  0.93005  1.0000
  C   C1822     1.0  0.44121  0.94124  0.81397  1.0000
  H   H2878     1.0  0.44958  0.92700  0.69667  1.0000
  C   C1823     1.0  0.42480  0.93401  0.74763  1.0000
  H   H2879     1.0  0.39161  0.96314  0.82843  1.0000
  C   C1824     1.0  0.44426  0.98132  0.74143  1.0000
  S   S737      1.0  0.38555  0.98827  0.66928  1.0000
  C   C1825     1.0  0.46158  0.80797  0.91623  1.0000
  C   C1826     1.0  0.39437  0.96072  0.82058  1.0000
  C   C1827     1.0  0.44819  0.68163  0.94236  1.0000
  H   H2880     1.0  0.46085  0.76501  0.95485  1.0000
  C   C1828     1.0  0.41196  0.84183  0.92447  1.0000
  Fe  Fe362     1.0  0.40318  0.98067  0.75347  1.0000
  Fe  Fe363     1.0  0.48414  0.95143  0.77745  1.0000
  H   H2881     1.0  0.41914  0.93758  0.72832  1.0000
  H   H2882     1.0  0.48679  0.93795  0.94664  1.0000
  C   C1829     1.0  0.43474  0.90669  0.96789  1.0000
  C   C1830     1.0  0.39723  0.83220  0.93124  1.0000
  Fe  Fe364     1.0  0.41660  0.95838  0.76253  1.0000
  C   C1831     1.0  0.37942  0.75604  0.98578  1.0000
  H   H2883     1.0  0.40389  0.95162  0.79260  1.0000
  H   H2884     1.0  0.45944  0.75546  0.92682  1.0000
  C   C1832     1.0  0.41367  0.82476  0.91897  1.0000
  C   C1833     1.0  0.38825  0.96548  0.81238  1.0000
  S   S738      1.0  0.40532  0.89420  0.93702  1.0000
  C   C1834     1.0  0.39159  0.84666  0.97618  1.0000
  Fe  Fe365     1.0  0.47044  0.71273  0.95263  1.0000
  H   H2885     1.0  0.38072  0.97124  0.73968  1.0000
  H   H2886     1.0  0.42072  0.95637  0.78239  1.0000
  S   S739      1.0  0.46831  0.72806  0.93945  1.0000
  H   H2887     1.0  0.48078  0.68972  0.96272  1.0000
  C   C1835     1.0  0.46040  0.95186  0.85972  1.0000
  Fe  Fe366     1.0  0.41492  0.68037  0.95481  1.0000
  C   C1836     1.0  0.46185  0.98275  0.74262  1.0000
  H   H2888     1.0  0.40765  0.98817  0.78483  1.0000
  H   H2889     1.0  0.46833  0.80228  0.91182  1.0000
  C   C1837     1.0  0.38316  0.96878  0.73185  1.0000
  H   H2890     1.0  0.43171  0.66258  0.92506  1.0000
  H   H2891     1.0  0.43058  0.93041  0.91098  1.0000
  H   H2892     1.0  0.42296  0.89414  0.98414  1.0000
  H   H2893     1.0  0.37360  0.98354  0.72356  1.0000
  H   H2894     1.0  0.47764  0.93631  0.90318  1.0000
  H   H2895     1.0  0.47253  0.67370  0.96875  1.0000
  N   N181      1.0  0.43804  0.83553  0.95849  1.0000
  H   H2896     1.0  0.44062  0.84439  0.94158  1.0000
  C   C1838     1.0  0.43888  0.82397  0.96477  1.0000
  C   C1839     1.0  0.48328  0.95261  0.73268  1.0000
  H   H2897     1.0  0.43787  0.90406  0.97560  1.0000
  C   C1840     1.0  0.47503  0.85565  0.93810  1.0000
  H   H2898     1.0  0.39411  0.88862  0.97161  1.0000
  H   H2899     1.0  0.38844  0.83783  0.96129  1.0000
  H   H2900     1.0  0.34677  0.96984  0.71128  1.0000
  H   H2901     1.0  0.45486  0.97368  0.76424  1.0000
  H   H2902     1.0  0.44521  0.95647  0.82200  1.0000
  Fe  Fe367     1.0  0.47448  0.96964  0.70674  1.0000
  H   H2903     1.0  0.44328  0.93619  0.84060  1.0000
  C   C1841     1.0  0.43911  0.94329  0.73647  1.0000
  N   N182      1.0  0.35624  0.96720  0.69535  1.0000
  C   C1842     1.0  0.43703  0.92906  0.90349  1.0000
  C   C1843     1.0  0.46929  0.92343  0.98648  1.0000
  H   H2904     1.0  0.41631  0.89049  0.97564  1.0000
  H   H2905     1.0  0.36889  0.75287  0.97221  1.0000
  H   H2906     1.0  0.38183  0.66454  0.96802  1.0000
  H   H2907     1.0  0.45621  0.94750  0.82808  1.0000
  H   H2908     1.0  0.44328  0.84094  0.97007  1.0000
  H   H2909     1.0  0.45666  0.95094  0.65335  1.0000
  C   C1844     1.0  0.44863  0.97764  0.75919  1.0000
  C   C1845     1.0  0.36487  0.95858  0.70000  1.0000
  H   H2910     1.0  0.44531  0.84920  0.95629  1.0000
  H   H2911     1.0  0.44353  0.92195  0.90615  1.0000
  H   H2912     1.0  0.44170  0.90825  0.96084  1.0000
  H   H2913     1.0  0.43998  0.98478  0.90089  1.0000
  H   H2914     1.0  0.47701  0.83336  0.95943  1.0000
  H   H2915     1.0  0.47764  0.94860  0.65541  1.0000
  H   H2916     1.0  0.45060  0.75909  0.89640  1.0000
  H   H2917     1.0  0.37095  0.66117  0.94898  1.0000
  H   H2918     1.0  0.45744  0.95034  0.81347  1.0000
  H   H2919     1.0  0.36365  0.68559  0.96614  1.0000
  C   C1846     1.0  0.42672  0.84179  0.96135  1.0000
  H   H2920     1.0  0.44955  0.83112  0.94411  1.0000
  H   H2921     1.0  0.34178  0.96821  0.69005  1.0000
  H   H2922     1.0  0.43417  0.88138  0.96539  1.0000
  H   H2923     1.0  0.48515  0.92304  0.87922  1.0000
  H   H2924     1.0  0.41461  0.94310  0.80705  1.0000
  H   H2925     1.0  0.39770  0.75316  0.97002  1.0000
  C   C1847     1.0  0.39895  0.80390  0.97576  1.0000
  H   H2926     1.0  0.47547  0.96007  0.66869  1.0000
  N   N183      1.0  0.45625  0.67108  0.94239  1.0000
  Fe  Fe368     1.0  0.45203  0.98248  0.70385  1.0000
  C   C1848     1.0  0.43768  0.88778  0.96659  1.0000
  H   H2927     1.0  0.40533  0.82160  0.95123  1.0000
  H   H2928     1.0  0.44554  0.71837  0.94493  1.0000
  C   C1849     1.0  0.44106  0.83578  0.94654  1.0000
  Fe  Fe369     1.0  0.48003  0.79481  0.94049  1.0000
  H   H2929     1.0  0.44330  0.73218  0.94669  1.0000
  H   H2930     1.0  0.46983  0.74726  0.96701  1.0000
  S   S740      1.0  0.47585  0.81039  0.96372  1.0000
  H   H2931     1.0  0.42708  0.94447  0.88888  1.0000
  S   S741      1.0  0.41421  0.76981  0.94232  1.0000
  H   H2932     1.0  0.35627  0.97856  0.70470  1.0000
  S   S742      1.0  0.48460  0.86869  0.95808  1.0000
  H   H2933     1.0  0.39482  0.67671  0.92423  1.0000
  C   C1850     1.0  0.40493  0.98457  0.79376  1.0000
  H   H2934     1.0  0.45406  0.83591  0.95943  1.0000
  N   N184      1.0  0.39971  0.86774  0.89961  1.0000
  C   C1851     1.0  0.39640  0.87629  0.89014  1.0000
  C   C1852     1.0  0.39819  0.85698  0.89917  1.0000
  C   C1853     1.0  0.39295  0.87084  0.90997  1.0000
  C   C1854     1.0  0.41128  0.86689  0.89920  1.0000
  H   H2935     1.0  0.38767  0.87726  0.89025  1.0000
  H   H2936     1.0  0.40129  0.87425  0.88214  1.0000
  H   H2937     1.0  0.39751  0.88448  0.89029  1.0000
  H   H2938     1.0  0.40047  0.85042  0.90633  1.0000
  H   H2939     1.0  0.38956  0.85734  0.89939  1.0000
  H   H2940     1.0  0.40328  0.85428  0.89153  1.0000
  H   H2941     1.0  0.39547  0.86480  0.91730  1.0000
  H   H2942     1.0  0.38419  0.87122  0.91077  1.0000
  H   H2943     1.0  0.39364  0.87907  0.91041  1.0000
  H   H2944     1.0  0.41405  0.86055  0.90623  1.0000
  H   H2945     1.0  0.41268  0.87484  0.89964  1.0000
  H   H2946     1.0  0.41663  0.86464  0.89146  1.0000
  C   C1855     1.0  0.45086  0.66188  0.94850  1.0000
  H   H2947     1.0  0.43305  0.92069  0.73323  1.0000
  H   H2948     1.0  0.37697  0.86483  0.96965  1.0000
  H   H2949     1.0  0.35271  0.67905  0.97450  1.0000
  C   C1856     1.0  0.42547  0.71534  0.95500  1.0000
  S   S743      1.0  0.41413  0.96819  0.86367  1.0000
  H   H2950     1.0  0.40570  0.77134  0.98524  1.0000
  N   N185      1.0  0.36811  0.67198  0.97924  1.0000
  S   S744      1.0  0.37537  0.97382  0.65476  1.0000
  H   H2951     1.0  0.38267  0.74507  0.96990  1.0000
  C   C1857     1.0  0.42579  0.90212  0.95630  1.0000
  C   C1858     1.0  0.47492  0.97524  0.65640  1.0000
  S   S745      1.0  0.44466  0.95534  0.84843  1.0000
  H   H2952     1.0  0.48303  0.75860  0.96439  1.0000
  H   H2953     1.0  0.42232  0.71802  0.94729  1.0000
  S   S746      1.0  0.41897  0.96790  0.83751  1.0000
  H   H2954     1.0  0.42105  0.91831  0.90697  1.0000
  Fe  Fe370     1.0  0.41526  0.87695  0.94109  1.0000
  H   H2955     1.0  0.43398  0.90973  0.90227  1.0000
  C   C1859     1.0  0.47932  0.66916  0.97296  1.0000
  S   S747      1.0  0.39368  0.85089  0.93864  1.0000
  H   H2956     1.0  0.44639  0.97689  0.83044  1.0000
  H   H2957     1.0  0.44688  0.94200  0.80574  1.0000
  H   H2958     1.0  0.44549  0.95012  0.66514  1.0000
  H   H2959     1.0  0.36320  0.67248  0.96455  1.0000
  S   S748      1.0  0.42536  0.66883  0.96612  1.0000
  S   S749      1.0  0.41154  0.94613  0.82886  1.0000
  H   H2960     1.0  0.39991  0.81719  0.92577  1.0000
  Fe  Fe371     1.0  0.38839  0.97716  0.68532  1.0000
  H   H2961     1.0  0.39424  0.83893  0.98212  1.0000
  C   C1860     1.0  0.36157  0.67753  0.97079  1.0000
  H   H2962     1.0  0.36701  0.97793  0.68579  1.0000
  C   C1861     1.0  0.39412  0.79734  0.97246  1.0000
  S   S750      1.0  0.37809  0.98180  0.70102  1.0000
  H   H2963     1.0  0.46665  0.92979  0.90511  1.0000
  H   H2964     1.0  0.42582  0.96367  0.79554  1.0000
  H   H2965     1.0  0.46854  0.97944  0.74717  1.0000
  H   H2966     1.0  0.39677  0.80991  0.94539  1.0000
  H   H2967     1.0  0.41615  0.67357  0.91635  1.0000
  S   S751      1.0  0.47336  0.98355  0.66568  1.0000
  H   H2968     1.0  0.36092  0.90635  0.97332  1.0000
  H   H2969     1.0  0.46735  0.96806  0.83909  1.0000
  C   C1862     1.0  0.40218  0.81488  0.95717  1.0000
  C   C1863     1.0  0.48116  0.75380  0.93289  1.0000
  Fe  Fe372     1.0  0.48469  0.97233  0.78283  1.0000
  C   C1864     1.0  0.47733  0.84157  0.95458  1.0000
  H   H2970     1.0  0.47569  0.97587  0.81963  1.0000
  C   C1865     1.0  0.44295  0.95983  0.78841  1.0000
  H   H2971     1.0  0.36559  0.96851  0.67864  1.0000
  C   C1866     1.0  0.44142  0.92527  0.88530  1.0000
  C   C1867     1.0  0.44543  0.75088  0.91819  1.0000
  H   H2972     1.0  0.48125  0.94943  0.72679  1.0000
  H   H2973     1.0  0.44791  0.91793  0.88746  1.0000
  Fe  Fe373     1.0  0.47398  0.90888  0.95519  1.0000
  C   C1868     1.0  0.40387  0.95260  0.81869  1.0000
  C   C1869     1.0  0.45453  0.77157  0.95782  1.0000
  S   S752      1.0  0.45174  0.79426  0.97481  1.0000
  H   H2974     1.0  0.47653  0.92376  0.91345  1.0000
  Fe  Fe374     1.0  0.41793  0.79769  0.92187  1.0000
  S   S753      1.0  0.42055  0.94630  0.67678  1.0000
  C   C1870     1.0  0.42922  0.94543  0.68537  1.0000
  C   C1871     1.0  0.42915  0.95600  0.78183  1.0000
  C   C1872     1.0  0.37976  0.67014  0.97382  1.0000
  S   S754      1.0  0.40623  0.97633  0.68096  1.0000
  Fe  Fe375     1.0  0.39779  0.95948  0.75318  1.0000
  H   H2975     1.0  0.44491  0.88871  0.95971  1.0000
  Fe  Fe376     1.0  0.42647  0.95874  0.85183  1.0000
  H   H2976     1.0  0.42920  0.71773  0.97362  1.0000
  H   H2977     1.0  0.42093  0.83824  0.95925  1.0000
  H   H2978     1.0  0.41911  0.92889  0.74796  1.0000
  H   H2979     1.0  0.43581  0.72916  0.93858  1.0000
  C   C1873     1.0  0.42484  0.94249  0.72846  1.0000
  H   H2980     1.0  0.43826  0.75745  0.92051  1.0000
  H   H2981     1.0  0.39876  0.94753  0.71997  1.0000
  C   C1874     1.0  0.39020  0.95859  0.73088  1.0000
  C   C1875     1.0  0.39328  0.95540  0.72076  1.0000
  S   S755      1.0  0.40296  0.79114  0.92465  1.0000
  H   H2982     1.0  0.43258  0.94518  0.83417  1.0000
  H   H2983     1.0  0.42443  0.91552  0.89348  1.0000
  H   H2984     1.0  0.46614  0.95074  0.85207  1.0000
  S   S756      1.0  0.47608  0.91828  0.93761  1.0000
  S   S757      1.0  0.41275  0.96635  0.74601  1.0000
  H   H2985     1.0  0.43132  0.70728  0.95472  1.0000
  Fe  Fe377     1.0  0.39376  0.96634  0.77491  1.0000
  N   N186      1.0  0.42963  0.89835  0.96673  1.0000
  H   H2986     1.0  0.42591  0.74031  0.95839  1.0000
  H   H2987     1.0  0.46370  0.96100  0.75215  1.0000
  C   C1876     1.0  0.40419  0.98496  0.81253  1.0000
  H   H2988     1.0  0.43447  0.95123  0.73877  1.0000
  H   H2989     1.0  0.43760  0.97673  0.74483  1.0000
  C   C1877     1.0  0.47756  0.76516  0.93273  1.0000
  C   C1878     1.0  0.47038  0.73713  0.98327  1.0000
  C   C1879     1.0  0.45641  0.77716  0.96469  1.0000
  H   H2990     1.0  0.46407  0.70171  0.91452  1.0000
  H   H2991     1.0  0.40613  0.97054  0.72013  1.0000
  H   H2992     1.0  0.42907  0.97795  0.65483  1.0000
  C   C1880     1.0  0.47915  0.91084  0.89963  1.0000
  H   H2993     1.0  0.45977  0.76692  0.89688  1.0000
  C   C1881     1.0  0.41794  0.83379  0.91834  1.0000
  C   C1882     1.0  0.38248  0.97267  0.71254  1.0000
  Fe  Fe378     1.0  0.48629  0.72318  0.93332  1.0000
  S   S758      1.0  0.45443  0.72326  0.91989  1.0000
  H   H2994     1.0  0.47631  0.66271  0.97998  1.0000
  H   H2995     1.0  0.46411  0.77475  0.96713  1.0000
  C   C1883     1.0  0.39171  0.96226  0.80223  1.0000
  N   N187      1.0  0.43176  0.93646  0.73647  1.0000
  S   S759      1.0  0.47134  0.83570  0.93850  1.0000
  C   C1884     1.0  0.42235  0.73392  0.95731  1.0000
  C   C1885     1.0  0.42464  0.69364  0.97940  1.0000
  H   H2996     1.0  0.44735  0.81903  0.96307  1.0000
  H   H2997     1.0  0.41555  0.73243  0.96456  1.0000
  H   H2998     1.0  0.38082  0.97163  0.81391  1.0000
  H   H2999     1.0  0.48710  0.92442  0.95528  1.0000
  C   C1886     1.0  0.37359  0.77188  0.97198  1.0000
  H   H3000     1.0  0.42205  0.89592  0.95508  1.0000
  S   S760      1.0  0.46313  0.71101  0.97067  1.0000
  H   H3001     1.0  0.44159  0.97362  0.76306  1.0000
  C   C1887     1.0  0.45741  0.96493  0.74715  1.0000
  C   C1888     1.0  0.43548  0.71939  0.96593  1.0000
  H   H3002     1.0  0.41403  0.90461  0.97648  1.0000
  H   H3003     1.0  0.48305  0.87878  0.97971  1.0000
  H   H3004     1.0  0.41541  0.84854  0.92430  1.0000
  H   H3005     1.0  0.44367  0.92763  0.72494  1.0000
  N   N188      1.0  0.44700  0.93925  0.82288  1.0000
  S   S761      1.0  0.37682  0.89371  0.95930  1.0000
  H   H3006     1.0  0.47183  0.74950  0.90431  1.0000
  C   C1889     1.0  0.46584  0.72110  0.97551  1.0000
  H   H3007     1.0  0.44561  0.77007  0.90358  1.0000
  H   H3008     1.0  0.43534  0.93072  0.83489  1.0000
  C   C1890     1.0  0.45167  0.94881  0.82156  1.0000
  C   C1891     1.0  0.40127  0.95426  0.80033  1.0000
  N   N189      1.0  0.48336  0.67669  0.97680  1.0000
  C   C1892     1.0  0.43925  0.93771  0.83364  1.0000
  H   H3009     1.0  0.48491  0.94194  0.84088  1.0000
  Fe  Fe379     1.0  0.48513  0.95163  0.80082  1.0000
  H   H3010     1.0  0.46748  0.68710  0.98073  1.0000
  C   C1893     1.0  0.48373  0.94616  0.74335  1.0000
  Fe  Fe380     1.0  0.40963  0.95466  0.84249  1.0000
  Fe  Fe381     1.0  0.46893  0.97590  0.68387  1.0000
  C   C1894     1.0  0.44924  0.95390  0.86029  1.0000
  H   H3011     1.0  0.45290  0.98232  0.81648  1.0000
  S   S762      1.0  0.42138  0.81425  0.91199  1.0000
  Fe  Fe382     1.0  0.48570  0.69875  0.93695  1.0000
  N   N190      1.0  0.38065  0.76072  0.97380  1.0000
  H   H3012     1.0  0.45206  0.68879  0.93816  1.0000
  H   H3013     1.0  0.42974  0.92961  0.75394  1.0000
  H   H3014     1.0  0.42535  0.67441  0.90319  1.0000
  S   S763      1.0  0.38420  0.96851  0.79189  1.0000
  C   C1895     1.0  0.41337  0.98775  0.72001  1.0000
  C   C1896     1.0  0.47574  0.96388  0.66006  1.0000
  H   H3015     1.0  0.46125  0.96394  0.73856  1.0000
  C   C1897     1.0  0.46925  0.73930  0.97239  1.0000
  S   S764      1.0  0.40855  0.97344  0.76940  1.0000
  S   S765      1.0  0.46619  0.91745  0.96919  1.0000
  S   S766      1.0  0.46855  0.98572  0.69577  1.0000
  C   C1898     1.0  0.37760  0.85756  0.96633  1.0000
  C   C1899     1.0  0.43656  0.93547  0.68816  1.0000
  C   C1900     1.0  0.43880  0.67369  0.97611  1.0000
  H   H3016     1.0  0.44626  0.81071  0.90474  1.0000
  H   H3017     1.0  0.39329  0.76501  0.95976  1.0000
  H   H3018     1.0  0.41877  0.73745  0.94989  1.0000
  H   H3019     1.0  0.38439  0.82966  0.97473  1.0000
  H   H3020     1.0  0.44907  0.67784  0.98409  1.0000
  C   C1901     1.0  0.39355  0.79940  0.96144  1.0000
  H   H3021     1.0  0.36959  0.85820  0.96458  1.0000
  H   H3022     1.0  0.45469  0.67026  0.92653  1.0000
  C   C1902     1.0  0.36114  0.97376  0.68472  1.0000
  H   H3023     1.0  0.43970  0.72529  0.96691  1.0000
  H   H3024     1.0  0.43829  0.92395  0.87871  1.0000
  H   H3025     1.0  0.43665  0.92835  0.68529  1.0000
  C   C1903     1.0  0.40315  0.81253  0.96810  1.0000
  S   S767      1.0  0.47465  0.96858  0.80000  1.0000
  H   H3026     1.0  0.38504  0.66646  0.97992  1.0000
  H   H3027     1.0  0.44567  0.78976  0.93104  1.0000
  Fe  Fe383     1.0  0.40750  0.96168  0.67436  1.0000
  C   C1904     1.0  0.44830  0.80259  0.91044  1.0000
  H   H3028     1.0  0.43494  0.80874  0.92866  1.0000
  C   C1905     1.0  0.45326  0.79294  0.92778  1.0000
  H   H3029     1.0  0.45958  0.78669  0.92371  1.0000
  H   H3030     1.0  0.39530  0.98527  0.81482  1.0000
  H   H3031     1.0  0.44059  0.88452  0.97442  1.0000
  C   C1906     1.0  0.42902  0.67706  0.97249  1.0000
  H   H3032     1.0  0.39134  0.79037  0.97831  1.0000
  H   H3033     1.0  0.44110  0.81988  0.92027  1.0000
  H   H3034     1.0  0.44099  0.79902  0.91304  1.0000
  S   S768      1.0  0.46471  0.80700  0.94553  1.0000
  H   H3035     1.0  0.44485  0.81254  0.93319  1.0000
  N   N191      1.0  0.45147  0.80378  0.92008  1.0000
  C   C1907     1.0  0.44273  0.81160  0.92581  1.0000
  H   H3036     1.0  0.46443  0.80879  0.92322  1.0000
  C   C1908     1.0  0.43203  0.96017  0.78924  1.0000
  H   H3037     1.0  0.34459  0.95687  0.70137  1.0000
  H   H3038     1.0  0.43481  0.98750  0.91450  1.0000
  C   C1909     1.0  0.43454  0.97121  0.65950  1.0000
  H   H3039     1.0  0.36937  0.95291  0.69434  1.0000
  H   H3040     1.0  0.39978  0.80205  0.98415  1.0000
  Fe  Fe384     1.0  0.40577  0.97627  0.84963  1.0000
  S   S769      1.0  0.48102  0.78589  0.95776  1.0000
  C   C1910     1.0  0.37912  0.97571  0.72274  1.0000
  N   N192      1.0  0.45304  0.97666  0.74759  1.0000
  S   S770      1.0  0.44656  0.96628  0.79665  1.0000
  H   H3041     1.0  0.37432  0.77567  0.96301  1.0000
  C   C1911     1.0  0.39730  0.80833  0.95388  1.0000
  H   H3042     1.0  0.34402  0.98116  0.69990  1.0000
  H   H3043     1.0  0.40929  0.97167  0.70547  1.0000
  H   H3044     1.0  0.46931  0.67761  0.94321  1.0000
  H   H3045     1.0  0.36489  0.77175  0.97571  1.0000
  H   H3046     1.0  0.48054  0.90611  0.90793  1.0000
  S   S771      1.0  0.45176  0.97404  0.69106  1.0000
  H   H3047     1.0  0.47546  0.89270  0.97631  1.0000
  C   C1912     1.0  0.44548  0.84060  0.96122  1.0000
  H   H3048     1.0  0.44698  0.74488  0.92591  1.0000
  C   C1913     1.0  0.38204  0.83771  0.96906  1.0000
  C   C1914     1.0  0.48761  0.66872  0.91670  1.0000
  C   C1915     1.0  0.48002  0.84905  0.95890  1.0000
  H   H3049     1.0  0.37835  0.75687  0.95959  1.0000
  H   H3050     1.0  0.39121  0.85369  0.97975  1.0000
  H   H3051     1.0  0.41450  0.68976  0.97119  1.0000
  C   C1916     1.0  0.47394  0.91717  0.97843  1.0000
  C   C1917     1.0  0.42032  0.89681  0.97615  1.0000
  Fe  Fe385     1.0  0.47811  0.98593  0.87842  1.0000
  H   H3052     1.0  0.46545  0.98213  0.73385  1.0000
  C   C1918     1.0  0.37676  0.66158  0.94116  1.0000
  C   C1919     1.0  0.39027  0.67028  0.92724  1.0000
  C   C1920     1.0  0.45440  0.97768  0.82476  1.0000
  H   H3053     1.0  0.44417  0.66583  0.97508  1.0000
  C   C1921     1.0  0.47094  0.98406  0.82115  1.0000
  H   H3054     1.0  0.40879  0.97563  0.79524  1.0000
  C   C1922     1.0  0.39211  0.76141  0.96879  1.0000
  N   N193      1.0  0.38099  0.84707  0.97401  1.0000
  H   H3055     1.0  0.44161  0.71151  0.96543  1.0000
  S   S772      1.0  0.48690  0.94202  0.76433  1.0000
  C   C1923     1.0  0.38686  0.89358  0.97573  1.0000
  H   H3056     1.0  0.44394  0.68260  0.95088  1.0000
  H   H3057     1.0  0.36149  0.95351  0.70806  1.0000
  Fe  Fe386     1.0  0.48243  0.88653  0.94910  1.0000
  H   H3058     1.0  0.39807  0.84688  0.96847  1.0000
  C   C1924     1.0  0.35055  0.97450  0.70315  1.0000
  H   H3059     1.0  0.35248  0.95644  0.68762  1.0000
  H   H3060     1.0  0.42149  0.98283  0.72141  1.0000
  C   C1925     1.0  0.41158  0.97362  0.71225  1.0000
  H   H3061     1.0  0.46687  0.66179  0.93062  1.0000
  C   C1926     1.0  0.34842  0.96195  0.69354  1.0000
  C   C1927     1.0  0.47444  0.68225  0.98462  1.0000
  H   H3062     1.0  0.40729  0.98566  0.72777  1.0000
  H   H3063     1.0  0.44056  0.66356  0.91166  1.0000
  H   H3064     1.0  0.45901  0.96918  0.82398  1.0000
  H   H3065     1.0  0.39476  0.76677  0.97248  1.0000
  H   H3066     1.0  0.43836  0.97508  0.66369  1.0000
  H   H3067     1.0  0.45476  0.97552  0.84592  1.0000
  C   C1928     1.0  0.46249  0.97648  0.83979  1.0000
  C   C1929     1.0  0.48500  0.77208  0.92892  1.0000
  H   H3068     1.0  0.45171  0.75959  0.98236  1.0000
  H   H3069     1.0  0.42446  0.75675  0.98183  1.0000
  N   N194      1.0  0.42611  0.65798  0.91323  1.0000
  H   H3070     1.0  0.36839  0.68699  0.98311  1.0000
  H   H3071     1.0  0.46142  0.67203  0.95638  1.0000
  H   H3072     1.0  0.42793  0.76954  0.98064  1.0000
  H   H3073     1.0  0.48563  0.67183  0.90865  1.0000
  C   C1930     1.0  0.37275  0.84633  0.98450  1.0000
  H   H3074     1.0  0.46716  0.98022  0.84320  1.0000
  C   C1931     1.0  0.38668  0.89629  0.98565  1.0000
  C   C1932     1.0  0.47469  0.88404  0.98008  1.0000
  H   H3075     1.0  0.36623  0.65606  0.97915  1.0000
  C   C1933     1.0  0.43497  0.65859  0.91787  1.0000
  H   H3076     1.0  0.40841  0.97612  0.81437  1.0000
  C   C1934     1.0  0.36523  0.66127  0.98506  1.0000
  H   H3077     1.0  0.47882  0.78256  0.98476  1.0000
  H   H3078     1.0  0.48715  0.95468  0.85097  1.0000
  H   H3079     1.0  0.47602  0.98752  0.82434  1.0000
  H   H3080     1.0  0.47736  0.80176  0.98561  1.0000
  H   H3081     1.0  0.42410  0.98061  0.79987  1.0000
  S   S773      1.0  0.48544  0.71294  0.92213  1.0000
  H   H3082     1.0  0.40600  0.98909  0.81811  1.0000
  H   H3083     1.0  0.39359  0.98916  0.71727  1.0000
  H   H3084     1.0  0.43646  0.65707  0.89721  1.0000
  H   H3085     1.0  0.42166  0.98784  0.75591  1.0000
  H   H3086     1.0  0.41652  0.98810  0.69289  1.0000
  H   H3087     1.0  0.41903  0.70118  0.98081  1.0000
  H   H3088     1.0  0.44673  0.74206  0.98387  1.0000
  C   C1935     1.0  0.46683  0.71896  0.98644  1.0000
  H   H3089     1.0  0.44587  0.98642  0.75982  1.0000
  H   H3090     1.0  0.42699  0.98464  0.70053  1.0000
  C   C1936     1.0  0.44157  0.68046  0.98121  1.0000
  H   H3091     1.0  0.43249  0.95380  0.65338  1.0000
  H   H3092     1.0  0.48988  0.17742  0.02856  1.0000
  C   C1937     1.0  0.49028  0.98982  0.24241  1.0000
  S   S774      1.0  0.49637  0.05421  0.26828  1.0000
  S   S775      1.0  0.49384  0.04708  0.12040  1.0000
  C   C1938     1.0  0.49742  0.01047  0.20663  1.0000
  H   H3093     1.0  0.48972  0.99184  0.26265  1.0000
  S   S776      1.0  0.49800  0.04331  0.29898  1.0000
  H   H3094     1.0  0.49232  0.08855  0.11406  1.0000
  H   H3095     1.0  0.49542  0.27923  0.99252  1.0000
  C   C1939     1.0  0.51186  0.06631  0.12179  1.0000
  S   S777      1.0  0.50022  0.31717  0.98851  1.0000
  N   N195      1.0  0.50720  0.07614  0.11408  1.0000
  C   C1940     1.0  0.50547  0.99767  0.19443  1.0000
  H   H3096     1.0  0.51349  0.00934  0.19620  1.0000
  C   C1941     1.0  0.49621  0.08121  0.11967  1.0000
  H   H3097     1.0  0.49703  0.00569  0.24651  1.0000
  C   C1942     1.0  0.49597  0.99361  0.19768  1.0000
  C   C1943     1.0  0.48811  0.00606  0.21025  1.0000
  C   C1944     1.0  0.50647  0.07288  0.10426  1.0000
  H   H3098     1.0  0.51088  0.09173  0.10482  1.0000
  C   C1945     1.0  0.48868  0.28627  0.99033  1.0000
  H   H3099     1.0  0.49079  0.07527  0.12258  1.0000
  S   S778      1.0  0.49789  0.02200  0.21095  1.0000
  C   C1946     1.0  0.50623  0.00602  0.19896  1.0000
  H   H3100     1.0  0.49143  0.99247  0.23327  1.0000
  H   H3101     1.0  0.49644  0.08380  0.12710  1.0000
  H   H3102     1.0  0.50336  0.08013  0.09806  1.0000
  Fe  Fe387     1.0  0.48881  0.05422  0.28617  1.0000
  H   H3103     1.0  0.52020  0.06228  0.11794  1.0000
  H   H3104     1.0  0.49536  0.01746  0.16415  1.0000
  H   H3105     1.0  0.50385  0.99204  0.05532  1.0000
  H   H3106     1.0  0.49231  0.05616  0.16797  1.0000
  H   H3107     1.0  0.51452  0.06859  0.10007  1.0000
  H   H3108     1.0  0.51216  0.99458  0.18818  1.0000
  C   C1947     1.0  0.48890  0.00815  0.24438  1.0000
  Fe  Fe388     1.0  0.49065  0.05688  0.30813  1.0000
  H   H3109     1.0  0.49223  0.15283  0.07942  1.0000
  H   H3110     1.0  0.49021  0.15055  0.06159  1.0000
  H   H3111     1.0  0.49780  0.04568  0.24956  1.0000
  H   H3112     1.0  0.51500  0.08678  0.11781  1.0000
  H   H3113     1.0  0.49057  0.02146  0.18725  1.0000
  H   H3114     1.0  0.49255  0.00752  0.17681  1.0000
  C   C1948     1.0  0.48872  0.01419  0.17060  1.0000
  C   C1949     1.0  0.51423  0.08418  0.11060  1.0000
  H   H3115     1.0  0.49022  0.01140  0.23528  1.0000
  H   H3116     1.0  0.51227  0.06842  0.12942  1.0000
  H   H3117     1.0  0.52257  0.08064  0.10628  1.0000
  S   S779      1.0  0.49965  0.06174  0.31782  1.0000
  S   S780      1.0  0.48999  0.05996  0.14560  1.0000
  H   H3118     1.0  0.49293  0.03178  0.17483  1.0000
  H   H3119     1.0  0.50678  0.06004  0.12451  1.0000
  H   H3120     1.0  0.50084  0.06720  0.10648  1.0000
  C   C1950     1.0  0.48986  0.05107  0.25122  1.0000
  H   H3121     1.0  0.48802  0.07931  0.07056  1.0000
  C   C1951     1.0  0.49786  0.03925  0.35212  1.0000
  S   S781      1.0  0.50167  0.03247  0.39336  1.0000
  C   C1952     1.0  0.67232  0.99562  0.50635  1.0000
  N   N196      1.0  0.50740  0.99907  0.40882  1.0000
  H   H3122     1.0  0.54968  0.05371  0.55686  1.0000
  Fe  Fe389     1.0  0.50214  0.04977  0.39296  1.0000
  S   S782      1.0  0.51801  0.05195  0.39486  1.0000
  S   S783      1.0  0.49610  0.03938  0.59858  1.0000
  C   C1953     1.0  0.69075  0.00472  0.45878  1.0000
  H   H3123     1.0  0.56263  0.07627  0.41276  1.0000
  H   H3124     1.0  0.59733  0.02944  0.45512  1.0000
  Fe  Fe390     1.0  0.58321  0.04617  0.53542  1.0000
  S   S784      1.0  0.57155  0.05166  0.52412  1.0000
  S   S785      1.0  0.59386  0.05770  0.53374  1.0000
  Fe  Fe391     1.0  0.57906  0.02326  0.54309  1.0000
  S   S786      1.0  0.56796  0.02663  0.53160  1.0000
  S   S787      1.0  0.58036  0.00676  0.55474  1.0000
  Fe  Fe392     1.0  0.57988  0.03565  0.51913  1.0000
  S   S788      1.0  0.58560  0.03662  0.50088  1.0000
  Fe  Fe393     1.0  0.56064  0.04218  0.53783  1.0000
  S   S789      1.0  0.59195  0.03048  0.52988  1.0000
  S   S790      1.0  0.57140  0.03847  0.54981  1.0000
  Fe  Fe394     1.0  0.54413  0.04128  0.44460  1.0000
  S   S791      1.0  0.54860  0.02346  0.45276  1.0000
  S   S792      1.0  0.52722  0.04864  0.44140  1.0000
  Fe  Fe395     1.0  0.56586  0.04540  0.44460  1.0000
  S   S793      1.0  0.57222  0.02787  0.45247  1.0000
  S   S794      1.0  0.57559  0.05813  0.44148  1.0000
  Fe  Fe396     1.0  0.56469  0.02391  0.44093  1.0000
  S   S795      1.0  0.57227  0.01003  0.43229  1.0000
  Fe  Fe397     1.0  0.55562  0.02922  0.46351  1.0000
  S   S796      1.0  0.55379  0.02223  0.48172  1.0000
  S   S797      1.0  0.55981  0.04136  0.43191  1.0000
  S   S798      1.0  0.54970  0.04709  0.45651  1.0000
  H   H3125     1.0  0.49905  0.03108  0.45665  1.0000
  H   H3126     1.0  0.54011  0.02729  0.57090  1.0000
  C   C1954     1.0  0.50961  0.02130  0.43945  1.0000
  H   H3127     1.0  0.51439  0.00258  0.64713  1.0000
  Fe  Fe398     1.0  0.63583  0.03968  0.44425  1.0000
  S   S799      1.0  0.63392  0.02913  0.46128  1.0000
  S   S800      1.0  0.62606  0.03683  0.43392  1.0000
  Fe  Fe399     1.0  0.65463  0.04752  0.44707  1.0000
  S   S801      1.0  0.65405  0.03736  0.46427  1.0000
  S   S802      1.0  0.66814  0.05658  0.43896  1.0000
  Fe  Fe400     1.0  0.65207  0.02427  0.45741  1.0000
  S   S803      1.0  0.66056  0.00654  0.46069  1.0000
  Fe  Fe401     1.0  0.63602  0.04350  0.46615  1.0000
  S   S804      1.0  0.62622  0.04886  0.48170  1.0000
  S   S805      1.0  0.65395  0.03382  0.44003  1.0000
  S   S806      1.0  0.63659  0.05466  0.44934  1.0000
  Fe  Fe402     1.0  0.67600  0.04848  0.52458  1.0000
  S   S807      1.0  0.68165  0.04955  0.50639  1.0000
  S   S808      1.0  0.68787  0.04868  0.53414  1.0000
  Fe  Fe403     1.0  0.65566  0.04022  0.52602  1.0000
  S   S809      1.0  0.66016  0.04022  0.50803  1.0000
  S   S810      1.0  0.64202  0.03209  0.53674  1.0000
  Fe  Fe404     1.0  0.67724  0.03326  0.51025  1.0000
  S   S811      1.0  0.68865  0.01830  0.50500  1.0000
  Fe  Fe405     1.0  0.66401  0.05657  0.50614  1.0000
  S   S812      1.0  0.65878  0.06998  0.49221  1.0000
  S   S813      1.0  0.67243  0.03178  0.52840  1.0000
  S   S814      1.0  0.65852  0.05706  0.52413  1.0000
  C   C1955     1.0  0.53830  0.01568  0.59822  1.0000
  Fe  Fe406     1.0  0.72278  0.04203  0.45443  1.0000
  C   C1956     1.0  0.72967  0.01962  0.42216  1.0000
  S   S815      1.0  0.70576  0.04480  0.46474  1.0000
  C   C1957     1.0  0.72403  0.01451  0.43231  1.0000
  H   H3128     1.0  0.73319  0.07796  0.48228  1.0000
  S   S816      1.0  0.49340  0.05751  0.61310  1.0000
  H   H3129     1.0  0.52484  0.99408  0.40599  1.0000
  C   C1958     1.0  0.51747  0.99053  0.40975  1.0000
  Fe  Fe407     1.0  0.49805  0.04336  0.62674  1.0000
  C   C1959     1.0  0.69601  0.01548  0.53598  1.0000
  H   H3130     1.0  0.68173  0.01424  0.42570  1.0000
  H   H3131     1.0  0.71677  0.01448  0.40522  1.0000
  H   H3132     1.0  0.71130  0.05233  0.49395  1.0000
  H   H3133     1.0  0.66092  0.00837  0.41505  1.0000
  S   S817      1.0  0.73028  0.06538  0.50541  1.0000
  H   H3134     1.0  0.68182  0.99553  0.54108  1.0000
  H   H3135     1.0  0.68155  0.00279  0.43732  1.0000
  C   C1960     1.0  0.60487  0.99238  0.56428  1.0000
  H   H3136     1.0  0.51277  0.00215  0.45491  1.0000
  C   C1961     1.0  0.52484  0.01713  0.44805  1.0000
  H   H3137     1.0  0.50778  0.00905  0.63578  1.0000
  H   H3138     1.0  0.51403  0.00736  0.39242  1.0000
  C   C1962     1.0  0.52381  0.02487  0.58862  1.0000
  H   H3139     1.0  0.72153  0.02790  0.48117  1.0000
  H   H3140     1.0  0.71166  0.00521  0.44050  1.0000
  H   H3141     1.0  0.56166  0.06458  0.42404  1.0000
  H   H3142     1.0  0.60734  0.00320  0.54345  1.0000
  H   H3143     1.0  0.61509  0.01235  0.54408  1.0000
  H   H3144     1.0  0.51079  0.02842  0.46240  1.0000
  C   C1963     1.0  0.69305  0.00693  0.47584  1.0000
  C   C1964     1.0  0.50640  0.00683  0.64494  1.0000
  C   C1965     1.0  0.57937  0.99231  0.49474  1.0000
  C   C1966     1.0  0.73418  0.01991  0.52289  1.0000
  H   H3145     1.0  0.52101  0.04430  0.55616  1.0000
  H   H3146     1.0  0.53676  0.06887  0.41361  1.0000
  C   C1967     1.0  0.66419  0.99699  0.43509  1.0000
  H   H3147     1.0  0.54965  0.07115  0.40496  1.0000
  H   H3148     1.0  0.61669  0.02042  0.45456  1.0000
  N   N197      1.0  0.51285  0.01942  0.45001  1.0000
  H   H3149     1.0  0.70159  0.03268  0.50706  1.0000
  H   H3150     1.0  0.54909  0.05940  0.41622  1.0000
  H   H3151     1.0  0.62092  0.01257  0.46705  1.0000
  C   C1968     1.0  0.49545  0.99498  0.61022  1.0000
  C   C1969     1.0  0.71872  0.01455  0.41279  1.0000
  H   H3152     1.0  0.49425  0.04032  0.32674  1.0000
  H   H3153     1.0  0.51059  0.03674  0.44882  1.0000
  C   C1970     1.0  0.69965  0.05330  0.52610  1.0000
  C   C1971     1.0  0.69948  0.06074  0.51593  1.0000
  C   C1972     1.0  0.70891  0.06446  0.50969  1.0000
  C   C1973     1.0  0.71861  0.06060  0.51348  1.0000
  C   C1974     1.0  0.71885  0.05301  0.52355  1.0000
  C   C1975     1.0  0.70936  0.04945  0.52989  1.0000
  H   H3154     1.0  0.69197  0.06392  0.51306  1.0000
  H   H3155     1.0  0.70864  0.07043  0.50198  1.0000
  H   H3156     1.0  0.72628  0.05008  0.52657  1.0000
  H   H3157     1.0  0.70953  0.04371  0.53777  1.0000
  C   C1976     1.0  0.63413  0.05620  0.48449  1.0000
  C   C1977     1.0  0.64198  0.06065  0.47594  1.0000
  C   C1978     1.0  0.64921  0.06544  0.47822  1.0000
  C   C1979     1.0  0.64864  0.06573  0.48909  1.0000
  C   C1980     1.0  0.64056  0.06162  0.49761  1.0000
  C   C1981     1.0  0.63322  0.05695  0.49530  1.0000
  H   H3158     1.0  0.64267  0.06020  0.46755  1.0000
  H   H3159     1.0  0.65553  0.06837  0.47162  1.0000
  H   H3160     1.0  0.64014  0.06182  0.50602  1.0000
  H   H3161     1.0  0.62719  0.05355  0.50195  1.0000
  C   C1982     1.0  0.67864  0.05265  0.44616  1.0000
  C   C1983     1.0  0.67635  0.05024  0.45770  1.0000
  C   C1984     1.0  0.68476  0.04763  0.46333  1.0000
  C   C1985     1.0  0.69550  0.04751  0.45746  1.0000
  C   C1986     1.0  0.69784  0.04977  0.44594  1.0000
  C   C1987     1.0  0.68941  0.05243  0.44030  1.0000
  H   H3162     1.0  0.66804  0.05086  0.46230  1.0000
  H   H3163     1.0  0.68289  0.04589  0.47226  1.0000
  H   H3164     1.0  0.70610  0.04965  0.44132  1.0000
  H   H3165     1.0  0.69123  0.05434  0.43136  1.0000
  H   H3166     1.0  0.73124  0.02373  0.40454  1.0000
  H   H3167     1.0  0.73073  0.99075  0.41922  1.0000
  H   H3168     1.0  0.50534  0.06318  0.33720  1.0000
  C   C1988     1.0  0.64979  0.00017  0.46811  1.0000
  C   C1989     1.0  0.64250  0.00409  0.47708  1.0000
  C   C1990     1.0  0.63329  0.99967  0.48244  1.0000
  H   H3169     1.0  0.71090  0.99717  0.53228  1.0000
  C   C1991     1.0  0.69564  0.99926  0.55077  1.0000
  H   H3170     1.0  0.64403  0.01051  0.47991  1.0000
  H   H3171     1.0  0.62776  0.00258  0.48949  1.0000
  H   H3172     1.0  0.60819  0.03637  0.46345  1.0000
  H   H3173     1.0  0.55837  0.00060  0.49426  1.0000
  C   C1992     1.0  0.49962  0.05269  0.33078  1.0000
  C   C1993     1.0  0.66512  0.00158  0.49946  1.0000
  C   C1994     1.0  0.66554  0.01244  0.49397  1.0000
  C   C1995     1.0  0.67282  0.01753  0.49571  1.0000
  C   C1996     1.0  0.68006  0.01158  0.50252  1.0000
  C   C1997     1.0  0.67996  0.00057  0.50771  1.0000
  H   H3174     1.0  0.48892  0.00797  0.63746  1.0000
  H   H3175     1.0  0.66008  0.01704  0.48854  1.0000
  H   H3176     1.0  0.67290  0.02604  0.49169  1.0000
  H   H3177     1.0  0.68551  0.99599  0.51306  1.0000
  H   H3178     1.0  0.67977  0.02650  0.47105  1.0000
  C   C1998     1.0  0.56135  0.99175  0.49398  1.0000
  Fe  Fe408     1.0  0.50081  0.02661  0.61330  1.0000
  H   H3179     1.0  0.54678  0.01073  0.59773  1.0000
  H   H3180     1.0  0.70105  0.00098  0.47520  1.0000
  S   S818      1.0  0.72900  0.04944  0.43668  1.0000
  H   H3181     1.0  0.73357  0.07035  0.46659  1.0000
  H   H3182     1.0  0.59599  0.00025  0.43323  1.0000
  C   C1999     1.0  0.50249  0.01272  0.33091  1.0000
  C   C2000     1.0  0.58960  0.05213  0.43960  1.0000
  C   C2001     1.0  0.59397  0.04325  0.43438  1.0000
  C   C2002     1.0  0.60520  0.03868  0.43261  1.0000
  C   C2003     1.0  0.61205  0.04277  0.43631  1.0000
  C   C2004     1.0  0.60765  0.05146  0.44179  1.0000
  C   C2005     1.0  0.59644  0.05624  0.44329  1.0000
  H   H3183     1.0  0.58875  0.04007  0.43147  1.0000
  H   H3184     1.0  0.60858  0.03198  0.42833  1.0000
  H   H3185     1.0  0.61291  0.05469  0.44460  1.0000
  H   H3186     1.0  0.59308  0.06311  0.44732  1.0000
  C   C2006     1.0  0.57636  0.03297  0.49579  1.0000
  C   C2007     1.0  0.57093  0.02464  0.50213  1.0000
  C   C2008     1.0  0.56387  0.02147  0.49783  1.0000
  C   C2009     1.0  0.56226  0.02660  0.48717  1.0000
  C   C2010     1.0  0.56761  0.03500  0.48087  1.0000
  C   C2011     1.0  0.57468  0.03816  0.48517  1.0000
  H   H3187     1.0  0.68565  0.00103  0.41362  1.0000
  H   H3188     1.0  0.55983  0.01491  0.50270  1.0000
  H   H3189     1.0  0.56630  0.03909  0.47267  1.0000
  H   H3190     1.0  0.57876  0.04471  0.48028  1.0000
  C   C2012     1.0  0.60725  0.05070  0.53468  1.0000
  C   C2013     1.0  0.61594  0.05584  0.52898  1.0000
  C   C2014     1.0  0.62669  0.05021  0.52954  1.0000
  C   C2015     1.0  0.62872  0.03952  0.53596  1.0000
  C   C2016     1.0  0.62003  0.03447  0.54176  1.0000
  C   C2017     1.0  0.60932  0.03997  0.54102  1.0000
  H   H3191     1.0  0.61438  0.06418  0.52414  1.0000
  H   H3192     1.0  0.63338  0.05420  0.52518  1.0000
  H   H3193     1.0  0.62162  0.02632  0.54691  1.0000
  H   H3194     1.0  0.60263  0.03606  0.54561  1.0000
  C   C2018     1.0  0.54304  0.00416  0.42427  1.0000
  C   C2019     1.0  0.54445  0.01489  0.42236  1.0000
  C   C2020     1.0  0.55361  0.01665  0.42457  1.0000
  C   C2021     1.0  0.56151  0.00770  0.42838  1.0000
  H   H3195     1.0  0.54194  0.09163  0.42253  1.0000
  S   S819      1.0  0.70444  0.00115  0.42325  1.0000
  H   H3196     1.0  0.53827  0.02183  0.41956  1.0000
  H   H3197     1.0  0.55453  0.02496  0.42336  1.0000
  H   H3198     1.0  0.70174  0.00087  0.52311  1.0000
  H   H3199     1.0  0.69997  0.02477  0.46325  1.0000
  C   C2022     1.0  0.54777  0.00024  0.55584  1.0000
  C   C2023     1.0  0.54851  0.01075  0.55597  1.0000
  C   C2024     1.0  0.55841  0.01257  0.55634  1.0000
  C   C2025     1.0  0.56758  0.00388  0.55667  1.0000
  C   C2026     1.0  0.64771  0.99208  0.46428  1.0000
  N   N198      1.0  0.60399  0.02051  0.46929  1.0000
  H   H3200     1.0  0.54160  0.01762  0.55521  1.0000
  H   H3201     1.0  0.55904  0.02082  0.55593  1.0000
  C   C2027     1.0  0.60086  0.01295  0.47996  1.0000
  C   C2028     1.0  0.62352  0.99236  0.55468  1.0000
  H   H3202     1.0  0.69792  0.02377  0.45044  1.0000
  C   C2029     1.0  0.52030  0.05010  0.40813  1.0000
  C   C2030     1.0  0.51176  0.05272  0.41693  1.0000
  C   C2031     1.0  0.51397  0.05220  0.42712  1.0000
  C   C2032     1.0  0.52467  0.04874  0.42867  1.0000
  C   C2033     1.0  0.53315  0.04572  0.42002  1.0000
  C   C2034     1.0  0.53099  0.04659  0.40972  1.0000
  H   H3203     1.0  0.50350  0.05556  0.41573  1.0000
  H   H3204     1.0  0.50735  0.05462  0.43376  1.0000
  H   H3205     1.0  0.54140  0.04285  0.42118  1.0000
  H   H3206     1.0  0.53762  0.04448  0.40296  1.0000
  H   H3207     1.0  0.53311  0.00989  0.57636  1.0000
  H   H3208     1.0  0.69514  0.01930  0.52734  1.0000
  N   N199      1.0  0.50175  0.00141  0.33719  1.0000
  C   C2035     1.0  0.52805  0.99296  0.49600  1.0000
  H   H3209     1.0  0.63229  0.00401  0.50930  1.0000
  H   H3210     1.0  0.52106  0.02702  0.58074  1.0000
  C   C2036     1.0  0.67999  0.99632  0.42006  1.0000
  H   H3211     1.0  0.62008  0.01055  0.56224  1.0000
  C   C2037     1.0  0.51281  0.99452  0.33731  1.0000
  H   H3212     1.0  0.64589  0.01068  0.51453  1.0000
  H   H3213     1.0  0.61211  0.02848  0.47613  1.0000
  H   H3214     1.0  0.50759  0.00496  0.42270  1.0000
  H   H3215     1.0  0.54433  0.00312  0.58292  1.0000
  C   C2038     1.0  0.53095  0.99520  0.48443  1.0000
  H   H3216     1.0  0.69857  0.99854  0.45793  1.0000
  S   S820      1.0  0.52008  0.05630  0.58946  1.0000
  H   H3217     1.0  0.72028  0.01797  0.49413  1.0000
  H   H3218     1.0  0.67844  0.02540  0.45797  1.0000
  H   H3219     1.0  0.49946  0.00976  0.39604  1.0000
  C   C2039     1.0  0.71170  0.04581  0.48969  1.0000
  H   H3220     1.0  0.72677  0.02544  0.52097  1.0000
  H   H3221     1.0  0.52870  0.00976  0.44439  1.0000
  H   H3222     1.0  0.49503  0.99328  0.35364  1.0000
  C   C2040     1.0  0.50886  0.00991  0.45786  1.0000
  N   N200      1.0  0.69087  0.01278  0.46484  1.0000
  H   H3223     1.0  0.69002  0.02082  0.54138  1.0000
  H   H3224     1.0  0.70429  0.01572  0.53644  1.0000
  H   H3225     1.0  0.51171  0.99281  0.58513  1.0000
  H   H3226     1.0  0.49010  0.00064  0.41465  1.0000
  H   H3227     1.0  0.50726  0.99682  0.39300  1.0000
  C   C2041     1.0  0.50154  0.04898  0.34970  1.0000
  S   S821      1.0  0.49933  0.04722  0.64222  1.0000
  H   H3228     1.0  0.53731  0.99966  0.48012  1.0000
  H   H3229     1.0  0.73191  0.02629  0.50001  1.0000
  H   H3230     1.0  0.67006  0.01729  0.41266  1.0000
  H   H3231     1.0  0.70761  0.01325  0.45727  1.0000
  S   S822      1.0  0.53077  0.00205  0.42335  1.0000
  H   H3232     1.0  0.70327  0.04619  0.48918  1.0000
  C   C2042     1.0  0.49916  0.00479  0.60652  1.0000
  H   H3233     1.0  0.70998  0.03855  0.51165  1.0000
  H   H3234     1.0  0.59816  0.03497  0.47617  1.0000
  S   S823      1.0  0.54225  0.04542  0.54228  1.0000
  C   C2043     1.0  0.52590  0.05343  0.57624  1.0000
  C   C2044     1.0  0.49606  0.99667  0.33187  1.0000
  H   H3235     1.0  0.58748  0.02779  0.46780  1.0000
  C   C2045     1.0  0.60901  0.00739  0.54904  1.0000
  Fe  Fe409     1.0  0.50690  0.04839  0.60171  1.0000
  N   N201      1.0  0.69434  0.00408  0.53930  1.0000
  H   H3236     1.0  0.51431  0.01199  0.40962  1.0000
  C   C2046     1.0  0.69947  0.01890  0.45866  1.0000
  N   N202      1.0  0.67138  0.00360  0.42655  1.0000
  H   H3237     1.0  0.55105  0.02015  0.57780  1.0000
  H   H3238     1.0  0.58351  0.99369  0.47294  1.0000
  H   H3239     1.0  0.59382  0.01629  0.46133  1.0000
  H   H3240     1.0  0.68211  0.00743  0.52993  1.0000
  H   H3241     1.0  0.72889  0.99450  0.49113  1.0000
  C   C2047     1.0  0.73731  0.00935  0.52071  1.0000
  H   H3242     1.0  0.57238  0.02044  0.51025  1.0000
  N   N203      1.0  0.59622  0.06632  0.49937  1.0000
  C   C2048     1.0  0.60457  0.07161  0.49099  1.0000
  C   C2049     1.0  0.58814  0.06522  0.49398  1.0000
  C   C2050     1.0  0.59076  0.07315  0.50764  1.0000
  C   C2051     1.0  0.60146  0.05527  0.50489  1.0000
  H   H3243     1.0  0.61109  0.07208  0.49470  1.0000
  H   H3244     1.0  0.60099  0.08012  0.48694  1.0000
  H   H3245     1.0  0.60856  0.06690  0.48438  1.0000
  H   H3246     1.0  0.58169  0.06131  0.50009  1.0000
  H   H3247     1.0  0.58409  0.07336  0.48959  1.0000
  H   H3248     1.0  0.59200  0.05989  0.48786  1.0000
  H   H3249     1.0  0.59664  0.07402  0.51195  1.0000
  H   H3250     1.0  0.58444  0.06938  0.51414  1.0000
  H   H3251     1.0  0.58670  0.08156  0.50381  1.0000
  H   H3252     1.0  0.59536  0.05101  0.51115  1.0000
  H   H3253     1.0  0.60745  0.05578  0.50925  1.0000
  H   H3254     1.0  0.60577  0.04995  0.49885  1.0000
  H   H3255     1.0  0.67348  0.01613  0.47037  1.0000
  C   C2052     1.0  0.62597  0.01076  0.51262  1.0000
  C   C2053     1.0  0.61413  0.01496  0.46271  1.0000
  C   C2054     1.0  0.72790  0.03456  0.49583  1.0000
  C   C2055     1.0  0.52537  0.04720  0.56036  1.0000
  N   N204      1.0  0.49833  0.99983  0.64983  1.0000
  H   H3256     1.0  0.61924  0.01284  0.50821  1.0000
  H   H3257     1.0  0.59322  0.01687  0.48513  1.0000
  H   H3258     1.0  0.49974  0.01461  0.41340  1.0000
  C   C2056     1.0  0.71591  0.00924  0.43268  1.0000
  H   H3259     1.0  0.51498  0.99500  0.57036  1.0000
  C   C2057     1.0  0.49614  0.04284  0.33315  1.0000
  H   H3260     1.0  0.69317  0.01277  0.48067  1.0000
  H   H3261     1.0  0.50061  0.02358  0.44047  1.0000
  S   S824      1.0  0.51246  0.03505  0.61559  1.0000
  C   C2058     1.0  0.56033  0.99695  0.42984  1.0000
  H   H3262     1.0  0.68421  0.00010  0.46320  1.0000
  C   C2059     1.0  0.49781  0.99425  0.41465  1.0000
  H   H3263     1.0  0.66877  0.99070  0.44098  1.0000
  H   H3264     1.0  0.57020  0.99313  0.47233  1.0000
  H   H3265     1.0  0.72620  0.01423  0.43983  1.0000
  H   H3266     1.0  0.62266  0.00741  0.52148  1.0000
  H   H3267     1.0  0.70832  0.02642  0.48945  1.0000
  H   H3268     1.0  0.62973  0.99734  0.55016  1.0000
  N   N205      1.0  0.53450  0.02617  0.52242  1.0000
  C   C2060     1.0  0.52919  0.03786  0.52240  1.0000
  C   C2061     1.0  0.52781  0.01903  0.53093  1.0000
  C   C2062     1.0  0.54533  0.02385  0.52495  1.0000
  C   C2063     1.0  0.53569  0.02397  0.51147  1.0000
  H   H3269     1.0  0.53412  0.04346  0.51615  1.0000
  H   H3270     1.0  0.52822  0.03977  0.53056  1.0000
  H   H3271     1.0  0.52099  0.03998  0.52050  1.0000
  H   H3272     1.0  0.53156  0.01016  0.53112  1.0000
  H   H3273     1.0  0.52692  0.02033  0.53933  1.0000
  H   H3274     1.0  0.51953  0.02062  0.52938  1.0000
  H   H3275     1.0  0.55055  0.02920  0.51877  1.0000
  H   H3276     1.0  0.54968  0.01514  0.52505  1.0000
  H   H3277     1.0  0.54468  0.02538  0.53320  1.0000
  H   H3278     1.0  0.53985  0.01527  0.51112  1.0000
  H   H3279     1.0  0.54054  0.02934  0.50479  1.0000
  H   H3280     1.0  0.52767  0.02540  0.50937  1.0000
  N   N206      1.0  0.61285  0.99937  0.55856  1.0000
  S   S825      1.0  0.49659  0.03076  0.36539  1.0000
  C   C2064     1.0  0.71013  0.03247  0.50697  1.0000
  N   N207      1.0  0.53512  0.01837  0.58751  1.0000
  S   S826      1.0  0.53454  0.99785  0.50329  1.0000
  C   C2065     1.0  0.60569  0.03052  0.47133  1.0000
  S   S827      1.0  0.49601  0.05700  0.37718  1.0000
  H   H3281     1.0  0.49991  0.01103  0.45909  1.0000
  N   N208      1.0  0.71663  0.03481  0.49557  1.0000
  C   C2066     1.0  0.66490  0.01212  0.41919  1.0000
  H   H3282     1.0  0.71642  0.04791  0.48108  1.0000
  H   H3283     1.0  0.52299  0.03271  0.59105  1.0000
  H   H3284     1.0  0.52813  0.02418  0.44223  1.0000
  H   H3285     1.0  0.51263  0.01380  0.43597  1.0000
  S   S828      1.0  0.72959  0.00488  0.51446  1.0000
  Fe  Fe410     1.0  0.49413  0.03991  0.37868  1.0000
  S   S829      1.0  0.73145  0.02475  0.45321  1.0000
  H   H3286     1.0  0.51810  0.02027  0.59504  1.0000
  C   C2067     1.0  0.53645  0.05499  0.57109  1.0000
  C   C2068     1.0  0.50248  0.05566  0.33902  1.0000
  H   H3287     1.0  0.65748  0.00231  0.43998  1.0000
  H   H3288     1.0  0.53057  0.00289  0.59061  1.0000
  H   H3289     1.0  0.57732  0.00135  0.49412  1.0000
  H   H3290     1.0  0.73300  0.03640  0.48737  1.0000
  H   H3291     1.0  0.64155  0.01778  0.49595  1.0000
  C   C2069     1.0  0.72693  0.01973  0.41241  1.0000
  C   C2070     1.0  0.70246  0.99745  0.53186  1.0000
  C   C2071     1.0  0.49725  0.01185  0.59655  1.0000
  H   H3292     1.0  0.72810  0.04063  0.50038  1.0000
  H   H3293     1.0  0.49236  0.02865  0.34571  1.0000
  C   C2072     1.0  0.50809  0.02934  0.45470  1.0000
  C   C2073     1.0  0.53601  0.04859  0.55531  1.0000
  C   C2074     1.0  0.50725  0.00806  0.41385  1.0000
  C   C2075     1.0  0.54155  0.05245  0.56074  1.0000
  N   N209      1.0  0.63050  0.02046  0.51114  1.0000
  C   C2076     1.0  0.63503  0.02433  0.49930  1.0000
  C   C2077     1.0  0.62178  0.02935  0.51523  1.0000
  C   C2078     1.0  0.63922  0.01746  0.51732  1.0000
  H   H3294     1.0  0.63860  0.03161  0.49781  1.0000
  H   H3295     1.0  0.62871  0.02668  0.49435  1.0000
  H   H3296     1.0  0.61793  0.02659  0.52405  1.0000
  H   H3297     1.0  0.61527  0.03212  0.51047  1.0000
  H   H3298     1.0  0.62501  0.03663  0.51461  1.0000
  H   H3299     1.0  0.63610  0.01475  0.52634  1.0000
  H   H3300     1.0  0.64293  0.02458  0.51616  1.0000
  H   H3301     1.0  0.50386  0.05126  0.35599  1.0000
  H   H3302     1.0  0.50035  0.99636  0.32319  1.0000
  H   H3303     1.0  0.51213  0.04851  0.57467  1.0000
  H   H3304     1.0  0.68676  0.00215  0.48074  1.0000
  C   C2079     1.0  0.71339  0.00909  0.42292  1.0000
  H   H3305     1.0  0.57195  0.00443  0.47659  1.0000
  H   H3306     1.0  0.51301  0.02804  0.43314  1.0000
  C   C2080     1.0  0.52034  0.04955  0.57084  1.0000
  H   H3307     1.0  0.50347  0.99122  0.63661  1.0000
  H   H3308     1.0  0.53281  0.01090  0.60484  1.0000
  H   H3309     1.0  0.53781  0.02331  0.60089  1.0000
  H   H3310     1.0  0.54075  0.05811  0.57518  1.0000
  H   H3311     1.0  0.59467  0.99890  0.41539  1.0000
  H   H3312     1.0  0.60730  0.01046  0.48481  1.0000
  C   C2081     1.0  0.53582  0.00809  0.58423  1.0000
  C   C2082     1.0  0.59527  0.02362  0.46313  1.0000
  C   C2083     1.0  0.54245  0.02486  0.57903  1.0000
  N   N210      1.0  0.67860  0.08130  0.46245  1.0000
  C   C2084     1.0  0.66839  0.08849  0.46710  1.0000
  C   C2085     1.0  0.68752  0.08726  0.45890  1.0000
  C   C2086     1.0  0.67719  0.07815  0.45287  1.0000
  C   C2087     1.0  0.68132  0.07128  0.47095  1.0000
  H   H3313     1.0  0.66613  0.09620  0.46098  1.0000
  H   H3314     1.0  0.66906  0.09078  0.47454  1.0000
  H   H3315     1.0  0.66148  0.08427  0.46979  1.0000
  H   H3316     1.0  0.69532  0.08205  0.45529  1.0000
  H   H3317     1.0  0.68573  0.09490  0.45251  1.0000
  H   H3318     1.0  0.68884  0.08965  0.46597  1.0000
  H   H3319     1.0  0.67526  0.08548  0.44621  1.0000
  H   H3320     1.0  0.67044  0.07373  0.45521  1.0000
  H   H3321     1.0  0.68468  0.07256  0.44928  1.0000
  H   H3322     1.0  0.67512  0.06619  0.47329  1.0000
  H   H3323     1.0  0.68162  0.07332  0.47866  1.0000
  H   H3324     1.0  0.68933  0.06600  0.46801  1.0000
  C   C2088     1.0  0.49522  0.03616  0.34382  1.0000
  H   H3325     1.0  0.60125  0.01316  0.55176  1.0000
  C   C2089     1.0  0.71672  0.02639  0.48981  1.0000
  S   S830      1.0  0.50593  0.00834  0.61446  1.0000
  H   H3326     1.0  0.50037  0.01923  0.59344  1.0000
  H   H3327     1.0  0.59963  0.00525  0.47876  1.0000
  S   S831      1.0  0.53575  0.99833  0.55405  1.0000
  H   H3328     1.0  0.52760  0.01556  0.45585  1.0000
  H   H3329     1.0  0.65834  0.01776  0.42387  1.0000
  H   H3330     1.0  0.71344  0.02415  0.51160  1.0000
  H   H3331     1.0  0.55873  0.07798  0.42678  1.0000
  H   H3332     1.0  0.51067  0.00861  0.46610  1.0000
  H   H3333     1.0  0.61319  0.00728  0.46117  1.0000
  H   H3334     1.0  0.51732  0.99782  0.34134  1.0000
  C   C2090     1.0  0.50705  0.00344  0.39705  1.0000
  H   H3335     1.0  0.68931  0.00884  0.45037  1.0000
  H   H3336     1.0  0.54222  0.03260  0.58136  1.0000
  N   N211      1.0  0.54623  0.07474  0.42104  1.0000
  C   C2091     1.0  0.54020  0.07082  0.43234  1.0000
  C   C2092     1.0  0.54148  0.08651  0.41710  1.0000
  C   C2093     1.0  0.54540  0.06829  0.41362  1.0000
  C   C2094     1.0  0.55780  0.07337  0.42113  1.0000
  H   H3337     1.0  0.54356  0.06198  0.43556  1.0000
  H   H3338     1.0  0.53146  0.07160  0.43261  1.0000
  H   H3339     1.0  0.54063  0.07546  0.43821  1.0000
  H   H3340     1.0  0.54583  0.08976  0.40858  1.0000
  H   H3341     1.0  0.53276  0.08780  0.41694  1.0000
  H   H3342     1.0  0.50718  0.01641  0.33435  1.0000
  C   C2095     1.0  0.68018  0.02056  0.46611  1.0000
  H   H3343     1.0  0.66042  0.99257  0.43142  1.0000
  H   H3344     1.0  0.73779  0.99255  0.42844  1.0000
  C   C2096     1.0  0.55103  0.99518  0.42790  1.0000
  C   C2097     1.0  0.49565  0.00170  0.34864  1.0000
  H   H3345     1.0  0.67019  0.01425  0.43713  1.0000
  C   C2098     1.0  0.63111  0.99174  0.47843  1.0000
  C   C2099     1.0  0.68330  0.00404  0.53854  1.0000
  C   C2100     1.0  0.67643  0.00897  0.43189  1.0000
  C   C2101     1.0  0.55677  0.99143  0.55671  1.0000
  C   C2102     1.0  0.57476  0.99539  0.47714  1.0000
  H   H3346     1.0  0.70398  0.99883  0.55159  1.0000
  H   H3347     1.0  0.52783  0.99361  0.46950  1.0000
  C   C2103     1.0  0.56663  0.99321  0.55733  1.0000
  C   C2104     1.0  0.51748  0.98961  0.57801  1.0000
  H   H3348     1.0  0.59680  0.99738  0.56757  1.0000
  C   C2105     1.0  0.61397  0.00535  0.56625  1.0000
  H   H3349     1.0  0.61666  0.99955  0.57362  1.0000
  H   H3350     1.0  0.50366  0.01468  0.64787  1.0000
  H   H3351     1.0  0.49959  0.00544  0.35286  1.0000
  H   H3352     1.0  0.58687  0.99133  0.44075  1.0000
  H   H3353     1.0  0.73551  0.99413  0.46632  1.0000
  H   H3354     1.0  0.67690  0.00907  0.54394  1.0000
  H   H3355     1.0  0.60611  0.01088  0.56920  1.0000
  S   S832      1.0  0.65530  0.99578  0.49786  1.0000
  C   C2106     1.0  0.59553  0.99146  0.43667  1.0000
  C   C2107     1.0  0.48946  0.99248  0.60416  1.0000
  S   S833      1.0  0.73583  0.04537  0.46027  1.0000
  H   H3356     1.0  0.68973  0.00418  0.55658  1.0000
  H   H3357     1.0  0.49428  0.01825  0.33103  1.0000
  C   C2108     1.0  0.49133  0.00933  0.59047  1.0000
  H   H3358     1.0  0.69428  0.99070  0.55357  1.0000
  S   S834      1.0  0.55059  0.99190  0.52523  1.0000
  H   H3359     1.0  0.73733  0.05781  0.48434  1.0000
  H   H3360     1.0  0.48979  0.01487  0.58281  1.0000
  C   C2109     1.0  0.52557  0.99178  0.47840  1.0000
  H   H3361     1.0  0.49812  0.99023  0.42341  1.0000
  H   H3362     1.0  0.51764  0.99420  0.32878  1.0000
  H   H3363     1.0  0.52571  0.99060  0.57772  1.0000
  H   H3364     1.0  0.67650  0.99212  0.41588  1.0000
  H   H3365     1.0  0.73664  0.00452  0.47248  1.0000
  C   C2110     1.0  0.50227  0.98951  0.64575  1.0000
  H   H3366     1.0  0.68502  0.98980  0.42540  1.0000
  H   H3367     1.0  0.61303  0.99279  0.42015  1.0000
  H   H3368     1.0  0.56633  0.99000  0.43294  1.0000
  C   C2111     1.0  0.59363  0.99029  0.41905  1.0000
  H   H3369     1.0  0.49689  0.98948  0.61794  1.0000
  H   H3370     1.0  0.55627  0.98991  0.48941  1.0000
  H   H3371     1.0  0.58473  0.99081  0.42214  1.0000
  H   H3372     1.0  0.50651  0.01290  0.32207  1.0000
  H   H3373     1.0  0.58829  0.98977  0.49147  1.0000
  C   C2112     1.0  0.48792  0.00578  0.64660  1.0000
  H   H3374     1.0  0.49838  0.11583  0.94067  1.0000
  H   H3375     1.0  0.49057  0.12406  0.91880  1.0000
  C   C2113     1.0  0.48956  0.15216  0.94065  1.0000
  H   H3376     1.0  0.51622  0.03361  0.73733  1.0000
  H   H3377     1.0  0.49258  0.17810  0.93840  1.0000
  H   H3378     1.0  0.49172  0.06403  0.77208  1.0000
  H   H3379     1.0  0.51800  0.99698  0.74835  1.0000
  H   H3380     1.0  0.49089  0.00232  0.88051  1.0000
  H   H3381     1.0  0.49973  0.04807  0.66396  1.0000
  C   C2114     1.0  0.51068  0.30440  0.97340  1.0000
  H   H3382     1.0  0.51415  0.10019  0.91907  1.0000
  S   S835      1.0  0.50047  0.03993  0.77443  1.0000
  C   C2115     1.0  0.50547  0.01859  0.83742  1.0000
  H   H3383     1.0  0.50852  0.00708  0.72758  1.0000
  C   C2116     1.0  0.49939  0.03258  0.74208  1.0000
  H   H3384     1.0  0.51868  0.29388  0.96184  1.0000
  H   H3385     1.0  0.49946  0.05967  0.75389  1.0000
  C   C2117     1.0  0.49385  0.16052  0.94166  1.0000
  S   S836      1.0  0.50348  0.29599  0.94884  1.0000
  H   H3386     1.0  0.49855  0.01632  0.88394  1.0000
  H   H3387     1.0  0.50191  0.13016  0.91115  1.0000
  H   H3388     1.0  0.48992  0.28726  0.96889  1.0000
  H   H3389     1.0  0.49103  0.00915  0.77828  1.0000
  N   N212      1.0  0.49928  0.00980  0.84250  1.0000
  S   S837      1.0  0.49424  0.23052  0.93394  1.0000
  H   H3390     1.0  0.50061  0.15841  0.94566  1.0000
  H   H3391     1.0  0.51741  0.30207  0.97750  1.0000
  H   H3392     1.0  0.51867  0.99458  0.72967  1.0000
  H   H3393     1.0  0.50127  0.24954  0.93399  1.0000
  C   C2118     1.0  0.49256  0.31482  0.97176  1.0000
  C   C2119     1.0  0.48998  0.01801  0.88397  1.0000
  C   C2120     1.0  0.51141  0.29978  0.96454  1.0000
  C   C2121     1.0  0.50908  0.03604  0.75383  1.0000
  H   H3394     1.0  0.50105  0.10565  0.91569  1.0000
  C   C2122     1.0  0.49335  0.31029  0.96281  1.0000
  H   H3395     1.0  0.49383  0.22300  0.96717  1.0000
  H   H3396     1.0  0.49322  0.06698  0.74245  1.0000
  H   H3397     1.0  0.49378  0.26953  0.92827  1.0000
  C   C2123     1.0  0.49673  0.99719  0.66199  1.0000
  H   H3398     1.0  0.50585  0.10252  0.93821  1.0000
  S   S838      1.0  0.49993  0.02962  0.72941  1.0000
  H   H3399     1.0  0.51002  0.01802  0.82886  1.0000
  C   C2124     1.0  0.50845  0.10798  0.91617  1.0000
  C   C2125     1.0  0.49434  0.25232  0.93016  1.0000
  C   C2126     1.0  0.50268  0.30258  0.95933  1.0000
  H   H3400     1.0  0.51378  0.12421  0.92982  1.0000
  C   C2127     1.0  0.51568  0.11840  0.92424  1.0000
  N   N213      1.0  0.50569  0.11562  0.92366  1.0000
  C   C2128     1.0  0.50045  0.11031  0.93480  1.0000
  H   H3401     1.0  0.51649  0.03728  0.75497  1.0000
  H   H3402     1.0  0.49998  0.02693  0.83693  1.0000
  H   H3403     1.0  0.52153  0.11092  0.92747  1.0000
  H   H3404     1.0  0.49578  0.13172  0.92505  1.0000
  C   C2129     1.0  0.49977  0.03651  0.76236  1.0000
  H   H3405     1.0  0.49283  0.10816  0.93475  1.0000
  H   H3406     1.0  0.49588  0.00984  0.82716  1.0000
  C   C2130     1.0  0.49265  0.00040  0.74429  1.0000
  C   C2131     1.0  0.49009  0.26364  0.92695  1.0000
  C   C2132     1.0  0.50892  0.03401  0.74381  1.0000
  H   H3407     1.0  0.49163  0.15727  0.96591  1.0000
  C   C2133     1.0  0.49815  0.12583  0.91948  1.0000
  C   C2134     1.0  0.50974  0.99803  0.73105  1.0000
  H   H3408     1.0  0.51990  0.12242  0.91597  1.0000
  H   H3409     1.0  0.51234  0.11172  0.90764  1.0000
  H   H3410     1.0  0.51163  0.99767  0.83479  1.0000
  H   H3411     1.0  0.49307  0.23975  0.95250  1.0000
  S   S839      1.0  0.49464  0.13829  0.94639  1.0000
  H   H3412     1.0  0.51144  0.01815  0.84227  1.0000
  H   H3413     1.0  0.49390  0.00476  0.66538  1.0000
  C   C2135     1.0  0.48953  0.24462  0.92864  1.0000
  H   H3414     1.0  0.49236  0.07820  0.76643  1.0000
  C   C2136     1.0  0.50119  0.31179  0.97714  1.0000
  C   C2137     1.0  0.49348  0.04009  0.65527  1.0000
  N   N214      1.0  0.50445  0.99560  0.74289  1.0000
  S   S840      1.0  0.48882  0.03815  0.88798  1.0000
  H   H3415     1.0  0.51279  0.99790  0.84827  1.0000
  H   H3416     1.0  0.49880  0.01020  0.85916  1.0000
  C   C2138     1.0  0.49321  0.01107  0.85374  1.0000
  H   H3417     1.0  0.49458  0.27341  0.97589  1.0000
  H   H3418     1.0  0.50800  0.00955  0.74601  1.0000
  C   C2139     1.0  0.49483  0.06785  0.75014  1.0000
  C   C2140     1.0  0.48930  0.17164  0.93759  1.0000
  C   C2141     1.0  0.50690  0.99892  0.84312  1.0000
  C   C2142     1.0  0.50913  0.00047  0.74909  1.0000
  H   H3419     1.0  0.50519  0.99895  0.75803  1.0000
  H   H3420     1.0  0.50636  0.99453  0.72612  1.0000
  C   C2143     1.0  0.49004  0.03291  0.75061  1.0000
  C   C2144     1.0  0.49502  0.04214  0.66474  1.0000
  H   H3421     1.0  0.50072  0.23875  0.96823  1.0000
  H   H3422     1.0  0.50249  0.99210  0.84682  1.0000
  H   H3423     1.0  0.50028  0.07373  0.74778  1.0000
  H   H3424     1.0  0.49243  0.29294  0.98441  1.0000
  H   H3425     1.0  0.50440  0.99252  0.66468  1.0000
  H   H3426     1.0  0.49217  0.03781  0.68248  1.0000
  C   C2145     1.0  0.49236  0.24223  0.97257  1.0000
  C   C2146     1.0  0.49068  0.03637  0.67526  1.0000
  C   C2147     1.0  0.49157  0.01062  0.83573  1.0000
  H   H3427     1.0  0.49194  0.23924  0.98160  1.0000
  H   H3428     1.0  0.49104  0.00952  0.74127  1.0000
  C   C2148     1.0  0.49025  0.03477  0.76080  1.0000
  H   H3429     1.0  0.49130  0.25136  0.97061  1.0000
  H   H3430     1.0  0.49058  0.99206  0.66602  1.0000
  H   H3431     1.0  0.48886  0.99700  0.73964  1.0000
  H   H3432     1.0  0.48839  0.99868  0.75312  1.0000
  H   H3433     1.0  0.48820  0.00476  0.85775  1.0000
  H   H3434     1.0  0.49523  0.59116  0.99924  1.0000
  H   H3435     1.0  0.64456  0.52816  0.99341  1.0000
  S   S841      1.0  0.48828  0.39098  0.00100  1.0000
  H   H3436     1.0  0.51822  0.43568  0.01625  1.0000
  H   H3437     1.0  0.69589  0.52416  0.03204  1.0000
  H   H3438     1.0  0.67986  0.51684  0.06041  1.0000
  S   S842      1.0  0.73049  0.55598  0.00908  1.0000
  H   H3439     1.0  0.49988  0.50201  0.05231  1.0000
  H   H3440     1.0  0.65519  0.50939  0.99053  1.0000
  H   H3441     1.0  0.72806  0.53350  0.02117  1.0000
  C   C2149     1.0  0.69862  0.53178  0.99850  1.0000
  Fe  Fe411     1.0  0.52757  0.49143  0.01900  1.0000
  S   S843      1.0  0.52776  0.47952  0.03527  1.0000
  S   S844      1.0  0.51974  0.50941  0.01748  1.0000
  Fe  Fe412     1.0  0.54129  0.47419  0.00616  1.0000
  S   S845      1.0  0.54290  0.46088  0.02140  1.0000
  H   H3442     1.0  0.58028  0.49500  0.00557  1.0000
  Fe  Fe413     1.0  0.52496  0.46760  0.02707  1.0000
  S   S846      1.0  0.51275  0.45667  0.03528  1.0000
  Fe  Fe414     1.0  0.54549  0.47412  0.02791  1.0000
  S   S847      1.0  0.55799  0.47370  0.03694  1.0000
  S   S848      1.0  0.52323  0.48007  0.01143  1.0000
  S   S849      1.0  0.54541  0.48679  0.01213  1.0000
  Fe  Fe415     1.0  0.56779  0.55376  0.00081  1.0000
  S   S850      1.0  0.54988  0.55441  0.00550  1.0000
  C   C2150     1.0  0.50330  0.49675  0.04613  1.0000
  Fe  Fe416     1.0  0.56744  0.56277  0.02016  1.0000
  S   S851      1.0  0.54947  0.56400  0.02680  1.0000
  S   S852      1.0  0.57748  0.56768  0.02886  1.0000
  Fe  Fe417     1.0  0.55264  0.54744  0.02264  1.0000
  S   S853      1.0  0.54741  0.53220  0.03384  1.0000
  Fe  Fe418     1.0  0.54821  0.57093  0.00910  1.0000
  C   C2151     1.0  0.51767  0.59900  0.02874  1.0000
  S   S854      1.0  0.57076  0.54563  0.01768  1.0000
  S   S855      1.0  0.56604  0.57087  0.00273  1.0000
  Fe  Fe419     1.0  0.64185  0.47713  0.00320  1.0000
  S   S856      1.0  0.64044  0.49419  0.00497  1.0000
  S   S857      1.0  0.65727  0.46550  0.99726  1.0000
  Fe  Fe420     1.0  0.61713  0.47917  0.00901  1.0000
  S   S858      1.0  0.61359  0.49628  0.01173  1.0000
  S   S859      1.0  0.60508  0.47133  0.00635  1.0000
  Fe  Fe421     1.0  0.62655  0.49908  0.99642  1.0000
  H   H3443     1.0  0.54186  0.42314  0.01189  1.0000
  Fe  Fe422     1.0  0.62765  0.48983  0.02015  1.0000
  S   S860      1.0  0.62675  0.49382  0.03625  1.0000
  S   S861      1.0  0.62926  0.48243  0.99315  1.0000
  S   S862      1.0  0.63004  0.47226  0.01898  1.0000
  Fe  Fe423     1.0  0.64261  0.55544  0.01237  1.0000
  S   S863      1.0  0.65413  0.54105  0.00591  1.0000
  S   S864      1.0  0.62749  0.55803  0.00593  1.0000
  Fe  Fe424     1.0  0.66048  0.55924  0.02113  1.0000
  S   S865      1.0  0.67312  0.54559  0.01465  1.0000
  S   S866      1.0  0.66494  0.56819  0.03123  1.0000
  Fe  Fe425     1.0  0.66601  0.55201  0.99964  1.0000
  H   H3444     1.0  0.69686  0.53096  0.00758  1.0000
  Fe  Fe426     1.0  0.65979  0.53629  0.02162  1.0000
  S   S867      1.0  0.66230  0.51948  0.03268  1.0000
  S   S868      1.0  0.65445  0.56667  0.00547  1.0000
  S   S869      1.0  0.64731  0.54959  0.02885  1.0000
  Fe  Fe427     1.0  0.71110  0.49489  0.01817  1.0000
  S   S870      1.0  0.71979  0.47736  0.01803  1.0000
  S   S871      1.0  0.70952  0.50331  0.03166  1.0000
  Fe  Fe428     1.0  0.70821  0.49976  0.99481  1.0000
  Fe  Fe429     1.0  0.70687  0.47754  0.00952  1.0000
  S   S872      1.0  0.69937  0.46283  0.01352  1.0000
  S   S873      1.0  0.69736  0.49456  0.01121  1.0000
  C   C2152     1.0  0.49382  0.59669  0.99122  1.0000
  H   H3445     1.0  0.65190  0.46698  0.03063  1.0000
  S   S874      1.0  0.71273  0.55793  0.03920  1.0000
  H   H3446     1.0  0.68797  0.53266  0.05893  1.0000
  H   H3447     1.0  0.53309  0.44259  0.98710  1.0000
  H   H3448     1.0  0.65446  0.46618  0.05382  1.0000
  H   H3449     1.0  0.69168  0.54140  0.04571  1.0000
  H   H3450     1.0  0.54599  0.59067  0.04495  1.0000
  C   C2153     1.0  0.71619  0.53582  0.99581  1.0000
  H   H3451     1.0  0.68237  0.52691  0.03025  1.0000
  H   H3452     1.0  0.67745  0.51462  0.04824  1.0000
  H   H3453     1.0  0.61640  0.53842  0.01646  1.0000
  C   C2154     1.0  0.72118  0.50880  0.02706  1.0000
  C   C2155     1.0  0.72049  0.51966  0.02743  1.0000
  Fe  Fe430     1.0  0.72874  0.48433  0.00112  1.0000
  H   H3454     1.0  0.53816  0.45352  0.00248  1.0000
  H   H3455     1.0  0.49856  0.46085  0.00255  1.0000
  H   H3456     1.0  0.52673  0.45156  0.01357  1.0000
  H   H3457     1.0  0.71328  0.52420  0.03201  1.0000
  S   S875      1.0  0.54904  0.47024  0.98954  1.0000
  H   H3458     1.0  0.68852  0.53817  0.02918  1.0000
  H   H3459     1.0  0.66158  0.49040  0.03256  1.0000
  H   H3460     1.0  0.59371  0.49466  0.98686  1.0000
  N   N215      1.0  0.50084  0.60478  0.98724  1.0000
  H   H3461     1.0  0.55777  0.51764  0.99678  1.0000
  H   H3462     1.0  0.53696  0.60602  0.02491  1.0000
  H   H3463     1.0  0.55887  0.59967  0.01026  1.0000
  H   H3464     1.0  0.54120  0.58651  0.03538  1.0000
  H   H3465     1.0  0.61602  0.51421  0.02353  1.0000
  H   H3466     1.0  0.52910  0.48658  0.98883  1.0000
  C   C2156     1.0  0.55592  0.59324  0.01732  1.0000
  H   H3467     1.0  0.50690  0.48836  0.05047  1.0000
  C   C2157     1.0  0.52748  0.59511  0.01081  1.0000
  C   C2158     1.0  0.54845  0.58823  0.03686  1.0000
  C   C2159     1.0  0.66073  0.48374  0.02920  1.0000
  H   H3468     1.0  0.54898  0.59127  0.01546  1.0000
  H   H3469     1.0  0.69111  0.51194  0.04997  1.0000
  C   C2160     1.0  0.67850  0.56545  0.03268  1.0000
  C   C2161     1.0  0.68022  0.56700  0.04227  1.0000
  C   C2162     1.0  0.69076  0.56474  0.04399  1.0000
  C   C2163     1.0  0.69979  0.56114  0.03604  1.0000
  C   C2164     1.0  0.69817  0.55963  0.02632  1.0000
  C   C2165     1.0  0.68749  0.56172  0.02468  1.0000
  H   H3470     1.0  0.67335  0.56992  0.04845  1.0000
  H   H3471     1.0  0.69194  0.56589  0.05152  1.0000
  H   H3472     1.0  0.70511  0.55684  0.02014  1.0000
  H   H3473     1.0  0.68618  0.56075  0.01716  1.0000
  N   N216      1.0  0.60725  0.52848  0.03012  1.0000
  H   H3474     1.0  0.54719  0.61396  0.02043  1.0000
  C   C2166     1.0  0.60774  0.52274  0.04164  1.0000
  H   H3475     1.0  0.67429  0.46171  0.04527  1.0000
  H   H3476     1.0  0.51566  0.59634  0.03763  1.0000
  H   H3477     1.0  0.56256  0.58570  0.01759  1.0000
  H   H3478     1.0  0.49190  0.37040  0.99466  1.0000
  H   H3479     1.0  0.52485  0.60858  0.99694  1.0000
  C   C2167     1.0  0.68776  0.52966  0.03373  1.0000
  H   H3480     1.0  0.60496  0.50310  0.99308  1.0000
  C   C2168     1.0  0.66879  0.46517  0.00186  1.0000
  C   C2169     1.0  0.67574  0.45500  0.00481  1.0000
  C   C2170     1.0  0.68495  0.45442  0.00858  1.0000
  C   C2171     1.0  0.68760  0.46404  0.00892  1.0000
  C   C2172     1.0  0.68085  0.47428  0.00565  1.0000
  C   C2173     1.0  0.67126  0.47482  0.00242  1.0000
  H   H3481     1.0  0.67389  0.44751  0.00437  1.0000
  H   H3482     1.0  0.69016  0.44647  0.01105  1.0000
  H   H3483     1.0  0.68292  0.48174  0.00580  1.0000
  H   H3484     1.0  0.66593  0.48271  0.00008  1.0000
  C   C2174     1.0  0.63578  0.50193  0.03535  1.0000
  C   C2175     1.0  0.63936  0.50138  0.04474  1.0000
  C   C2176     1.0  0.64747  0.50686  0.04392  1.0000
  C   C2177     1.0  0.65173  0.51321  0.03377  1.0000
  C   C2178     1.0  0.64778  0.51418  0.02448  1.0000
  C   C2179     1.0  0.63984  0.50850  0.02526  1.0000
  H   H3485     1.0  0.63611  0.49643  0.05260  1.0000
  H   H3486     1.0  0.65045  0.50619  0.05114  1.0000
  H   H3487     1.0  0.65110  0.51900  0.01662  1.0000
  H   H3488     1.0  0.63687  0.50925  0.01805  1.0000
  C   C2180     1.0  0.72338  0.57868  0.99048  1.0000
  C   C2181     1.0  0.51289  0.60969  0.02370  1.0000
  H   H3489     1.0  0.54779  0.43472  0.00989  1.0000
  H   H3490     1.0  0.69226  0.55395  0.99281  1.0000
  H   H3491     1.0  0.59610  0.54099  0.02136  1.0000
  H   H3492     1.0  0.49380  0.48891  0.02821  1.0000
  H   H3493     1.0  0.59584  0.54294  0.03463  1.0000
  C   C2182     1.0  0.59136  0.56578  0.02232  1.0000
  C   C2183     1.0  0.59483  0.56337  0.01185  1.0000
  C   C2184     1.0  0.60593  0.56133  0.00688  1.0000
  C   C2185     1.0  0.61368  0.56161  0.01234  1.0000
  C   C2186     1.0  0.61024  0.56411  0.02279  1.0000
  C   C2187     1.0  0.59906  0.56625  0.02775  1.0000
  H   H3494     1.0  0.58896  0.56295  0.00762  1.0000
  H   H3495     1.0  0.60857  0.55937  0.99881  1.0000
  H   H3496     1.0  0.61618  0.56433  0.02704  1.0000
  H   H3497     1.0  0.59641  0.56811  0.03586  1.0000
  C   C2188     1.0  0.52715  0.51591  0.02217  1.0000
  C   C2189     1.0  0.53346  0.50981  0.02987  1.0000
  C   C2190     1.0  0.53934  0.51500  0.03365  1.0000
  C   C2191     1.0  0.53928  0.52623  0.02946  1.0000
  C   C2192     1.0  0.53304  0.53233  0.02169  1.0000
  C   C2193     1.0  0.52687  0.52720  0.01816  1.0000
  H   H3498     1.0  0.53376  0.50110  0.03302  1.0000
  H   H3499     1.0  0.54409  0.51025  0.03971  1.0000
  H   H3500     1.0  0.53287  0.54102  0.01849  1.0000
  H   H3501     1.0  0.52201  0.53196  0.01220  1.0000
  C   C2194     1.0  0.57098  0.47345  0.02831  1.0000
  C   C2195     1.0  0.57903  0.47622  0.03158  1.0000
  C   C2196     1.0  0.58950  0.47590  0.02477  1.0000
  C   C2197     1.0  0.59196  0.47257  0.01479  1.0000
  C   C2198     1.0  0.58387  0.46993  0.01147  1.0000
  C   C2199     1.0  0.57338  0.47047  0.01817  1.0000
  H   H3502     1.0  0.57718  0.47852  0.03944  1.0000
  H   H3503     1.0  0.59573  0.47789  0.02738  1.0000
  H   H3504     1.0  0.58574  0.46739  0.00374  1.0000
  H   H3505     1.0  0.56721  0.46830  0.01561  1.0000
  H   H3506     1.0  0.56584  0.60527  0.02350  1.0000
  H   H3507     1.0  0.52501  0.45579  0.99955  1.0000
  S   S876      1.0  0.71675  0.48275  0.99251  1.0000
  H   H3508     1.0  0.66914  0.53623  0.05642  1.0000
  H   H3509     1.0  0.73135  0.49451  0.02111  1.0000
  C   C2200     1.0  0.73071  0.50298  0.02125  1.0000
  C   C2201     1.0  0.52250  0.43498  0.00766  1.0000
  H   H3510     1.0  0.51009  0.50018  0.04007  1.0000
  H   H3511     1.0  0.56020  0.60169  0.03807  1.0000
  C   C2202     1.0  0.54419  0.60718  0.02700  1.0000
  C   C2203     1.0  0.68296  0.51762  0.05136  1.0000
  H   H3512     1.0  0.55468  0.58034  0.03765  1.0000
  S   S877      1.0  0.72092  0.50185  0.00180  1.0000
  H   H3513     1.0  0.50642  0.49286  0.02594  1.0000
  C   C2204     1.0  0.49892  0.45624  0.01087  1.0000
  C   C2205     1.0  0.50438  0.45941  0.01701  1.0000
  C   C2206     1.0  0.50515  0.45342  0.02768  1.0000
  C   C2207     1.0  0.50005  0.44444  0.03228  1.0000
  C   C2208     1.0  0.49456  0.44125  0.02612  1.0000
  H   H3514     1.0  0.70262  0.52344  0.99687  1.0000
  H   H3515     1.0  0.50808  0.46644  0.01339  1.0000
  H   H3516     1.0  0.50052  0.43980  0.04057  1.0000
  H   H3517     1.0  0.65268  0.48618  0.02692  1.0000
  H   H3518     1.0  0.53603  0.43281  0.02073  1.0000
  H   H3519     1.0  0.50353  0.48088  0.03635  1.0000
  Fe  Fe431     1.0  0.72862  0.55670  0.02662  1.0000
  H   H3520     1.0  0.66681  0.53382  0.04433  1.0000
  H   H3521     1.0  0.52831  0.58337  0.02621  1.0000
  C   C2209     1.0  0.51542  0.61304  0.01221  1.0000
  H   H3522     1.0  0.51189  0.62130  0.00826  1.0000
  N   N217      1.0  0.53282  0.43874  0.00443  1.0000
  C   C2210     1.0  0.53829  0.43759  0.99303  1.0000
  H   H3523     1.0  0.62133  0.45621  0.99542  1.0000
  H   H3524     1.0  0.72140  0.57978  0.99886  1.0000
  C   C2211     1.0  0.53055  0.45042  0.00502  1.0000
  H   H3525     1.0  0.58972  0.53256  0.03365  1.0000
  C   C2212     1.0  0.53995  0.43203  0.01206  1.0000
  N   N218      1.0  0.49494  0.49645  0.04062  1.0000
  C   C2213     1.0  0.72893  0.52495  0.02125  1.0000
  H   H3526     1.0  0.70742  0.57663  0.99128  1.0000
  H   H3527     1.0  0.64540  0.47669  0.04622  1.0000
  H   H3528     1.0  0.69072  0.53427  0.99586  1.0000
  H   H3529     1.0  0.48929  0.48324  0.05326  1.0000
  C   C2214     1.0  0.65386  0.47411  0.04759  1.0000
  N   N219      1.0  0.56767  0.50921  0.00869  1.0000
  C   C2215     1.0  0.57520  0.51683  0.00449  1.0000
  H   H3530     1.0  0.60969  0.45272  0.99379  1.0000
  C   C2216     1.0  0.55704  0.51499  0.00586  1.0000
  C   C2217     1.0  0.56619  0.50552  0.02081  1.0000
  H   H3531     1.0  0.58334  0.51275  0.00639  1.0000
  H   H3532     1.0  0.57199  0.52422  0.00821  1.0000
  H   H3533     1.0  0.70063  0.45721  0.98800  1.0000
  H   H3534     1.0  0.50360  0.61777  0.99276  1.0000
  H   H3535     1.0  0.65184  0.56038  0.98861  1.0000
  H   H3536     1.0  0.57640  0.51988  0.99538  1.0000
  H   H3537     1.0  0.55101  0.50964  0.00921  1.0000
  H   H3538     1.0  0.62435  0.52847  0.02553  1.0000
  C   C2218     1.0  0.61850  0.45251  0.99022  1.0000
  H   H3539     1.0  0.57401  0.50100  0.02326  1.0000
  H   H3540     1.0  0.56047  0.49983  0.02427  1.0000
  H   H3541     1.0  0.56282  0.51262  0.02494  1.0000
  N   N220      1.0  0.68356  0.52911  0.04567  1.0000
  C   C2219     1.0  0.67259  0.53636  0.04751  1.0000
  H   H3542     1.0  0.67275  0.54507  0.04322  1.0000
  H   H3543     1.0  0.66070  0.45646  0.03854  1.0000
  H   H3544     1.0  0.65501  0.48041  0.05126  1.0000
  C   C2220     1.0  0.52489  0.59169  0.02230  1.0000
  C   C2221     1.0  0.66009  0.46459  0.03263  1.0000
  H   H3545     1.0  0.67935  0.46880  0.03154  1.0000
  H   H3546     1.0  0.48975  0.61645  0.99639  1.0000
  H   H3547     1.0  0.71518  0.53477  0.00486  1.0000
  H   H3548     1.0  0.54130  0.61002  0.03490  1.0000
  H   H3549     1.0  0.55355  0.52251  0.00932  1.0000
  H   H3550     1.0  0.61575  0.54065  0.02973  1.0000
  C   C2222     1.0  0.49988  0.48946  0.03244  1.0000
  H   H3551     1.0  0.56681  0.49356  0.00672  1.0000
  H   H3552     1.0  0.52387  0.42622  0.00725  1.0000
  H   H3553     1.0  0.54608  0.44044  0.99032  1.0000
  C   C2223     1.0  0.60816  0.52037  0.02365  1.0000
  H   H3554     1.0  0.57338  0.50193  0.99448  1.0000
  C   C2224     1.0  0.49408  0.44708  0.01533  1.0000
  H   H3555     1.0  0.49086  0.43419  0.02966  1.0000
  H   H3556     1.0  0.56885  0.59123  0.03094  1.0000
  C   C2225     1.0  0.57224  0.49952  0.00362  1.0000
  H   H3557     1.0  0.67478  0.47600  0.04256  1.0000
  H   H3558     1.0  0.69929  0.52749  0.04876  1.0000
  S   S878      1.0  0.53656  0.58635  0.00235  1.0000
  C   C2226     1.0  0.69094  0.53281  0.04997  1.0000
  H   H3559     1.0  0.69063  0.49684  0.99120  1.0000
  S   S879      1.0  0.49831  0.64512  0.00815  1.0000
  H   H3560     1.0  0.54019  0.42887  0.99226  1.0000
  C   C2227     1.0  0.61632  0.53424  0.02525  1.0000
  H   H3561     1.0  0.69859  0.54998  0.00444  1.0000
  H   H3562     1.0  0.66702  0.48348  0.02147  1.0000
  C   C2228     1.0  0.59677  0.53658  0.02994  1.0000
  N   N221      1.0  0.70556  0.53977  0.99256  1.0000
  H   H3563     1.0  0.60773  0.52443  0.01493  1.0000
  C   C2229     1.0  0.56231  0.59889  0.03019  1.0000
  S   S880      1.0  0.50411  0.61889  0.03184  1.0000
  H   H3564     1.0  0.60155  0.51573  0.02720  1.0000
  H   H3565     1.0  0.60710  0.52864  0.04674  1.0000
  H   H3566     1.0  0.66620  0.46337  0.02493  1.0000
  H   H3567     1.0  0.60103  0.51826  0.04558  1.0000
  C   C2230     1.0  0.52274  0.60581  0.00580  1.0000
  N   N222      1.0  0.55271  0.59690  0.02785  1.0000
  H   H3568     1.0  0.61553  0.51655  0.04208  1.0000
  N   N223      1.0  0.66194  0.47303  0.03717  1.0000
  C   C2231     1.0  0.67306  0.46974  0.03926  1.0000
  H   H3569     1.0  0.49696  0.51147  0.02866  1.0000
  H   H3570     1.0  0.62292  0.44373  0.99113  1.0000
  Fe  Fe432     1.0  0.49248  0.63262  0.02298  1.0000
  H   H3571     1.0  0.51684  0.43999  0.00218  1.0000
  S   S881      1.0  0.48823  0.44304  0.00669  1.0000
  H   H3572     1.0  0.51430  0.59366  0.99381  1.0000
  H   H3573     1.0  0.49954  0.60663  0.00364  1.0000
  C   C2232     1.0  0.70017  0.55057  0.99542  1.0000
  C   C2233     1.0  0.49833  0.61168  0.99538  1.0000
  H   H3574     1.0  0.72050  0.52770  0.99373  1.0000
  H   H3575     1.0  0.66470  0.52423  0.98716  1.0000
  H   H3576     1.0  0.70265  0.47037  0.98789  1.0000
  H   H3577     1.0  0.72158  0.54174  0.99158  1.0000
  H   H3578     1.0  0.70529  0.55675  0.99128  1.0000
  C   C2234     1.0  0.49046  0.50776  0.03497  1.0000
  C   C2235     1.0  0.60969  0.50360  0.96212  1.0000
  C   C2236     1.0  0.50360  0.54020  0.92422  1.0000
  C   C2237     1.0  0.49726  0.34274  0.96385  1.0000
  H   H3579     1.0  0.58111  0.52572  0.95054  1.0000
  C   C2238     1.0  0.65729  0.48986  0.94710  1.0000
  H   H3580     1.0  0.60492  0.47009  0.98088  1.0000
  H   H3581     1.0  0.52358  0.47562  0.89273  1.0000
  C   C2239     1.0  0.73386  0.57888  0.98401  1.0000
  C   C2240     1.0  0.65229  0.47806  0.96487  1.0000
  H   H3582     1.0  0.52132  0.34829  0.94794  1.0000
  C   C2241     1.0  0.71898  0.46079  0.97323  1.0000
  H   H3583     1.0  0.49722  0.44482  0.98284  1.0000
  S   S882      1.0  0.70281  0.49467  0.94054  1.0000
  H   H3584     1.0  0.50722  0.63576  0.92011  1.0000
  N   N224      1.0  0.71745  0.54912  0.90127  1.0000
  Fe  Fe433     1.0  0.54169  0.55910  0.91839  1.0000
  S   S883      1.0  0.55513  0.56545  0.92031  1.0000
  S   S884      1.0  0.52805  0.56975  0.91015  1.0000
  Fe  Fe434     1.0  0.54911  0.53611  0.93153  1.0000
  S   S885      1.0  0.56303  0.54039  0.93510  1.0000
  S   S886      1.0  0.54434  0.51985  0.93962  1.0000
  Fe  Fe435     1.0  0.55143  0.55623  0.93787  1.0000
  S   S887      1.0  0.54909  0.56544  0.95096  1.0000
  Fe  Fe436     1.0  0.56582  0.54922  0.91731  1.0000
  S   S888      1.0  0.58323  0.54651  0.90776  1.0000
  S   S889      1.0  0.53720  0.55104  0.93622  1.0000
  S   S890      1.0  0.55274  0.54365  0.91346  1.0000
  Fe  Fe437     1.0  0.51523  0.45658  0.93704  1.0000
  S   S891      1.0  0.51034  0.47437  0.93831  1.0000
  S   S892      1.0  0.50097  0.45164  0.93446  1.0000
  Fe  Fe438     1.0  0.53736  0.45372  0.94190  1.0000
  S   S893      1.0  0.53408  0.47102  0.94376  1.0000
  S   S894      1.0  0.55362  0.44393  0.94523  1.0000
  Fe  Fe439     1.0  0.51765  0.46831  0.95307  1.0000
  H   H3585     1.0  0.71231  0.54701  0.97578  1.0000
  Fe  Fe440     1.0  0.52717  0.47563  0.92877  1.0000
  S   S895      1.0  0.53073  0.49079  0.91592  1.0000
  S   S896      1.0  0.52136  0.45047  0.95273  1.0000
  S   S897      1.0  0.53165  0.45836  0.92598  1.0000
  Fe  Fe441     1.0  0.59917  0.47662  0.93203  1.0000
  S   S898      1.0  0.59488  0.49385  0.93461  1.0000
  S   S899      1.0  0.58691  0.47523  0.92360  1.0000
  Fe  Fe442     1.0  0.62096  0.47165  0.93856  1.0000
  S   S900      1.0  0.61839  0.48868  0.94090  1.0000
  S   S901      1.0  0.63633  0.46095  0.94368  1.0000
  Fe  Fe443     1.0  0.60162  0.48674  0.94969  1.0000
  H   H3586     1.0  0.60456  0.57841  0.94802  1.0000
  Fe  Fe444     1.0  0.61194  0.49413  0.92552  1.0000
  S   S902      1.0  0.61443  0.50942  0.91287  1.0000
  S   S903      1.0  0.60423  0.46928  0.94829  1.0000
  S   S904      1.0  0.61615  0.47732  0.92211  1.0000
  Fe  Fe445     1.0  0.65410  0.55752  0.91980  1.0000
  S   S905      1.0  0.65562  0.54503  0.93553  1.0000
  S   S906      1.0  0.66918  0.56123  0.90741  1.0000
  Fe  Fe446     1.0  0.62934  0.56020  0.92419  1.0000
  S   S907      1.0  0.62915  0.54757  0.94005  1.0000
  S   S908      1.0  0.61263  0.56953  0.92154  1.0000
  Fe  Fe447     1.0  0.64049  0.55602  0.94287  1.0000
  H   H3587     1.0  0.56057  0.47076  0.96669  1.0000
  Fe  Fe448     1.0  0.64420  0.53804  0.93093  1.0000
  S   S909      1.0  0.64744  0.51987  0.93293  1.0000
  S   S910      1.0  0.63988  0.56934  0.92762  1.0000
  S   S911      1.0  0.64351  0.54981  0.91460  1.0000
  H   H3588     1.0  0.56744  0.48713  0.96573  1.0000
  Fe  Fe449     1.0  0.71374  0.56781  0.93273  1.0000
  S   S912      1.0  0.70699  0.55790  0.94910  1.0000
  S   S913      1.0  0.70311  0.57844  0.92109  1.0000
  H   H3589     1.0  0.64607  0.47676  0.97266  1.0000
  Fe  Fe450     1.0  0.71683  0.56544  0.95533  1.0000
  Fe  Fe451     1.0  0.72245  0.54541  0.94588  1.0000
  C   C2242     1.0  0.61609  0.50847  0.96563  1.0000
  S   S914      1.0  0.49253  0.64040  0.98288  1.0000
  C   C2243     1.0  0.56108  0.47356  0.95765  1.0000
  S   S915      1.0  0.63616  0.55994  0.95942  1.0000
  C   C2244     1.0  0.67804  0.56607  0.91200  1.0000
  C   C2245     1.0  0.68284  0.57454  0.90485  1.0000
  C   C2246     1.0  0.69033  0.57832  0.90791  1.0000
  C   C2247     1.0  0.69344  0.57339  0.91796  1.0000
  C   C2248     1.0  0.68883  0.56473  0.92512  1.0000
  C   C2249     1.0  0.68096  0.56119  0.92221  1.0000
  H   H3590     1.0  0.68065  0.57831  0.89695  1.0000
  H   H3591     1.0  0.69383  0.58504  0.90237  1.0000
  H   H3592     1.0  0.69130  0.56076  0.93284  1.0000
  H   H3593     1.0  0.67741  0.55449  0.92770  1.0000
  C   C2250     1.0  0.62506  0.51266  0.91602  1.0000
  C   C2251     1.0  0.63312  0.50415  0.92012  1.0000
  C   C2252     1.0  0.64035  0.50640  0.92491  1.0000
  C   C2253     1.0  0.63935  0.51717  0.92577  1.0000
  C   C2254     1.0  0.63165  0.52576  0.92114  1.0000
  C   C2255     1.0  0.62461  0.52352  0.91610  1.0000
  H   H3594     1.0  0.63363  0.49578  0.91977  1.0000
  H   H3595     1.0  0.64654  0.49975  0.92808  1.0000
  H   H3596     1.0  0.63078  0.53409  0.92182  1.0000
  H   H3597     1.0  0.61846  0.53011  0.91282  1.0000
  C   C2256     1.0  0.64816  0.46576  0.93600  1.0000
  C   C2257     1.0  0.64799  0.47355  0.92605  1.0000
  C   C2258     1.0  0.66716  0.46599  0.93402  1.0000
  C   C2259     1.0  0.65778  0.46196  0.93997  1.0000
  H   H3598     1.0  0.64067  0.47637  0.92285  1.0000
  H   H3599     1.0  0.67458  0.46297  0.93706  1.0000
  H   H3600     1.0  0.65800  0.45586  0.94761  1.0000
  C   C2260     1.0  0.73523  0.47584  0.93568  1.0000
  H   H3601     1.0  0.63989  0.48138  0.95030  1.0000
  C   C2261     1.0  0.67300  0.52988  0.91348  1.0000
  H   H3602     1.0  0.49154  0.33788  0.96377  1.0000
  H   H3603     1.0  0.68370  0.58255  0.97123  1.0000
  H   H3604     1.0  0.60542  0.56501  0.94608  1.0000
  H   H3605     1.0  0.67948  0.53450  0.91189  1.0000
  H   H3606     1.0  0.53057  0.45964  0.96751  1.0000
  H   H3607     1.0  0.50580  0.61157  0.91102  1.0000
  C   C2262     1.0  0.56323  0.45224  0.93913  1.0000
  C   C2263     1.0  0.57281  0.45002  0.94296  1.0000
  C   C2264     1.0  0.58024  0.45697  0.93827  1.0000
  C   C2265     1.0  0.57814  0.46605  0.92965  1.0000
  C   C2266     1.0  0.56866  0.46814  0.92576  1.0000
  C   C2267     1.0  0.56120  0.46132  0.93053  1.0000
  H   H3608     1.0  0.57442  0.44297  0.94959  1.0000
  H   H3609     1.0  0.58760  0.45527  0.94126  1.0000
  H   H3610     1.0  0.56701  0.47511  0.91906  1.0000
  H   H3611     1.0  0.55394  0.46302  0.92740  1.0000
  H   H3612     1.0  0.65722  0.48334  0.91225  1.0000
  H   H3613     1.0  0.70356  0.53921  0.94213  1.0000
  Fe  Fe452     1.0  0.69800  0.50219  0.92436  1.0000
  H   H3614     1.0  0.52182  0.53601  0.94003  1.0000
  H   H3615     1.0  0.56617  0.54564  0.95404  1.0000
  C   C2268     1.0  0.53968  0.51299  0.93248  1.0000
  C   C2269     1.0  0.53314  0.50552  0.93865  1.0000
  C   C2270     1.0  0.53001  0.49912  0.93348  1.0000
  C   C2271     1.0  0.53362  0.49988  0.92211  1.0000
  C   C2272     1.0  0.53980  0.50769  0.91582  1.0000
  C   C2273     1.0  0.54281  0.51428  0.92100  1.0000
  H   H3616     1.0  0.53047  0.50465  0.94750  1.0000
  H   H3617     1.0  0.52478  0.49356  0.93833  1.0000
  H   H3618     1.0  0.54253  0.50839  0.90700  1.0000
  H   H3619     1.0  0.54782  0.52007  0.91617  1.0000
  C   C2274     1.0  0.59138  0.55367  0.91067  1.0000
  C   C2275     1.0  0.58669  0.56194  0.91666  1.0000
  C   C2276     1.0  0.59332  0.56703  0.91955  1.0000
  C   C2277     1.0  0.60468  0.56355  0.91692  1.0000
  C   C2278     1.0  0.60940  0.55530  0.91090  1.0000
  C   C2279     1.0  0.60275  0.55060  0.90751  1.0000
  H   H3620     1.0  0.57795  0.56445  0.91906  1.0000
  H   H3621     1.0  0.58962  0.57348  0.92412  1.0000
  H   H3622     1.0  0.61817  0.55268  0.90869  1.0000
  H   H3623     1.0  0.60641  0.54434  0.90271  1.0000
  C   C2280     1.0  0.50178  0.58971  0.93303  1.0000
  C   C2281     1.0  0.50045  0.59035  0.92249  1.0000
  C   C2282     1.0  0.50868  0.58446  0.91531  1.0000
  C   C2283     1.0  0.51828  0.57808  0.91860  1.0000
  C   C2284     1.0  0.51974  0.57790  0.92894  1.0000
  C   C2285     1.0  0.51145  0.58350  0.93621  1.0000
  H   H3624     1.0  0.49005  0.61625  0.97733  1.0000
  H   H3625     1.0  0.50750  0.58465  0.90729  1.0000
  H   H3626     1.0  0.52724  0.57338  0.93144  1.0000
  H   H3627     1.0  0.51257  0.58304  0.94432  1.0000
  H   H3628     1.0  0.66487  0.51336  0.91284  1.0000
  H   H3629     1.0  0.73136  0.51128  0.96814  1.0000
  C   C2286     1.0  0.49848  0.41789  0.93170  1.0000
  C   C2287     1.0  0.50855  0.41958  0.93190  1.0000
  C   C2288     1.0  0.50943  0.42978  0.93305  1.0000
  C   C2289     1.0  0.50023  0.43840  0.93390  1.0000
  N   N225      1.0  0.68127  0.58535  0.95478  1.0000
  H   H3630     1.0  0.70239  0.54898  0.91324  1.0000
  H   H3631     1.0  0.51572  0.41299  0.93107  1.0000
  H   H3632     1.0  0.51724  0.43102  0.93308  1.0000
  H   H3633     1.0  0.56154  0.56618  0.98272  1.0000
  H   H3634     1.0  0.64372  0.50584  0.95706  1.0000
  H   H3635     1.0  0.61097  0.50380  0.95352  1.0000
  S   S916      1.0  0.72841  0.55451  0.92879  1.0000
  H   H3636     1.0  0.67248  0.60098  0.94717  1.0000
  N   N226      1.0  0.64869  0.48850  0.95724  1.0000
  S   S917      1.0  0.59362  0.49233  0.96553  1.0000
  C   C2290     1.0  0.65739  0.47743  0.92003  1.0000
  C   C2291     1.0  0.70195  0.53083  0.93061  1.0000
  H   H3637     1.0  0.72102  0.54086  0.88799  1.0000
  H   H3638     1.0  0.62188  0.44422  0.97246  1.0000
  H   H3639     1.0  0.69419  0.53611  0.92938  1.0000
  H   H3640     1.0  0.51727  0.34499  0.96276  1.0000
  H   H3641     1.0  0.50126  0.55450  0.93677  1.0000
  H   H3642     1.0  0.65796  0.48403  0.94198  1.0000
  C   C2292     1.0  0.66699  0.47374  0.92401  1.0000
  H   H3643     1.0  0.51194  0.46136  0.88645  1.0000
  H   H3644     1.0  0.62244  0.51215  0.95970  1.0000
  H   H3645     1.0  0.50050  0.41848  0.95703  1.0000
  C   C2293     1.0  0.56536  0.55021  0.96013  1.0000
  S   S918      1.0  0.69995  0.51946  0.91660  1.0000
  H   H3646     1.0  0.64021  0.49697  0.97034  1.0000
  C   C2294     1.0  0.73636  0.57756  0.97315  1.0000
  H   H3647     1.0  0.61187  0.51961  0.94029  1.0000
  H   H3648     1.0  0.51959  0.44680  0.90117  1.0000
  H   H3649     1.0  0.49567  0.45165  0.95841  1.0000
  H   H3650     1.0  0.71968  0.45209  0.97792  1.0000
  S   S919      1.0  0.49161  0.59632  0.94264  1.0000
  N   N227      1.0  0.59601  0.53042  0.94093  1.0000
  C   C2295     1.0  0.58997  0.52349  0.95044  1.0000
  S   S920      1.0  0.72364  0.52743  0.94886  1.0000
  C   C2296     1.0  0.59537  0.52807  0.93062  1.0000
  C   C2297     1.0  0.60755  0.52801  0.94157  1.0000
  H   H3651     1.0  0.59092  0.52436  0.95842  1.0000
  H   H3652     1.0  0.51005  0.35724  0.95495  1.0000
  C   C2298     1.0  0.48926  0.42644  0.93279  1.0000
  H   H3653     1.0  0.52512  0.53423  0.91634  1.0000
  H   H3654     1.0  0.52904  0.46500  0.90322  1.0000
  C   C2299     1.0  0.55753  0.56008  0.96044  1.0000
  H   H3655     1.0  0.60017  0.53279  0.92330  1.0000
  H   H3656     1.0  0.50591  0.62537  0.93262  1.0000
  H   H3657     1.0  0.51323  0.48784  0.98139  1.0000
  H   H3658     1.0  0.68499  0.51169  0.90642  1.0000
  H   H3659     1.0  0.50141  0.54629  0.91675  1.0000
  C   C2300     1.0  0.50407  0.61773  0.91616  1.0000
  N   N228      1.0  0.58530  0.50972  0.90454  1.0000
  C   C2301     1.0  0.59554  0.50135  0.90266  1.0000
  C   C2302     1.0  0.58217  0.51533  0.89390  1.0000
  C   C2303     1.0  0.58691  0.51793  0.90956  1.0000
  C   C2304     1.0  0.57660  0.50428  0.91202  1.0000
  H   H3660     1.0  0.59467  0.49503  0.89883  1.0000
  H   H3661     1.0  0.59810  0.49687  0.91053  1.0000
  H   H3662     1.0  0.60237  0.50517  0.89724  1.0000
  H   H3663     1.0  0.57453  0.52178  0.89501  1.0000
  H   H3664     1.0  0.58860  0.51950  0.88808  1.0000
  H   H3665     1.0  0.58085  0.50941  0.88987  1.0000
  H   H3666     1.0  0.57934  0.52435  0.91115  1.0000
  H   H3667     1.0  0.59338  0.52226  0.90411  1.0000
  H   H3668     1.0  0.58945  0.51401  0.91751  1.0000
  H   H3669     1.0  0.56872  0.51031  0.91357  1.0000
  H   H3670     1.0  0.57869  0.50002  0.92014  1.0000
  H   H3671     1.0  0.57531  0.49788  0.90857  1.0000
  H   H3672     1.0  0.49312  0.47039  0.96081  1.0000
  C   C2305     1.0  0.64517  0.56117  0.97520  1.0000
  C   C2306     1.0  0.59984  0.49862  0.98089  1.0000
  H   H3673     1.0  0.61632  0.56769  0.95008  1.0000
  H   H3674     1.0  0.70868  0.48269  0.97069  1.0000
  N   N229      1.0  0.51235  0.54278  0.92755  1.0000
  H   H3675     1.0  0.52748  0.60924  0.92552  1.0000
  C   C2307     1.0  0.51239  0.59890  0.98584  1.0000
  C   C2308     1.0  0.70714  0.47756  0.96592  1.0000
  H   H3676     1.0  0.73252  0.53986  0.90592  1.0000
  H   H3677     1.0  0.61483  0.55180  0.96627  1.0000
  S   S921      1.0  0.72270  0.57627  0.93915  1.0000
  H   H3678     1.0  0.50612  0.53188  0.92227  1.0000
  H   H3679     1.0  0.61200  0.53384  0.93504  1.0000
  C   C2309     1.0  0.64655  0.49783  0.96258  1.0000
  H   H3680     1.0  0.50959  0.34617  0.93661  1.0000
  H   H3681     1.0  0.51884  0.62897  0.92610  1.0000
  H   H3682     1.0  0.67504  0.55348  0.95923  1.0000
  H   H3683     1.0  0.70461  0.45115  0.97039  1.0000
  H   H3684     1.0  0.67087  0.52219  0.97341  1.0000
  N   N230      1.0  0.67284  0.52660  0.90347  1.0000
  C   C2310     1.0  0.68731  0.50748  0.96096  1.0000
  H   H3685     1.0  0.55502  0.47031  0.95561  1.0000
  H   H3686     1.0  0.67447  0.52261  0.92033  1.0000
  Fe  Fe453     1.0  0.70895  0.47906  0.93448  1.0000
  H   H3687     1.0  0.72568  0.50394  0.95577  1.0000
  C   C2311     1.0  0.68333  0.51921  0.89985  1.0000
  C   C2312     1.0  0.71700  0.52537  0.93986  1.0000
  C   C2313     1.0  0.66394  0.52076  0.90596  1.0000
  H   H3688     1.0  0.63580  0.49606  0.94855  1.0000
  C   C2314     1.0  0.67106  0.53657  0.89464  1.0000
  C   C2315     1.0  0.70722  0.53254  0.93785  1.0000
  S   S922      1.0  0.70539  0.48696  0.91759  1.0000
  H   H3689     1.0  0.65588  0.52617  0.90848  1.0000
  H   H3690     1.0  0.66516  0.53529  0.91649  1.0000
  H   H3691     1.0  0.72709  0.56037  0.90068  1.0000
  H   H3692     1.0  0.68345  0.51644  0.89240  1.0000
  H   H3693     1.0  0.72601  0.49073  0.96484  1.0000
  H   H3694     1.0  0.49298  0.59510  0.92001  1.0000
  H   H3695     1.0  0.67088  0.53448  0.88693  1.0000
  H   H3696     1.0  0.67756  0.54124  0.89270  1.0000
  H   H3697     1.0  0.66322  0.54234  0.89715  1.0000
  S   S923      1.0  0.67636  0.49171  0.96275  1.0000
  S   S924      1.0  0.72459  0.46874  0.93952  1.0000
  C   C2316     1.0  0.52137  0.62260  0.90724  1.0000
  H   H3698     1.0  0.59600  0.54755  0.93438  1.0000
  H   H3699     1.0  0.72934  0.51127  0.93571  1.0000
  Fe  Fe454     1.0  0.68882  0.48295  0.92524  1.0000
  C   C2317     1.0  0.71812  0.57513  0.97549  1.0000
  H   H3700     1.0  0.66371  0.51790  0.89869  1.0000
  C   C2318     1.0  0.71848  0.55955  0.90300  1.0000
  H   H3701     1.0  0.51452  0.60581  0.93230  1.0000
  H   H3702     1.0  0.72079  0.53990  0.91703  1.0000
  H   H3703     1.0  0.61891  0.45704  0.96296  1.0000
  H   H3704     1.0  0.57778  0.53839  0.96793  1.0000
  S   S925      1.0  0.69302  0.47360  0.94149  1.0000
  C   C2319     1.0  0.70661  0.52209  0.92523  1.0000
  C   C2320     1.0  0.67280  0.59557  0.95549  1.0000
  H   H3705     1.0  0.49048  0.42230  0.96886  1.0000
  N   N231      1.0  0.60207  0.56609  0.96308  1.0000
  C   C2321     1.0  0.59012  0.56880  0.96435  1.0000
  C   C2322     1.0  0.60501  0.57203  0.96969  1.0000
  C   C2323     1.0  0.60731  0.56943  0.95132  1.0000
  C   C2324     1.0  0.60585  0.55409  0.96699  1.0000
  H   H3706     1.0  0.65942  0.52292  0.96081  1.0000
  H   H3707     1.0  0.60840  0.45286  0.97446  1.0000
  C   C2325     1.0  0.53017  0.46545  0.97229  1.0000
  H   H3708     1.0  0.61398  0.57014  0.96893  1.0000
  H   H3709     1.0  0.60234  0.58111  0.96695  1.0000
  H   H3710     1.0  0.51972  0.32977  0.94782  1.0000
  C   C2326     1.0  0.50043  0.40082  0.97389  1.0000
  C   C2327     1.0  0.51417  0.34845  0.95502  1.0000
  H   H3711     1.0  0.58699  0.57776  0.96132  1.0000
  S   S926      1.0  0.70360  0.51278  0.98048  1.0000
  H   H3712     1.0  0.48900  0.44190  0.96903  1.0000
  C   C2328     1.0  0.53845  0.47192  0.98309  1.0000
  N   N232      1.0  0.50665  0.34216  0.95436  1.0000
  H   H3713     1.0  0.50679  0.56034  0.92263  1.0000
  H   H3714     1.0  0.59287  0.51461  0.95018  1.0000
  C   C2329     1.0  0.55966  0.48900  0.94217  1.0000
  C   C2330     1.0  0.61453  0.50814  0.97684  1.0000
  H   H3715     1.0  0.49944  0.62563  0.91190  1.0000
  C   C2331     1.0  0.55628  0.56584  0.96855  1.0000
  C   C2332     1.0  0.52081  0.47375  0.97410  1.0000
  Fe  Fe455     1.0  0.68672  0.48998  0.94613  1.0000
  H   H3716     1.0  0.66460  0.59372  0.95931  1.0000
  C   C2333     1.0  0.70586  0.54852  0.90447  1.0000
  H   H3717     1.0  0.54619  0.45805  0.97547  1.0000
  H   H3718     1.0  0.67908  0.58402  0.93932  1.0000
  H   H3719     1.0  0.69023  0.52336  0.89786  1.0000
  S   S927      1.0  0.67865  0.47877  0.91617  1.0000
  H   H3720     1.0  0.58277  0.54465  0.93962  1.0000
  C   C2334     1.0  0.50280  0.34691  0.94396  1.0000
  C   C2335     1.0  0.51500  0.53453  0.93748  1.0000
  H   H3721     1.0  0.72006  0.50836  0.92288  1.0000
  C   C2336     1.0  0.72164  0.51667  0.93443  1.0000
  H   H3722     1.0  0.68652  0.51035  0.95246  1.0000
  C   C2337     1.0  0.71645  0.51506  0.92711  1.0000
  H   H3723     1.0  0.55339  0.48623  0.93995  1.0000
  S   S928      1.0  0.68127  0.49894  0.93057  1.0000
  H   H3724     1.0  0.71320  0.47813  0.95793  1.0000
  H   H3725     1.0  0.48821  0.40370  0.95304  1.0000
  N   N233      1.0  0.51348  0.46400  0.90158  1.0000
  C   C2338     1.0  0.50726  0.47074  0.90977  1.0000
  C   C2339     1.0  0.66355  0.52660  0.97853  1.0000
  H   H3726     1.0  0.50404  0.45441  0.97214  1.0000
  C   C2340     1.0  0.51483  0.45217  0.90704  1.0000
  H   H3727     1.0  0.58757  0.56427  0.95968  1.0000
  H   H3728     1.0  0.51496  0.32653  0.96257  1.0000
  H   H3729     1.0  0.49393  0.39112  0.96161  1.0000
  H   H3730     1.0  0.63721  0.45037  0.97471  1.0000
  H   H3731     1.0  0.52050  0.54874  0.91087  1.0000
  H   H3732     1.0  0.67335  0.57645  0.97026  1.0000
  C   C2341     1.0  0.65397  0.51218  0.98193  1.0000
  H   H3733     1.0  0.65408  0.47088  0.96102  1.0000
  H   H3734     1.0  0.65970  0.55628  0.95018  1.0000
  H   H3735     1.0  0.52888  0.54436  0.92070  1.0000
  H   H3736     1.0  0.54641  0.49979  0.95729  1.0000
  C   C2342     1.0  0.57046  0.55184  0.97617  1.0000
  H   H3737     1.0  0.54787  0.48882  0.96913  1.0000
  C   C2343     1.0  0.59119  0.54217  0.94102  1.0000
  H   H3738     1.0  0.51755  0.52603  0.93597  1.0000
  C   C2344     1.0  0.56760  0.48954  0.95672  1.0000
  H   H3739     1.0  0.58686  0.53029  0.92952  1.0000
  C   C2345     1.0  0.64726  0.55970  0.96450  1.0000
  C   C2346     1.0  0.70037  0.46579  0.98307  1.0000
  H   H3740     1.0  0.55021  0.57345  0.96884  1.0000
  S   S929      1.0  0.49776  0.40500  0.93012  1.0000
  N   N234      1.0  0.55916  0.48569  0.95416  1.0000
  C   C2347     1.0  0.73111  0.49578  0.95813  1.0000
  C   C2348     1.0  0.49429  0.39994  0.95830  1.0000
  H   H3741     1.0  0.63473  0.46271  0.97962  1.0000
  H   H3742     1.0  0.60839  0.52873  0.94965  1.0000
  C   C2349     1.0  0.63861  0.48830  0.95438  1.0000
  H   H3743     1.0  0.69758  0.51849  0.95948  1.0000
  H   H3744     1.0  0.66538  0.48842  0.94898  1.0000
  H   H3745     1.0  0.57589  0.48591  0.95240  1.0000
  H   H3746     1.0  0.49251  0.35135  0.96374  1.0000
  H   H3747     1.0  0.50874  0.40126  0.96881  1.0000
  N   N235      1.0  0.65346  0.52412  0.97782  1.0000
  H   H3748     1.0  0.65573  0.49826  0.94187  1.0000
  H   H3749     1.0  0.67065  0.57726  0.95141  1.0000
  H   H3750     1.0  0.56638  0.49867  0.95421  1.0000
  C   C2350     1.0  0.66451  0.55668  0.97463  1.0000
  C   C2351     1.0  0.68242  0.49897  0.96792  1.0000
  H   H3751     1.0  0.51454  0.59342  0.97993  1.0000
  H   H3752     1.0  0.59092  0.54407  0.94898  1.0000
  H   H3753     1.0  0.50363  0.61836  0.97353  1.0000
  H   H3754     1.0  0.50612  0.47972  0.90600  1.0000
  C   C2352     1.0  0.65804  0.55728  0.95855  1.0000
  C   C2353     1.0  0.52035  0.48125  0.98023  1.0000
  C   C2354     1.0  0.69350  0.51213  0.96492  1.0000
  C   C2355     1.0  0.72852  0.57557  0.96892  1.0000
  S   S930      1.0  0.70857  0.57179  0.97060  1.0000
  H   H3755     1.0  0.50682  0.44982  0.91068  1.0000
  H   H3756     1.0  0.64484  0.52557  0.96538  1.0000
  C   C2356     1.0  0.60160  0.49862  0.96974  1.0000
  H   H3757     1.0  0.59869  0.51921  0.93043  1.0000
  C   C2357     1.0  0.54832  0.49066  0.96011  1.0000
  H   H3758     1.0  0.71368  0.56686  0.89816  1.0000
  C   C2358     1.0  0.66671  0.55579  0.96363  1.0000
  H   H3759     1.0  0.49863  0.61476  0.92411  1.0000
  C   C2359     1.0  0.50868  0.55389  0.93001  1.0000
  C   C2360     1.0  0.49239  0.41754  0.96236  1.0000
  N   N236      1.0  0.51417  0.61914  0.91800  1.0000
  C   C2361     1.0  0.51973  0.60858  0.92409  1.0000
  H   H3760     1.0  0.71538  0.56004  0.91181  1.0000
  H   H3761     1.0  0.68745  0.57044  0.96576  1.0000
  H   H3762     1.0  0.63190  0.48737  0.96183  1.0000
  H   H3763     1.0  0.50702  0.32568  0.95368  1.0000
  H   H3764     1.0  0.51506  0.55609  0.93260  1.0000
  C   C2362     1.0  0.52212  0.54248  0.91845  1.0000
  Fe  Fe456     1.0  0.73680  0.56187  0.93698  1.0000
  H   H3765     1.0  0.51733  0.63050  0.90242  1.0000
  H   H3766     1.0  0.60191  0.55128  0.97580  1.0000
  H   H3767     1.0  0.52361  0.61630  0.90215  1.0000
  S   S931      1.0  0.67489  0.55321  0.98192  1.0000
  H   H3768     1.0  0.60388  0.54934  0.96213  1.0000
  H   H3769     1.0  0.49885  0.35581  0.94324  1.0000
  C   C2363     1.0  0.51143  0.62768  0.92450  1.0000
  C   C2364     1.0  0.68142  0.57843  0.96598  1.0000
  H   H3770     1.0  0.50244  0.40031  0.95278  1.0000
  H   H3771     1.0  0.52905  0.62382  0.90831  1.0000
  C   C2365     1.0  0.51236  0.33053  0.95462  1.0000
  H   H3772     1.0  0.65189  0.53636  0.96287  1.0000
  H   H3773     1.0  0.56928  0.46958  0.95350  1.0000
  H   H3774     1.0  0.72743  0.48931  0.92447  1.0000
  C   C2366     1.0  0.72372  0.53973  0.90812  1.0000
  H   H3775     1.0  0.68485  0.57130  0.94760  1.0000
  H   H3776     1.0  0.51911  0.45011  0.91391  1.0000
  C   C2367     1.0  0.53901  0.46454  0.97678  1.0000
  H   H3777     1.0  0.73094  0.49846  0.97795  1.0000
  H   H3778     1.0  0.60122  0.56968  0.97861  1.0000
  H   H3779     1.0  0.69177  0.46964  0.98244  1.0000
  H   H3780     1.0  0.55833  0.49809  0.93923  1.0000
  H   H3781     1.0  0.69409  0.59284  0.95454  1.0000
  C   C2368     1.0  0.57190  0.54612  0.96797  1.0000
  H   H3782     1.0  0.69856  0.58066  0.94921  1.0000
  H   H3783     1.0  0.50037  0.39198  0.97774  1.0000
  H   H3784     1.0  0.66341  0.53553  0.97560  1.0000
  C   C2369     1.0  0.48826  0.45079  0.96506  1.0000
  H   H3785     1.0  0.51151  0.46913  0.91658  1.0000
  H   H3786     1.0  0.52169  0.60189  0.91951  1.0000
  H   H3787     1.0  0.56773  0.48540  0.93745  1.0000
  N   N237      1.0  0.62037  0.45855  0.97857  1.0000
  S   S932      1.0  0.51000  0.47510  0.96813  1.0000
  H   H3788     1.0  0.71713  0.55565  0.88414  1.0000
  H   H3789     1.0  0.54178  0.48750  0.95884  1.0000
  C   C2370     1.0  0.61722  0.45291  0.97185  1.0000
  C   C2371     1.0  0.56269  0.56170  0.97642  1.0000
  C   C2372     1.0  0.50751  0.46636  0.89275  1.0000
  C   C2373     1.0  0.65374  0.55961  0.98023  1.0000
  H   H3790     1.0  0.58590  0.56656  0.97316  1.0000
  C   C2374     1.0  0.68330  0.49543  0.97890  1.0000
  H   H3791     1.0  0.69566  0.46361  0.96509  1.0000
  H   H3792     1.0  0.67438  0.60035  0.96060  1.0000
  C   C2375     1.0  0.69483  0.50815  0.97579  1.0000
  C   C2376     1.0  0.61376  0.46994  0.97769  1.0000
  H   H3793     1.0  0.65400  0.49837  0.96467  1.0000
  C   C2377     1.0  0.69199  0.58818  0.94967  1.0000
  H   H3794     1.0  0.69230  0.59317  0.94108  1.0000
  H   H3795     1.0  0.50791  0.53471  0.94461  1.0000
  C   C2378     1.0  0.68962  0.49992  0.98281  1.0000
  H   H3796     1.0  0.49908  0.46885  0.91365  1.0000
  H   H3797     1.0  0.65986  0.47802  0.96724  1.0000
  H   H3798     1.0  0.63687  0.56309  0.97984  1.0000
  H   H3799     1.0  0.49160  0.64496  0.93610  1.0000
  C   C2379     1.0  0.52429  0.46672  0.89678  1.0000
  C   C2380     1.0  0.49876  0.61189  0.97657  1.0000
  C   C2381     1.0  0.70724  0.54092  0.98053  1.0000
  H   H3800     1.0  0.49609  0.54034  0.93090  1.0000
  C   C2382     1.0  0.67883  0.57924  0.94798  1.0000
  C   C2383     1.0  0.49016  0.43667  0.93380  1.0000
  H   H3801     1.0  0.70085  0.55545  0.89947  1.0000
  C   C2384     1.0  0.70420  0.45992  0.96603  1.0000
  C   C2385     1.0  0.49094  0.65357  0.93214  1.0000
  H   H3802     1.0  0.70473  0.54067  0.90349  1.0000
  C   C2386     1.0  0.72170  0.54867  0.88952  1.0000
  H   H3803     1.0  0.49984  0.33935  0.97187  1.0000
  H   H3804     1.0  0.51792  0.60476  0.98267  1.0000
  H   H3805     1.0  0.70942  0.46002  0.95760  1.0000
  H   H3806     1.0  0.50635  0.47521  0.88844  1.0000
  H   H3807     1.0  0.69900  0.48139  0.96400  1.0000
  H   H3808     1.0  0.72299  0.53169  0.90719  1.0000
  H   H3809     1.0  0.49666  0.34271  0.94346  1.0000
  N   N238      1.0  0.70769  0.46601  0.97206  1.0000
  H   H3810     1.0  0.71128  0.53293  0.97804  1.0000
  H   H3811     1.0  0.52921  0.46183  0.89052  1.0000
  S   S933      1.0  0.73170  0.55178  0.95393  1.0000
  C   C2387     1.0  0.49638  0.45360  0.97837  1.0000
  H   H3812     1.0  0.64331  0.53935  0.98168  1.0000
  H   H3813     1.0  0.49930  0.46441  0.89613  1.0000
  H   H3814     1.0  0.66081  0.50731  0.97677  1.0000
  C   C2388     1.0  0.65236  0.52737  0.96621  1.0000
  H   H3815     1.0  0.73055  0.57433  0.96059  1.0000
  H   H3816     1.0  0.49011  0.64329  0.96097  1.0000
  H   H3817     1.0  0.69935  0.54381  0.97785  1.0000
  H   H3818     1.0  0.61483  0.47470  0.96899  1.0000
  H   H3819     1.0  0.61593  0.47450  0.98261  1.0000
  H   H3820     1.0  0.50077  0.60702  0.97013  1.0000
  H   H3821     1.0  0.49896  0.40503  0.98076  1.0000
  H   H3822     1.0  0.63368  0.46353  0.96581  1.0000
  S   S934      1.0  0.62366  0.51241  0.98159  1.0000
  H   H3823     1.0  0.72465  0.46076  0.96500  1.0000
  C   C2389     1.0  0.60632  0.50331  0.98443  1.0000
  N   N239      1.0  0.49208  0.40583  0.96722  1.0000
  H   H3824     1.0  0.73388  0.49190  0.95086  1.0000
  H   H3825     1.0  0.67959  0.48881  0.98418  1.0000
  C   C2390     1.0  0.52926  0.48043  0.98457  1.0000
  H   H3826     1.0  0.73043  0.54911  0.88683  1.0000
  C   C2391     1.0  0.63202  0.45882  0.97450  1.0000
  H   H3827     1.0  0.72187  0.46524  0.97769  1.0000
  H   H3828     1.0  0.64636  0.51005  0.98181  1.0000
  C   C2392     1.0  0.73628  0.50288  0.97083  1.0000
  C   C2393     1.0  0.73449  0.48593  0.92808  1.0000
  H   H3829     1.0  0.49566  0.45852  0.98447  1.0000
  H   H3830     1.0  0.49540  0.59141  0.98522  1.0000
  H   H3831     1.0  0.63622  0.52859  0.98427  1.0000
  C   C2394     1.0  0.64397  0.53030  0.98461  1.0000
  C   C2395     1.0  0.71548  0.57689  0.98619  1.0000
  S   S935      1.0  0.57811  0.54661  0.98636  1.0000
  H   H3832     1.0  0.48906  0.97342  0.16085  1.0000
  C   C2396     1.0  0.49454  0.95926  0.17907  1.0000
  S   S936      1.0  0.49275  0.91635  0.00363  1.0000
  H   H3833     1.0  0.49271  0.96508  0.18458  1.0000
  S   S937      1.0  0.49208  0.94328  0.08642  1.0000
  H   H3834     1.0  0.50000  0.73763  0.03662  1.0000
  H   H3835     1.0  0.51053  0.97784  0.05554  1.0000
  C   C2397     1.0  0.49415  0.96915  0.06953  1.0000
  H   H3836     1.0  0.50571  0.71825  0.05550  1.0000
  C   C2398     1.0  0.49062  0.93519  0.06951  1.0000
  H   H3837     1.0  0.49809  0.92935  0.07088  1.0000
  H   H3838     1.0  0.49434  0.77768  0.02641  1.0000
  H   H3839     1.0  0.49052  0.78705  0.99452  1.0000
  H   H3840     1.0  0.51628  0.95547  0.17522  1.0000
  H   H3841     1.0  0.48973  0.66393  0.98953  1.0000
  H   H3842     1.0  0.49835  0.98360  0.05030  1.0000
  N   N240      1.0  0.49582  0.98036  0.06795  1.0000
  H   H3843     1.0  0.48987  0.74731  0.05159  1.0000
  C   C2399     1.0  0.50155  0.98047  0.07627  1.0000
  H   H3844     1.0  0.52444  0.79363  0.99035  1.0000
  H   H3845     1.0  0.51801  0.96620  0.16297  1.0000
  H   H3846     1.0  0.49676  0.97805  0.08477  1.0000
  C   C2400     1.0  0.50081  0.72630  0.05738  1.0000
  H   H3847     1.0  0.49806  0.95095  0.18362  1.0000
  C   C2401     1.0  0.49681  0.97368  0.16262  1.0000
  H   H3848     1.0  0.50961  0.97461  0.07561  1.0000
  H   H3849     1.0  0.50198  0.96292  0.06879  1.0000
  C   C2402     1.0  0.49476  0.73149  0.04031  1.0000
  H   H3850     1.0  0.49847  0.98703  0.24440  1.0000
  N   N241      1.0  0.50199  0.96277  0.16850  1.0000
  S   S938      1.0  0.48996  0.94826  0.13691  1.0000
  H   H3851     1.0  0.48878  0.87838  0.01579  1.0000
  S   S939      1.0  0.51109  0.81167  0.00013  1.0000
  H   H3852     1.0  0.49493  0.98003  0.16759  1.0000
  H   H3853     1.0  0.50219  0.97656  0.15458  1.0000
  C   C2403     1.0  0.50930  0.80563  0.99039  1.0000
  N   N242      1.0  0.49118  0.73017  0.05239  1.0000
  S   S940      1.0  0.49044  0.82531  0.02448  1.0000
  Fe  Fe457     1.0  0.49505  0.82131  0.00773  1.0000
  H   H3854     1.0  0.48985  0.96868  0.06343  1.0000
  H   H3855     1.0  0.48968  0.92892  0.05600  1.0000
  S   S941      1.0  0.49459  0.98433  0.19074  1.0000
  C   C2404     1.0  0.51218  0.96354  0.17074  1.0000
  H   H3856     1.0  0.48918  0.96648  0.07787  1.0000
  H   H3857     1.0  0.51056  0.96963  0.17596  1.0000
  H   H3858     1.0  0.49407  0.81685  0.98821  1.0000
  H   H3859     1.0  0.49687  0.95387  0.15983  1.0000
  C   C2405     1.0  0.50243  0.98362  0.05677  1.0000
  S   S942      1.0  0.49274  0.96219  0.10536  1.0000
  C   C2406     1.0  0.50442  0.95464  0.16160  1.0000
  H   H3860     1.0  0.50621  0.73230  0.05419  1.0000
  H   H3861     1.0  0.49933  0.72355  0.03793  1.0000
  H   H3862     1.0  0.49841  0.72521  0.06652  1.0000
  H   H3863     1.0  0.50993  0.95706  0.15350  1.0000
  H   H3864     1.0  0.50833  0.94630  0.16574  1.0000
  C   C2407     1.0  0.51730  0.79688  0.98683  1.0000
  H   H3865     1.0  0.48862  0.71386  0.05475  1.0000
  H   H3866     1.0  0.50281  0.98883  0.07546  1.0000
  C   C2408     1.0  0.69074  0.97040  0.54007  1.0000
  H   H3867     1.0  0.61633  0.95434  0.51767  1.0000
  H   H3868     1.0  0.54177  0.97115  0.49190  1.0000
  H   H3869     1.0  0.52342  0.97899  0.56144  1.0000
  Fe  Fe458     1.0  0.62879  0.96635  0.45402  1.0000
  H   H3870     1.0  0.51517  0.96637  0.39740  1.0000
  S   S943      1.0  0.66106  0.96810  0.52007  1.0000
  S   S944      1.0  0.49561  0.97141  0.38953  1.0000
  S   S945      1.0  0.73546  0.95545  0.53275  1.0000
  C   C2409     1.0  0.67461  0.97077  0.55950  1.0000
  H   H3871     1.0  0.54037  0.94041  0.48677  1.0000
  H   H3872     1.0  0.63607  0.95727  0.50501  1.0000
  H   H3873     1.0  0.49633  0.98406  0.64936  1.0000
  C   C2410     1.0  0.66281  0.96055  0.43119  1.0000
  H   H3874     1.0  0.60070  0.95578  0.53928  1.0000
  S   S946      1.0  0.53025  0.95180  0.54506  1.0000
  S   S947      1.0  0.52232  0.96124  0.45808  1.0000
  H   H3875     1.0  0.65312  0.98925  0.45718  1.0000
  H   H3876     1.0  0.57201  0.97461  0.48455  1.0000
  H   H3877     1.0  0.58826  0.95230  0.46260  1.0000
  C   C2411     1.0  0.58106  0.95760  0.45993  1.0000
  H   H3878     1.0  0.73637  0.95754  0.47939  1.0000
  S   S948      1.0  0.54731  0.96952  0.52071  1.0000
  C   C2412     1.0  0.63419  0.93644  0.49496  1.0000
  Fe  Fe459     1.0  0.51671  0.96796  0.44202  1.0000
  C   C2413     1.0  0.64176  0.92792  0.49987  1.0000
  C   C2414     1.0  0.62584  0.93939  0.53333  1.0000
  Fe  Fe460     1.0  0.70412  0.97528  0.46036  1.0000
  C   C2415     1.0  0.67167  0.97140  0.54972  1.0000
  S   S949      1.0  0.55441  0.95395  0.45216  1.0000
  H   H3879     1.0  0.53051  0.96485  0.49934  1.0000
  S   S950      1.0  0.63754  0.97460  0.51224  1.0000
  H   H3880     1.0  0.65735  0.91576  0.46529  1.0000
  S   S951      1.0  0.61518  0.98026  0.45861  1.0000
  C   C2416     1.0  0.67362  0.95740  0.43236  1.0000
  C   C2417     1.0  0.60471  0.97668  0.52065  1.0000
  H   H3881     1.0  0.60351  0.98812  0.55854  1.0000
  C   C2418     1.0  0.51408  0.98429  0.49546  1.0000
  H   H3882     1.0  0.61184  0.92706  0.53470  1.0000
  S   S952      1.0  0.69942  0.97868  0.47719  1.0000
  H   H3883     1.0  0.64937  0.92222  0.47643  1.0000
  C   C2419     1.0  0.50843  0.96668  0.40448  1.0000
  H   H3884     1.0  0.58872  0.98663  0.54287  1.0000
  C   C2420     1.0  0.60857  0.93396  0.53910  1.0000
  H   H3885     1.0  0.51775  0.98665  0.41853  1.0000
  C   C2421     1.0  0.65726  0.92156  0.47027  1.0000
  H   H3886     1.0  0.51254  0.98591  0.34191  1.0000
  C   C2422     1.0  0.48909  0.96928  0.41223  1.0000
  C   C2423     1.0  0.59764  0.97370  0.43283  1.0000
  C   C2424     1.0  0.52542  0.97397  0.56943  1.0000
  C   C2425     1.0  0.59099  0.98289  0.53582  1.0000
  N   N243      1.0  0.61408  0.94319  0.53352  1.0000
  Fe  Fe461     1.0  0.62960  0.97787  0.52901  1.0000
  H   H3887     1.0  0.49517  0.98819  0.33644  1.0000
  N   N244      1.0  0.65860  0.93247  0.46322  1.0000
  Fe  Fe462     1.0  0.54021  0.98737  0.54205  1.0000
  C   C2426     1.0  0.55392  0.95390  0.48293  1.0000
  H   H3888     1.0  0.64336  0.91973  0.49841  1.0000
  H   H3889     1.0  0.55616  0.94861  0.47681  1.0000
  H   H3890     1.0  0.61612  0.94068  0.51722  1.0000
  H   H3891     1.0  0.53879  0.97016  0.47422  1.0000
  C   C2427     1.0  0.56415  0.95985  0.45420  1.0000
  H   H3892     1.0  0.65397  0.96908  0.48170  1.0000
  C   C2428     1.0  0.57656  0.97723  0.48910  1.0000
  S   S953      1.0  0.70702  0.96854  0.55112  1.0000
  H   H3893     1.0  0.70040  0.97461  0.49990  1.0000
  H   H3894     1.0  0.68373  0.95758  0.47621  1.0000
  Fe  Fe463     1.0  0.61917  0.97452  0.47523  1.0000
  C   C2429     1.0  0.60943  0.95222  0.53953  1.0000
  C   C2430     1.0  0.53851  0.94575  0.49279  1.0000
  H   H3895     1.0  0.66068  0.95848  0.42462  1.0000
  H   H3896     1.0  0.72742  0.98434  0.48490  1.0000
  H   H3897     1.0  0.68377  0.96670  0.49052  1.0000
  H   H3898     1.0  0.53381  0.97446  0.56921  1.0000
  H   H3899     1.0  0.62971  0.93266  0.52876  1.0000
  H   H3900     1.0  0.61383  0.95906  0.53588  1.0000
  H   H3901     1.0  0.67975  0.95278  0.42679  1.0000
  C   C2431     1.0  0.53638  0.96217  0.47841  1.0000
  C   C2432     1.0  0.53940  0.96308  0.49568  1.0000
  H   H3902     1.0  0.59644  0.98567  0.41233  1.0000
  C   C2433     1.0  0.51048  0.96471  0.41506  1.0000
  H   H3903     1.0  0.55554  0.97662  0.44989  1.0000
  C   C2434     1.0  0.50185  0.96485  0.42430  1.0000
  N   N245      1.0  0.66980  0.96819  0.48416  1.0000
  H   H3904     1.0  0.66952  0.92572  0.44969  1.0000
  H   H3905     1.0  0.65066  0.94093  0.47641  1.0000
  S   S954      1.0  0.50418  0.96166  0.43778  1.0000
  C   C2435     1.0  0.71674  0.96557  0.50089  1.0000
  H   H3906     1.0  0.58533  0.97497  0.48523  1.0000
  C   C2436     1.0  0.57906  0.96899  0.45891  1.0000
  C   C2437     1.0  0.64547  0.94066  0.50834  1.0000
  S   S955      1.0  0.63375  0.96161  0.47013  1.0000
  H   H3907     1.0  0.66514  0.93652  0.47473  1.0000
  H   H3908     1.0  0.67157  0.97523  0.49659  1.0000
  H   H3909     1.0  0.68755  0.96924  0.56736  1.0000
  H   H3910     1.0  0.52957  0.94724  0.49624  1.0000
  C   C2438     1.0  0.59685  0.97335  0.51758  1.0000
  H   H3911     1.0  0.51875  0.96280  0.41611  1.0000
  C   C2439     1.0  0.68545  0.96985  0.55965  1.0000
  N   N246      1.0  0.54206  0.95623  0.48746  1.0000
  C   C2440     1.0  0.60185  0.98121  0.52996  1.0000
  C   C2441     1.0  0.61248  0.94721  0.52208  1.0000
  H   H3912     1.0  0.57502  0.94421  0.45855  1.0000
  H   H3913     1.0  0.65935  0.94817  0.46512  1.0000
  H   H3914     1.0  0.56824  0.98461  0.45437  1.0000
  S   S956      1.0  0.69252  0.98045  0.44908  1.0000
  H   H3915     1.0  0.50029  0.98059  0.58549  1.0000
  H   H3916     1.0  0.73471  0.98023  0.49572  1.0000
  H   H3917     1.0  0.51015  0.98477  0.64795  1.0000
  C   C2442     1.0  0.67480  0.96761  0.49328  1.0000
  N   N247      1.0  0.59954  0.98496  0.42804  1.0000
  S   S957      1.0  0.50950  0.98280  0.47659  1.0000
  H   H3918     1.0  0.50412  0.98181  0.57086  1.0000
  C   C2443     1.0  0.65845  0.93985  0.47018  1.0000
  Fe  Fe464     1.0  0.53848  0.96518  0.44845  1.0000
  C   C2444     1.0  0.49117  0.96703  0.42285  1.0000
  S   S958      1.0  0.53401  0.98231  0.45132  1.0000
  C   C2445     1.0  0.63212  0.94700  0.49694  1.0000
  Fe  Fe465     1.0  0.62192  0.95065  0.47543  1.0000
  C   C2446     1.0  0.49774  0.96902  0.40300  1.0000
  H   H3919     1.0  0.65334  0.92346  0.51024  1.0000
  C   C2447     1.0  0.57357  0.95304  0.45761  1.0000
  H   H3920     1.0  0.60368  0.94995  0.52189  1.0000
  S   S959      1.0  0.64114  0.98797  0.52861  1.0000
  H   H3921     1.0  0.67331  0.96043  0.50017  1.0000
  C   C2448     1.0  0.72853  0.96123  0.48389  1.0000
  H   H3922     1.0  0.55682  0.96163  0.47857  1.0000
  C   C2449     1.0  0.73314  0.98672  0.48830  1.0000
  C   C2450     1.0  0.51064  0.96022  0.55849  1.0000
  C   C2451     1.0  0.51798  0.95098  0.55504  1.0000
  C   C2452     1.0  0.51555  0.94057  0.55953  1.0000
  C   C2453     1.0  0.50596  0.93930  0.56745  1.0000
  H   H3923     1.0  0.66799  0.97882  0.46841  1.0000
  S   S960      1.0  0.57683  0.96900  0.52052  1.0000
  H   H3924     1.0  0.52111  0.93341  0.55687  1.0000
  H   H3925     1.0  0.67757  0.97181  0.53231  1.0000
  H   H3926     1.0  0.66847  0.97086  0.56708  1.0000
  H   H3927     1.0  0.61001  0.94936  0.54833  1.0000
  H   H3928     1.0  0.60968  0.93063  0.54773  1.0000
  S   S961      1.0  0.62799  0.93416  0.48566  1.0000
  S   S962      1.0  0.53341  0.97003  0.43213  1.0000
  C   C2454     1.0  0.56243  0.97123  0.45292  1.0000
  H   H3929     1.0  0.70140  0.98881  0.53411  1.0000
  C   C2455     1.0  0.51699  0.98647  0.48390  1.0000
  S   S963      1.0  0.65776  0.97237  0.55043  1.0000
  C   C2456     1.0  0.69359  0.96960  0.55002  1.0000
  S   S964      1.0  0.65263  0.94308  0.51672  1.0000
  H   H3930     1.0  0.64950  0.93195  0.45192  1.0000
  S   S965      1.0  0.64101  0.96830  0.43788  1.0000
  H   H3931     1.0  0.66384  0.91776  0.47493  1.0000
  C   C2457     1.0  0.66909  0.93123  0.45511  1.0000
  C   C2458     1.0  0.64743  0.93005  0.50651  1.0000
  H   H3932     1.0  0.60082  0.96844  0.42665  1.0000
  C   C2459     1.0  0.67647  0.95981  0.44094  1.0000
  C   C2460     1.0  0.58611  0.97449  0.52382  1.0000
  C   C2461     1.0  0.65466  0.96576  0.43884  1.0000
  Fe  Fe466     1.0  0.53840  0.98713  0.51929  1.0000
  H   H3933     1.0  0.54261  0.94102  0.49968  1.0000
  S   S966      1.0  0.63893  0.96229  0.53804  1.0000
  H   H3934     1.0  0.59914  0.96975  0.51042  1.0000
  S   S967      1.0  0.60770  0.96316  0.48198  1.0000
  H   H3935     1.0  0.52739  0.96395  0.48147  1.0000
  Fe  Fe467     1.0  0.53706  0.96703  0.53799  1.0000
  H   H3936     1.0  0.67610  0.92775  0.45922  1.0000
  H   H3937     1.0  0.67033  0.93930  0.44966  1.0000
  H   H3938     1.0  0.67060  0.96756  0.45481  1.0000
  S   S968      1.0  0.68944  0.95341  0.44372  1.0000
  H   H3939     1.0  0.53831  0.95726  0.47203  1.0000
  C   C2462     1.0  0.64958  0.93723  0.45735  1.0000
  H   H3940     1.0  0.54999  0.98686  0.42934  1.0000
  S   S969      1.0  0.71751  0.98218  0.44792  1.0000
  C   C2463     1.0  0.67976  0.97129  0.53993  1.0000
  C   C2464     1.0  0.50094  0.95893  0.56649  1.0000
  H   H3941     1.0  0.62673  0.98631  0.56166  1.0000
  Fe  Fe468     1.0  0.73274  0.98661  0.52047  1.0000
  C   C2465     1.0  0.70992  0.97155  0.48411  1.0000
  Fe  Fe469     1.0  0.65128  0.97214  0.53614  1.0000
  H   H3942     1.0  0.67203  0.98721  0.51062  1.0000
  S   S970      1.0  0.52713  0.98435  0.53593  1.0000
  C   C2466     1.0  0.67161  0.97808  0.47545  1.0000
  C   C2467     1.0  0.63775  0.94910  0.50360  1.0000
  H   H3943     1.0  0.64154  0.93816  0.46324  1.0000
  C   C2468     1.0  0.66845  0.96565  0.44821  1.0000
  C   C2469     1.0  0.65750  0.96842  0.44730  1.0000
  H   H3944     1.0  0.65023  0.94553  0.45207  1.0000
  C   C2470     1.0  0.52044  0.97119  0.58931  1.0000
  Fe  Fe470     1.0  0.72180  0.96955  0.53722  1.0000
  Fe  Fe471     1.0  0.64999  0.98318  0.51264  1.0000
  Fe  Fe472     1.0  0.55882  0.97406  0.52784  1.0000
  C   C2471     1.0  0.72698  0.96101  0.49509  1.0000
  H   H3945     1.0  0.52866  0.97164  0.58971  1.0000
  H   H3946     1.0  0.59966  0.93662  0.53943  1.0000
  H   H3947     1.0  0.62741  0.93628  0.54180  1.0000
  S   S971      1.0  0.58782  0.97533  0.46190  1.0000
  S   S972      1.0  0.71337  0.96934  0.43131  1.0000
  H   H3948     1.0  0.51231  0.96833  0.55484  1.0000
  S   S973      1.0  0.61805  0.95418  0.45872  1.0000
  H   H3949     1.0  0.69696  0.97020  0.53257  1.0000
  C   C2472     1.0  0.58314  0.97951  0.53280  1.0000
  H   H3950     1.0  0.72137  0.96689  0.46968  1.0000
  H   H3951     1.0  0.54362  0.95890  0.50260  1.0000
  H   H3952     1.0  0.57485  0.98058  0.53758  1.0000
  Fe  Fe473     1.0  0.51775  0.97876  0.45994  1.0000
  H   H3953     1.0  0.67112  0.95815  0.47293  1.0000
  S   S974      1.0  0.71041  0.95811  0.45767  1.0000
  C   C2473     1.0  0.70826  0.97095  0.49539  1.0000
  C   C2474     1.0  0.72002  0.96655  0.47838  1.0000
  H   H3954     1.0  0.62611  0.95358  0.49341  1.0000
  S   S975      1.0  0.54945  0.96981  0.54532  1.0000
  Fe  Fe474     1.0  0.69993  0.96383  0.44519  1.0000
  H   H3955     1.0  0.52051  0.96236  0.59020  1.0000
  H   H3956     1.0  0.65125  0.97253  0.45316  1.0000
  S   S976      1.0  0.72063  0.97784  0.51983  1.0000
  H   H3957     1.0  0.61462  0.97967  0.41703  1.0000
  H   H3958     1.0  0.55853  0.94956  0.48951  1.0000
  H   H3959     1.0  0.63020  0.94621  0.52919  1.0000
  H   H3960     1.0  0.60761  0.98597  0.57128  1.0000
  H   H3961     1.0  0.61299  0.97564  0.51587  1.0000
  H   H3962     1.0  0.55621  0.98326  0.55671  1.0000
  H   H3963     1.0  0.57364  0.98644  0.55772  1.0000
  Fe  Fe475     1.0  0.64786  0.95971  0.52107  1.0000
  Fe  Fe476     1.0  0.72319  0.96537  0.44424  1.0000
  Fe  Fe477     1.0  0.60472  0.96776  0.46485  1.0000
  H   H3964     1.0  0.71530  0.96481  0.50966  1.0000
  C   C2475     1.0  0.56976  0.97576  0.45538  1.0000
  H   H3965     1.0  0.58879  0.97384  0.43594  1.0000
  C   C2476     1.0  0.65798  0.96890  0.48830  1.0000
  S   S977      1.0  0.61164  0.98431  0.53495  1.0000
  H   H3966     1.0  0.49510  0.96603  0.56895  1.0000
  H   H3967     1.0  0.50741  0.98024  0.49976  1.0000
  H   H3968     1.0  0.63628  0.98252  0.46570  1.0000
  H   H3969     1.0  0.62293  0.98756  0.54905  1.0000
  H   H3970     1.0  0.67382  0.95060  0.48618  1.0000
  H   H3971     1.0  0.51450  0.97393  0.59659  1.0000
  N   N248      1.0  0.51749  0.97799  0.57887  1.0000
  H   H3972     1.0  0.57535  0.97231  0.49774  1.0000
  H   H3973     1.0  0.49727  0.98795  0.41063  1.0000
  S   S978      1.0  0.73316  0.97926  0.53823  1.0000
  C   C2477     1.0  0.49867  0.94841  0.57107  1.0000
  H   H3974     1.0  0.52553  0.96525  0.56974  1.0000
  C   C2478     1.0  0.50652  0.97717  0.57878  1.0000
  S   S979      1.0  0.61917  0.98685  0.48435  1.0000
  C   C2479     1.0  0.67483  0.95818  0.47965  1.0000
  C   C2480     1.0  0.61132  0.98441  0.42366  1.0000
  H   H3975     1.0  0.55967  0.98691  0.50261  1.0000
  S   S980      1.0  0.51087  0.98522  0.44473  1.0000
  H   H3976     1.0  0.73729  0.97895  0.42798  1.0000
  Fe  Fe478     1.0  0.70664  0.98561  0.43620  1.0000
  H   H3977     1.0  0.50609  0.96844  0.58002  1.0000
  H   H3978     1.0  0.60024  0.98814  0.44325  1.0000
  H   H3979     1.0  0.65625  0.96180  0.49521  1.0000
  H   H3980     1.0  0.61602  0.98030  0.43024  1.0000
  H   H3981     1.0  0.68041  0.97788  0.47220  1.0000
  H   H3982     1.0  0.65393  0.97660  0.49136  1.0000
  H   H3983     1.0  0.60160  0.96959  0.43995  1.0000
  N   N249      1.0  0.57302  0.98918  0.48873  1.0000
  Fe  Fe479     1.0  0.73517  0.96460  0.51534  1.0000
  H   H3984     1.0  0.51737  0.98568  0.51043  1.0000
  H   H3985     1.0  0.50422  0.93118  0.57083  1.0000
  C   C2481     1.0  0.51973  0.98733  0.50151  1.0000
  H   H3986     1.0  0.66794  0.98576  0.47865  1.0000
  C   C2482     1.0  0.63824  0.98810  0.46925  1.0000
  H   H3987     1.0  0.51816  0.98389  0.40555  1.0000
  H   H3988     1.0  0.57770  0.98832  0.50366  1.0000
  Fe  Fe480     1.0  0.52779  0.98683  0.43587  1.0000
  H   H3989     1.0  0.48819  0.93395  0.41351  1.0000
  S   S981      1.0  0.49722  0.73526  0.92879  1.0000
  N   N250      1.0  0.50024  0.75238  0.95936  1.0000
  S   S982      1.0  0.49620  0.95576  0.78411  1.0000
  H   H3990     1.0  0.52016  0.83961  0.94641  1.0000
  S   S983      1.0  0.50915  0.95785  0.89284  1.0000
  C   C2483     1.0  0.48872  0.96069  0.74796  1.0000
  C   C2484     1.0  0.50825  0.75011  0.94921  1.0000
  Fe  Fe481     1.0  0.49045  0.79808  0.95722  1.0000
  C   C2485     1.0  0.48927  0.95641  0.84206  1.0000
  C   C2486     1.0  0.50690  0.79653  0.97411  1.0000
  C   C2487     1.0  0.50314  0.76058  0.96338  1.0000
  H   H3991     1.0  0.49923  0.66597  0.97660  1.0000
  H   H3992     1.0  0.49768  0.73585  0.96527  1.0000
  H   H3993     1.0  0.51603  0.93711  0.94367  1.0000
  C   C2488     1.0  0.51778  0.93801  0.90477  1.0000
  H   H3994     1.0  0.50225  0.83428  0.95373  1.0000
  N   N251      1.0  0.50210  0.92984  0.95126  1.0000
  H   H3995     1.0  0.52553  0.94028  0.90090  1.0000
  C   C2489     1.0  0.50822  0.94521  0.90225  1.0000
  C   C2490     1.0  0.49188  0.67201  0.93246  1.0000
  H   H3996     1.0  0.51089  0.91458  0.94646  1.0000
  H   H3997     1.0  0.49219  0.80905  0.97368  1.0000
  H   H3998     1.0  0.50622  0.74403  0.94589  1.0000
  C   C2491     1.0  0.49241  0.67033  0.98228  1.0000
  H   H3999     1.0  0.49004  0.69114  0.96989  1.0000
  H   H4000     1.0  0.49453  0.74352  0.97577  1.0000
  H   H4001     1.0  0.50331  0.76846  0.95709  1.0000
  S   S984      1.0  0.50761  0.91170  0.92611  1.0000
  H   H4002     1.0  0.52082  0.83466  0.97605  1.0000
  C   C2492     1.0  0.48910  0.67602  0.92216  1.0000
  C   C2493     1.0  0.50841  0.93661  0.94182  1.0000
  C   C2494     1.0  0.49924  0.93467  0.96106  1.0000
  S   S985      1.0  0.49406  0.68073  0.93955  1.0000
  H   H4003     1.0  0.52221  0.78543  0.97612  1.0000
  S   S986      1.0  0.50551  0.79063  0.96402  1.0000
  H   H4004     1.0  0.49742  0.83020  0.96834  1.0000
  H   H4005     1.0  0.50849  0.75775  0.94261  1.0000
  C   C2495     1.0  0.50628  0.98353  0.74714  1.0000
  H   H4006     1.0  0.50663  0.93483  0.96359  1.0000
  H   H4007     1.0  0.49559  0.91549  0.90494  1.0000
  C   C2496     1.0  0.48930  0.75677  0.95691  1.0000
  C   C2497     1.0  0.52218  0.83559  0.95462  1.0000
  H   H4008     1.0  0.50806  0.75299  0.92205  1.0000
  C   C2498     1.0  0.49819  0.94225  0.90735  1.0000
  H   H4009     1.0  0.50845  0.73830  0.96973  1.0000
  H   H4010     1.0  0.49393  0.92607  0.94099  1.0000
  C   C2499     1.0  0.49781  0.93206  0.91492  1.0000
  C   C2500     1.0  0.49381  0.91991  0.89669  1.0000
  H   H4011     1.0  0.49640  0.92789  0.89444  1.0000
  C   C2501     1.0  0.50747  0.92473  0.91711  1.0000
  H   H4012     1.0  0.52791  0.83988  0.95578  1.0000
  H   H4013     1.0  0.50175  0.77292  0.92189  1.0000
  H   H4014     1.0  0.49911  0.84820  0.97022  1.0000
  H   H4015     1.0  0.49076  0.94787  0.90555  1.0000
  S   S987      1.0  0.49047  0.89773  0.95304  1.0000
  C   C2502     1.0  0.50870  0.91851  0.95367  1.0000
  C   C2503     1.0  0.49294  0.66076  0.93734  1.0000
  C   C2504     1.0  0.50025  0.74205  0.96790  1.0000
  H   H4016     1.0  0.52492  0.92219  0.91374  1.0000
  C   C2505     1.0  0.51742  0.92778  0.91206  1.0000
  H   H4017     1.0  0.49910  0.91494  0.89063  1.0000
  C   C2506     1.0  0.49203  0.92956  0.94842  1.0000
  S   S988      1.0  0.49557  0.98081  0.87027  1.0000
  H   H4018     1.0  0.51131  0.75753  0.96543  1.0000
  H   H4019     1.0  0.50433  0.85197  0.95565  1.0000
  C   C2507     1.0  0.49602  0.96800  0.82465  1.0000
  H   H4020     1.0  0.52658  0.82692  0.95436  1.0000
  C   C2508     1.0  0.49902  0.80542  0.97752  1.0000
  C   C2509     1.0  0.49218  0.74937  0.92899  1.0000
  H   H4021     1.0  0.50423  0.91317  0.96077  1.0000
  C   C2510     1.0  0.49043  0.91066  0.98561  1.0000
  H   H4022     1.0  0.50800  0.83069  0.98121  1.0000
  H   H4023     1.0  0.51079  0.93307  0.93434  1.0000
  H   H4024     1.0  0.51194  0.85220  0.96513  1.0000
  H   H4025     1.0  0.49671  0.96268  0.81001  1.0000
  S   S989      1.0  0.49087  0.80600  0.93931  1.0000
  C   C2511     1.0  0.49321  0.96586  0.83620  1.0000
  H   H4026     1.0  0.51661  0.74670  0.95074  1.0000
  H   H4027     1.0  0.49716  0.76260  0.97095  1.0000
  Fe  Fe482     1.0  0.49553  0.96559  0.88394  1.0000
  C   C2512     1.0  0.51529  0.83055  0.97428  1.0000
  C   C2513     1.0  0.50669  0.84759  0.96364  1.0000
  H   H4028     1.0  0.49436  0.94327  0.95949  1.0000
  H   H4029     1.0  0.51951  0.82175  0.97455  1.0000
  H   H4030     1.0  0.51641  0.91841  0.95574  1.0000
  C   C2514     1.0  0.50491  0.83024  0.96165  1.0000
  Fe  Fe483     1.0  0.49207  0.90626  0.93518  1.0000
  H   H4031     1.0  0.51510  0.97967  0.74636  1.0000
  C   C2515     1.0  0.49600  0.76760  0.92516  1.0000
  H   H4032     1.0  0.50892  0.82150  0.96133  1.0000
  C   C2516     1.0  0.49955  0.75632  0.92517  1.0000
  S   S990      1.0  0.49427  0.97542  0.84302  1.0000
  N   N252      1.0  0.51227  0.83599  0.96355  1.0000
  H   H4033     1.0  0.49916  0.97525  0.82007  1.0000
  H   H4034     1.0  0.50362  0.94517  0.93959  1.0000
  H   H4035     1.0  0.48900  0.76452  0.95045  1.0000
  C   C2517     1.0  0.51605  0.79227  0.97877  1.0000
  H   H4036     1.0  0.49431  0.92986  0.96828  1.0000
  C   C2518     1.0  0.50014  0.80988  0.98574  1.0000
  S   S991      1.0  0.49117  0.95596  0.87445  1.0000
  H   H4037     1.0  0.50297  0.97956  0.74260  1.0000
  H   H4038     1.0  0.49430  0.68123  0.96134  1.0000
  H   H4039     1.0  0.49009  0.92987  0.91894  1.0000
  C   C2519     1.0  0.49462  0.96091  0.81894  1.0000
  H   H4040     1.0  0.49857  0.90562  0.98536  1.0000
  H   H4041     1.0  0.50230  0.98139  0.75603  1.0000
  H   H4042     1.0  0.49519  0.65762  0.94525  1.0000
  H   H4043     1.0  0.49054  0.97501  0.73478  1.0000
  H   H4044     1.0  0.48817  0.90581  0.97192  1.0000
  H   H4045     1.0  0.49089  0.96380  0.75381  1.0000
  H   H4046     1.0  0.49566  0.67573  0.98530  1.0000
  C   C2520     1.0  0.49052  0.95155  0.82477  1.0000
  Fe  Fe484     1.0  0.48939  0.97178  0.86160  1.0000
  C   C2521     1.0  0.48836  0.65751  0.92174  1.0000
  S   S992      1.0  0.48960  0.98846  0.77548  1.0000
  S   S993      1.0  0.48852  0.70858  0.94732  1.0000
  H   H4047     1.0  0.48835  0.68469  0.91829  1.0000
  S   S994      1.0  0.48822  0.94288  0.81770  1.0000
  C   C2522     1.0  0.48858  0.96699  0.73721  1.0000
  C   C2523     1.0  0.48800  0.94922  0.83634  1.0000
  N   N253      1.0  0.88662  0.10186  0.55897  1.0000
  C   C2524     1.0  0.96487  0.31880  0.56558  1.0000
  H   H4048     1.0  0.74988  0.05647  0.48801  1.0000
  Fe  Fe485     1.0  0.96805  0.11997  0.44627  1.0000
  S   S995      1.0  0.97251  0.12956  0.45562  1.0000
  S   S996      1.0  0.95107  0.12427  0.44338  1.0000
  C   C2525     1.0  0.74065  0.02333  0.52771  1.0000
  H   H4049     1.0  0.96002  0.14253  0.42565  1.0000
  H   H4050     1.0  0.98741  0.20037  0.52882  1.0000
  H   H4051     1.0  0.96858  0.08679  0.44889  1.0000
  H   H4052     1.0  0.84673  0.28898  0.54408  1.0000
  S   S997      1.0  0.97782  0.10371  0.45353  1.0000
  H   H4053     1.0  0.75639  0.99784  0.40096  1.0000
  H   H4054     1.0  0.79465  0.02306  0.48086  1.0000
  H   H4055     1.0  0.76324  0.06704  0.47604  1.0000
  Fe  Fe486     1.0  0.97939  0.13172  0.53106  1.0000
  N   N254      1.0  0.86095  0.29448  0.54341  1.0000
  S   S998      1.0  0.96207  0.12997  0.53815  1.0000
  H   H4056     1.0  0.85718  0.06806  0.48335  1.0000
  H   H4057     1.0  0.96580  0.20928  0.50641  1.0000
  H   H4058     1.0  0.96307  0.17593  0.41872  1.0000
  H   H4059     1.0  0.97156  0.15028  0.40807  1.0000
  C   C2526     1.0  0.93888  0.25830  0.53383  1.0000
  C   C2527     1.0  0.96029  0.14945  0.42902  1.0000
  Fe  Fe487     1.0  0.91816  0.12649  0.51348  1.0000
  S   S999      1.0  0.90648  0.14255  0.51537  1.0000
  S   S1000     1.0  0.93578  0.12625  0.50551  1.0000
  Fe  Fe488     1.0  0.90038  0.11306  0.52244  1.0000
  S   S1001     1.0  0.88731  0.12803  0.52521  1.0000
  S   S1002     1.0  0.89763  0.09570  0.52623  1.0000
  Fe  Fe489     1.0  0.89584  0.13633  0.50874  1.0000
  S   S1003     1.0  0.88780  0.14589  0.49481  1.0000
  Fe  Fe490     1.0  0.89923  0.13267  0.53163  1.0000
  S   S1004     1.0  0.89304  0.13818  0.54761  1.0000
  S   S1005     1.0  0.90813  0.12107  0.50540  1.0000
  S   S1006     1.0  0.91174  0.11695  0.53032  1.0000
  Fe  Fe491     1.0  0.90693  0.09446  0.45592  1.0000
  S   S1007     1.0  0.90303  0.09564  0.43979  1.0000
  S   S1008     1.0  0.92319  0.08777  0.46067  1.0000
  Fe  Fe492     1.0  0.88389  0.10559  0.46546  1.0000
  S   S1009     1.0  0.87787  0.10810  0.45014  1.0000
  S   S1010     1.0  0.87424  0.10904  0.48180  1.0000
  Fe  Fe493     1.0  0.88734  0.09065  0.44986  1.0000
  S   S1011     1.0  0.88156  0.07575  0.44942  1.0000
  Fe  Fe494     1.0  0.89398  0.11288  0.44147  1.0000
  S   S1012     1.0  0.89789  0.12775  0.42841  1.0000
  S   S1013     1.0  0.89224  0.08799  0.46588  1.0000
  S   S1014     1.0  0.89893  0.11187  0.45696  1.0000
  Fe  Fe495     1.0  0.96042  0.21711  0.46633  1.0000
  S   S1015     1.0  0.94475  0.22279  0.47754  1.0000
  Fe  Fe496     1.0  0.97004  0.21525  0.44278  1.0000
  C   C2528     1.0  0.97877  0.27125  0.53779  1.0000
  S   S1016     1.0  0.96589  0.22048  0.42610  1.0000
  S   S1017     1.0  0.74076  0.02500  0.42143  1.0000
  C   C2529     1.0  0.93152  0.31009  0.50906  1.0000
  H   H4060     1.0  0.93405  0.26666  0.53492  1.0000
  C   C2530     1.0  0.77126  0.03814  0.46904  1.0000
  S   S1018     1.0  0.96099  0.20463  0.45722  1.0000
  S   S1019     1.0  0.96813  0.22848  0.45169  1.0000
  H   H4061     1.0  0.80214  0.03129  0.48349  1.0000
  C   C2531     1.0  0.89938  0.31316  0.46376  1.0000
  Fe  Fe497     1.0  0.96530  0.29656  0.46458  1.0000
  S   S1020     1.0  0.95018  0.29176  0.47561  1.0000
  S   S1021     1.0  0.98119  0.12338  0.43129  1.0000
  S   S1022     1.0  0.96751  0.30226  0.44632  1.0000
  Fe  Fe498     1.0  0.98370  0.11367  0.46138  1.0000
  S   S1023     1.0  0.96790  0.24575  0.52690  1.0000
  H   H4062     1.0  0.75808  0.99292  0.47865  1.0000
  H   H4063     1.0  0.77326  0.99195  0.56958  1.0000
  S   S1024     1.0  0.96496  0.22406  0.52060  1.0000
  Fe  Fe499     1.0  0.73881  0.03233  0.43586  1.0000
  Fe  Fe500     1.0  0.96489  0.24170  0.51254  1.0000
  S   S1025     1.0  0.95142  0.25274  0.50472  1.0000
  Fe  Fe501     1.0  0.96971  0.22772  0.53430  1.0000
  S   S1026     1.0  0.96010  0.22145  0.55101  1.0000
  S   S1027     1.0  0.76056  0.06411  0.50156  1.0000
  Fe  Fe502     1.0  0.74299  0.05124  0.44237  1.0000
  C   C2532     1.0  0.75062  0.99121  0.48487  1.0000
  H   H4064     1.0  0.76076  0.00022  0.52989  1.0000
  H   H4065     1.0  0.77474  0.04454  0.46292  1.0000
  Fe  Fe503     1.0  0.97627  0.30935  0.53055  1.0000
  N   N255      1.0  0.74742  0.06861  0.47325  1.0000
  C   C2533     1.0  0.76162  0.07949  0.43756  1.0000
  C   C2534     1.0  0.86757  0.20414  0.43589  1.0000
  H   H4066     1.0  0.89338  0.08637  0.55397  1.0000
  H   H4067     1.0  0.74992  0.05094  0.47676  1.0000
  H   H4068     1.0  0.95138  0.15664  0.41123  1.0000
  S   S1028     1.0  0.97611  0.31436  0.51262  1.0000
  C   C2535     1.0  0.96544  0.29060  0.50953  1.0000
  Fe  Fe504     1.0  0.90102  0.19793  0.53772  1.0000
  S   S1029     1.0  0.91560  0.19284  0.52480  1.0000
  S   S1030     1.0  0.88755  0.18879  0.54544  1.0000
  Fe  Fe505     1.0  0.90721  0.21925  0.53677  1.0000
  S   S1031     1.0  0.92227  0.21604  0.52368  1.0000
  S   S1032     1.0  0.90426  0.23427  0.54363  1.0000
  Fe  Fe506     1.0  0.91188  0.21058  0.51609  1.0000
  S   S1033     1.0  0.91159  0.21592  0.49818  1.0000
  Fe  Fe507     1.0  0.92460  0.19872  0.53367  1.0000
  S   S1034     1.0  0.94132  0.18967  0.53611  1.0000
  S   S1035     1.0  0.89650  0.21531  0.52827  1.0000
  S   S1036     1.0  0.91034  0.20224  0.54749  1.0000
  H   H4069     1.0  0.74291  0.08585  0.47349  1.0000
  S   S1037     1.0  0.98206  0.17862  0.46800  1.0000
  Fe  Fe508     1.0  0.89039  0.29378  0.51546  1.0000
  S   S1038     1.0  0.90665  0.29466  0.50424  1.0000
  S   S1039     1.0  0.88289  0.27990  0.51622  1.0000
  Fe  Fe509     1.0  0.91024  0.29947  0.51789  1.0000
  S   S1040     1.0  0.92592  0.29167  0.52337  1.0000
  H   H4070     1.0  0.79490  0.01367  0.51101  1.0000
  H   H4071     1.0  0.95479  0.26857  0.41840  1.0000
  S   S1041     1.0  0.89460  0.29701  0.52970  1.0000
  H   H4072     1.0  0.96138  0.24443  0.43000  1.0000
  Fe  Fe510     1.0  0.90881  0.17642  0.44690  1.0000
  S   S1042     1.0  0.92684  0.17146  0.44600  1.0000
  S   S1043     1.0  0.89673  0.16563  0.45118  1.0000
  Fe  Fe511     1.0  0.90752  0.20046  0.44657  1.0000
  S   S1044     1.0  0.92531  0.19767  0.44565  1.0000
  S   S1045     1.0  0.89558  0.21637  0.44884  1.0000
  Fe  Fe512     1.0  0.92719  0.18750  0.43354  1.0000
  S   S1046     1.0  0.94008  0.18987  0.41814  1.0000
  Fe  Fe513     1.0  0.92344  0.18205  0.45817  1.0000
  S   S1047     1.0  0.93077  0.17707  0.47302  1.0000
  S   S1048     1.0  0.90942  0.19161  0.43330  1.0000
  S   S1049     1.0  0.90544  0.18565  0.46023  1.0000
  S   S1050     1.0  0.90849  0.26669  0.44777  1.0000
  H   H4073     1.0  0.81945  0.99083  0.44312  1.0000
  Fe  Fe514     1.0  0.82316  0.04197  0.44121  1.0000
  S   S1051     1.0  0.81966  0.05964  0.43207  1.0000
  S   S1052     1.0  0.82636  0.02809  0.43263  1.0000
  Fe  Fe515     1.0  0.81973  0.04774  0.46279  1.0000
  S   S1053     1.0  0.81571  0.06579  0.45580  1.0000
  S   S1054     1.0  0.81894  0.04244  0.48092  1.0000
  Fe  Fe516     1.0  0.80577  0.06188  0.44654  1.0000
  S   S1055     1.0  0.79051  0.07500  0.44510  1.0000
  Fe  Fe517     1.0  0.82989  0.06250  0.44194  1.0000
  S   S1056     1.0  0.83846  0.07675  0.43526  1.0000
  S   S1057     1.0  0.80832  0.04402  0.45497  1.0000
  S   S1058     1.0  0.83484  0.04449  0.44972  1.0000
  Fe  Fe518     1.0  0.84715  0.07243  0.52810  1.0000
  S   S1059     1.0  0.85557  0.06612  0.51266  1.0000
  S   S1060     1.0  0.85087  0.08709  0.53159  1.0000
  Fe  Fe519     1.0  0.82885  0.06010  0.53336  1.0000
  S   S1061     1.0  0.83576  0.05315  0.51833  1.0000
  S   S1062     1.0  0.81342  0.05482  0.54347  1.0000
  Fe  Fe520     1.0  0.85180  0.04984  0.52260  1.0000
  S   S1063     1.0  0.86227  0.03310  0.52060  1.0000
  Fe  Fe521     1.0  0.83878  0.06986  0.50970  1.0000
  S   S1064     1.0  0.83569  0.07773  0.49281  1.0000
  S   S1065     1.0  0.84481  0.05568  0.53856  1.0000
  S   S1066     1.0  0.83047  0.07720  0.52434  1.0000
  S   S1067     1.0  0.97592  0.20836  0.47179  1.0000
  S   S1068     1.0  0.83889  0.00687  0.50293  1.0000
  H   H4074     1.0  0.79907  0.05560  0.49167  1.0000
  C   C2536     1.0  0.95266  0.28309  0.50504  1.0000
  S   S1069     1.0  0.77859  0.04411  0.48376  1.0000
  H   H4075     1.0  0.74180  0.00174  0.40357  1.0000
  H   H4076     1.0  0.74887  0.00345  0.41280  1.0000
  C   C2537     1.0  0.78573  0.06665  0.52498  1.0000
  H   H4077     1.0  0.88549  0.09416  0.57616  1.0000
  H   H4078     1.0  0.88663  0.17348  0.52339  1.0000
  H   H4079     1.0  0.95267  0.15099  0.43539  1.0000
  H   H4080     1.0  0.87637  0.28302  0.54313  1.0000
  H   H4081     1.0  0.87193  0.21081  0.43098  1.0000
  H   H4082     1.0  0.80534  0.07789  0.48774  1.0000
  H   H4083     1.0  0.78590  0.08383  0.49648  1.0000
  H   H4084     1.0  0.97334  0.25140  0.44282  1.0000
  H   H4085     1.0  0.87558  0.05265  0.49385  1.0000
  H   H4086     1.0  0.94411  0.16587  0.53840  1.0000
  H   H4087     1.0  0.91164  0.25062  0.48506  1.0000
  C   C2538     1.0  0.78369  0.08169  0.48974  1.0000
  C   C2539     1.0  0.89195  0.18798  0.49686  1.0000
  S   S1070     1.0  0.75042  0.05444  0.52758  1.0000
  Fe  Fe522     1.0  0.90096  0.28449  0.44755  1.0000
  H   H4088     1.0  0.77758  0.00172  0.54986  1.0000
  C   C2540     1.0  0.91391  0.25851  0.48014  1.0000
  C   C2541     1.0  0.88103  0.19651  0.44699  1.0000
  H   H4089     1.0  0.80207  0.08346  0.47436  1.0000
  H   H4090     1.0  0.77568  0.07937  0.49329  1.0000
  C   C2542     1.0  0.80334  0.06780  0.52678  1.0000
  Fe  Fe523     1.0  0.76601  0.05957  0.51749  1.0000
  H   H4091     1.0  0.79396  0.00465  0.49197  1.0000
  H   H4092     1.0  0.95921  0.31316  0.56983  1.0000
  H   H4093     1.0  0.78260  0.08924  0.48311  1.0000
  H   H4094     1.0  0.80901  0.06941  0.47792  1.0000
  H   H4095     1.0  0.83701  0.02535  0.52992  1.0000
  C   C2543     1.0  0.74607  0.05798  0.48091  1.0000
  H   H4096     1.0  0.76368  0.03476  0.45797  1.0000
  H   H4097     1.0  0.89534  0.11484  0.55170  1.0000
  C   C2544     1.0  0.88549  0.17701  0.51478  1.0000
  C   C2545     1.0  0.85649  0.02557  0.51513  1.0000
  C   C2546     1.0  0.85773  0.01412  0.51905  1.0000
  C   C2547     1.0  0.85248  0.00819  0.51532  1.0000
  C   C2548     1.0  0.84623  0.01366  0.50741  1.0000
  C   C2549     1.0  0.84527  0.02502  0.50326  1.0000
  C   C2550     1.0  0.85031  0.03095  0.50715  1.0000
  H   H4098     1.0  0.86252  0.00989  0.52520  1.0000
  H   H4099     1.0  0.85327  0.99941  0.51855  1.0000
  H   H4100     1.0  0.84044  0.02930  0.49715  1.0000
  H   H4101     1.0  0.84938  0.03970  0.50392  1.0000
  H   H4102     1.0  0.89922  0.19747  0.50859  1.0000
  H   H4103     1.0  0.97892  0.15419  0.41560  1.0000
  C   C2551     1.0  0.82403  0.01584  0.44205  1.0000
  C   C2552     1.0  0.82306  0.00701  0.43836  1.0000
  C   C2553     1.0  0.82036  0.99753  0.44599  1.0000
  C   C2554     1.0  0.81854  0.99697  0.45730  1.0000
  C   C2555     1.0  0.82019  0.00548  0.46089  1.0000
  C   C2556     1.0  0.82282  0.01495  0.45332  1.0000
  H   H4104     1.0  0.82419  0.00762  0.42961  1.0000
  C   C2557     1.0  0.76071  0.02413  0.47413  1.0000
  H   H4105     1.0  0.81929  0.00482  0.46958  1.0000
  H   H4106     1.0  0.82390  0.02157  0.45619  1.0000
  C   C2558     1.0  0.77929  0.07222  0.44229  1.0000
  C   C2559     1.0  0.77092  0.08116  0.43952  1.0000
  H   H4107     1.0  0.89442  0.18931  0.52190  1.0000
  H   H4108     1.0  0.79730  0.00310  0.43664  1.0000
  C   C2560     1.0  0.86106  0.04842  0.47795  1.0000
  C   C2561     1.0  0.77829  0.06149  0.44312  1.0000
  H   H4109     1.0  0.77163  0.08946  0.43885  1.0000
  H   H4110     1.0  0.79595  0.06429  0.50132  1.0000
  H   H4111     1.0  0.87734  0.09008  0.56954  1.0000
  H   H4112     1.0  0.78478  0.05455  0.44521  1.0000
  C   C2562     1.0  0.82427  0.05169  0.48432  1.0000
  C   C2563     1.0  0.83097  0.05800  0.47614  1.0000
  C   C2564     1.0  0.83418  0.06634  0.47860  1.0000
  C   C2565     1.0  0.83073  0.06829  0.48927  1.0000
  C   C2566     1.0  0.82383  0.06214  0.49735  1.0000
  C   C2567     1.0  0.82078  0.05369  0.49496  1.0000
  H   H4113     1.0  0.83370  0.05648  0.46790  1.0000
  H   H4114     1.0  0.83948  0.07111  0.47230  1.0000
  H   H4115     1.0  0.82068  0.06403  0.50542  1.0000
  H   H4116     1.0  0.81541  0.04900  0.50123  1.0000
  C   C2568     1.0  0.89960  0.22848  0.44051  1.0000
  C   C2569     1.0  0.90745  0.22825  0.43066  1.0000
  C   C2570     1.0  0.91070  0.23799  0.42426  1.0000
  C   C2571     1.0  0.90627  0.24795  0.42777  1.0000
  C   C2572     1.0  0.89834  0.24819  0.43757  1.0000
  C   C2573     1.0  0.89493  0.23850  0.44385  1.0000
  H   H4117     1.0  0.91103  0.22058  0.42796  1.0000
  H   H4118     1.0  0.91677  0.23779  0.41664  1.0000
  H   H4119     1.0  0.89473  0.25587  0.44024  1.0000
  H   H4120     1.0  0.88878  0.23875  0.45142  1.0000
  H   H4121     1.0  0.96445  0.26457  0.44408  1.0000
  C   C2574     1.0  0.89076  0.30457  0.48202  1.0000
  C   C2575     1.0  0.88696  0.29813  0.47749  1.0000
  H   H4122     1.0  0.88894  0.30353  0.49081  1.0000
  H   H4123     1.0  0.88219  0.29230  0.48284  1.0000
  C   C2576     1.0  0.91762  0.20534  0.49100  1.0000
  C   C2577     1.0  0.92532  0.19617  0.49487  1.0000
  C   C2578     1.0  0.92956  0.18752  0.48925  1.0000
  C   C2579     1.0  0.92603  0.18804  0.47980  1.0000
  C   C2580     1.0  0.91844  0.19728  0.47592  1.0000
  C   C2581     1.0  0.91428  0.20592  0.48147  1.0000
  H   H4124     1.0  0.92804  0.19580  0.50213  1.0000
  H   H4125     1.0  0.93544  0.18040  0.49229  1.0000
  H   H4126     1.0  0.91564  0.19779  0.46868  1.0000
  H   H4127     1.0  0.90829  0.21298  0.47849  1.0000
  C   C2582     1.0  0.89810  0.24680  0.53598  1.0000
  C   C2583     1.0  0.89362  0.24716  0.52723  1.0000
  C   C2584     1.0  0.88883  0.25736  0.52123  1.0000
  C   C2585     1.0  0.88895  0.26720  0.52368  1.0000
  C   C2586     1.0  0.89370  0.26681  0.53223  1.0000
  C   C2587     1.0  0.89796  0.25664  0.53857  1.0000
  H   H4128     1.0  0.89367  0.23960  0.52519  1.0000
  H   H4129     1.0  0.88509  0.25760  0.51468  1.0000
  H   H4130     1.0  0.89392  0.27432  0.53414  1.0000
  H   H4131     1.0  0.90129  0.25641  0.54541  1.0000
  H   H4132     1.0  0.96511  0.10447  0.43546  1.0000
  H   H4133     1.0  0.97806  0.11729  0.49856  1.0000
  Fe  Fe524     1.0  0.88833  0.31487  0.52263  1.0000
  C   C2588     1.0  0.93326  0.30204  0.51856  1.0000
  C   C2589     1.0  0.94045  0.30264  0.52444  1.0000
  H   H4134     1.0  0.85940  0.31045  0.54648  1.0000
  H   H4135     1.0  0.97428  0.31618  0.58236  1.0000
  H   H4136     1.0  0.95890  0.25282  0.44609  1.0000
  H   H4137     1.0  0.94191  0.29634  0.53171  1.0000
  H   H4138     1.0  0.79813  0.01031  0.45664  1.0000
  C   C2590     1.0  0.95472  0.21146  0.54886  1.0000
  C   C2591     1.0  0.96174  0.20267  0.54443  1.0000
  C   C2592     1.0  0.95758  0.19563  0.54102  1.0000
  C   C2593     1.0  0.94639  0.19764  0.54163  1.0000
  C   C2594     1.0  0.93935  0.20630  0.54628  1.0000
  C   C2595     1.0  0.94349  0.21308  0.55008  1.0000
  H   H4139     1.0  0.97043  0.20144  0.54346  1.0000
  H   H4140     1.0  0.96310  0.18888  0.53759  1.0000
  H   H4141     1.0  0.93070  0.20788  0.54685  1.0000
  H   H4142     1.0  0.93803  0.21986  0.55351  1.0000
  S   S1071     1.0  0.98219  0.14811  0.52075  1.0000
  H   H4143     1.0  0.95417  0.09059  0.43847  1.0000
  C   C2596     1.0  0.97945  0.08363  0.42255  1.0000
  H   H4144     1.0  0.85287  0.05041  0.48338  1.0000
  C   C2597     1.0  0.81396  0.01400  0.49613  1.0000
  C   C2598     1.0  0.74085  0.99644  0.47025  1.0000
  C   C2599     1.0  0.94310  0.32007  0.51208  1.0000
  H   H4145     1.0  0.96203  0.28820  0.51854  1.0000
  H   H4146     1.0  0.88279  0.04123  0.47436  1.0000
  H   H4147     1.0  0.77598  0.00519  0.46804  1.0000
  C   C2600     1.0  0.94678  0.28283  0.46979  1.0000
  H   H4148     1.0  0.97765  0.28684  0.49011  1.0000
  C   C2601     1.0  0.94292  0.26518  0.47117  1.0000
  C   C2602     1.0  0.94558  0.27231  0.47591  1.0000
  H   H4149     1.0  0.94209  0.25702  0.47587  1.0000
  H   H4150     1.0  0.94684  0.26964  0.48425  1.0000
  H   H4151     1.0  0.89782  0.30717  0.45043  1.0000
  S   S1072     1.0  0.77536  0.04264  0.51541  1.0000
  H   H4152     1.0  0.87249  0.11250  0.55328  1.0000
  H   H4153     1.0  0.87179  0.29832  0.52786  1.0000
  H   H4154     1.0  0.97165  0.30326  0.58241  1.0000
  C   C2603     1.0  0.95963  0.21139  0.42345  1.0000
  C   C2604     1.0  0.95588  0.21407  0.41369  1.0000
  C   C2605     1.0  0.95019  0.20726  0.41187  1.0000
  C   C2606     1.0  0.94793  0.19795  0.41995  1.0000
  C   C2607     1.0  0.95176  0.19523  0.42965  1.0000
  C   C2608     1.0  0.95785  0.20176  0.43123  1.0000
  H   H4155     1.0  0.95726  0.22148  0.40760  1.0000
  H   H4156     1.0  0.94722  0.20942  0.40436  1.0000
  H   H4157     1.0  0.95006  0.18807  0.43596  1.0000
  H   H4158     1.0  0.96111  0.19932  0.43851  1.0000
  H   H4159     1.0  0.79461  0.01912  0.44418  1.0000
  H   H4160     1.0  0.77920  0.01671  0.43782  1.0000
  C   C2609     1.0  0.97091  0.10050  0.42885  1.0000
  H   H4161     1.0  0.80922  0.02040  0.47651  1.0000
  H   H4162     1.0  0.96733  0.26910  0.51675  1.0000
  C   C2610     1.0  0.94633  0.23192  0.48437  1.0000
  C   C2611     1.0  0.95647  0.23446  0.48248  1.0000
  C   C2612     1.0  0.95799  0.24097  0.48869  1.0000
  C   C2613     1.0  0.94927  0.24525  0.49652  1.0000
  C   C2614     1.0  0.93905  0.24292  0.49825  1.0000
  C   C2615     1.0  0.93759  0.23619  0.49222  1.0000
  H   H4163     1.0  0.96323  0.23122  0.47639  1.0000
  H   H4164     1.0  0.96590  0.24274  0.48736  1.0000
  H   H4165     1.0  0.93238  0.24599  0.50450  1.0000
  H   H4166     1.0  0.92978  0.23410  0.49377  1.0000
  C   C2616     1.0  0.85015  0.07645  0.43972  1.0000
  C   C2617     1.0  0.85310  0.08638  0.43873  1.0000
  C   C2618     1.0  0.86262  0.08634  0.44178  1.0000
  C   C2619     1.0  0.86942  0.07634  0.44558  1.0000
  C   C2620     1.0  0.86649  0.06643  0.44646  1.0000
  C   C2621     1.0  0.85681  0.06647  0.44375  1.0000
  H   H4167     1.0  0.84803  0.09413  0.43555  1.0000
  H   H4168     1.0  0.86481  0.09402  0.44101  1.0000
  H   H4169     1.0  0.87181  0.05864  0.44904  1.0000
  H   H4170     1.0  0.85472  0.05878  0.44436  1.0000
  C   C2622     1.0  0.89762  0.13851  0.43441  1.0000
  C   C2623     1.0  0.90520  0.14525  0.42974  1.0000
  C   C2624     1.0  0.90508  0.15368  0.43474  1.0000
  C   C2625     1.0  0.89719  0.15551  0.44426  1.0000
  C   C2626     1.0  0.88945  0.14897  0.44869  1.0000
  C   C2627     1.0  0.88977  0.14039  0.44391  1.0000
  H   H4171     1.0  0.91126  0.14384  0.42236  1.0000
  H   H4172     1.0  0.91104  0.15874  0.43122  1.0000
  H   H4173     1.0  0.88320  0.15048  0.45592  1.0000
  H   H4174     1.0  0.88380  0.13533  0.44745  1.0000
  C   C2628     1.0  0.88466  0.09345  0.52728  1.0000
  C   C2629     1.0  0.87559  0.10218  0.52664  1.0000
  C   C2630     1.0  0.86531  0.10009  0.52792  1.0000
  C   C2631     1.0  0.86406  0.08930  0.52944  1.0000
  C   C2632     1.0  0.87319  0.08059  0.52974  1.0000
  C   C2633     1.0  0.88343  0.08265  0.52884  1.0000
  H   H4175     1.0  0.87643  0.11054  0.52534  1.0000
  H   H4176     1.0  0.85828  0.10687  0.52777  1.0000
  H   H4177     1.0  0.87229  0.07224  0.53104  1.0000
  H   H4178     1.0  0.89040  0.07583  0.52938  1.0000
  C   C2634     1.0  0.88334  0.13618  0.49108  1.0000
  C   C2635     1.0  0.88402  0.13665  0.47998  1.0000
  C   C2636     1.0  0.88133  0.12827  0.47700  1.0000
  C   C2637     1.0  0.87767  0.11962  0.48517  1.0000
  C   C2638     1.0  0.87675  0.11932  0.49627  1.0000
  C   C2639     1.0  0.87973  0.12749  0.49919  1.0000
  H   H4179     1.0  0.88682  0.14337  0.47372  1.0000
  H   H4180     1.0  0.88189  0.12862  0.46841  1.0000
  H   H4181     1.0  0.87386  0.11269  0.50263  1.0000
  H   H4182     1.0  0.87903  0.12716  0.50777  1.0000
  C   C2640     1.0  0.89189  0.15227  0.54655  1.0000
  C   C2641     1.0  0.90013  0.15773  0.54001  1.0000
  C   C2642     1.0  0.89912  0.16890  0.53984  1.0000
  C   C2643     1.0  0.88969  0.17467  0.54588  1.0000
  C   C2644     1.0  0.88146  0.16919  0.55225  1.0000
  C   C2645     1.0  0.88263  0.15800  0.55274  1.0000
  H   H4183     1.0  0.90741  0.15325  0.53539  1.0000
  H   H4184     1.0  0.90559  0.17304  0.53509  1.0000
  H   H4185     1.0  0.87418  0.17359  0.55695  1.0000
  H   H4186     1.0  0.87628  0.15382  0.55786  1.0000
  H   H4187     1.0  0.74650  0.99880  0.48814  1.0000
  C   C2646     1.0  0.80226  0.02274  0.48323  1.0000
  H   H4188     1.0  0.97295  0.27012  0.54559  1.0000
  H   H4189     1.0  0.78957  0.99266  0.44353  1.0000
  C   C2647     1.0  0.93839  0.23983  0.53357  1.0000
  H   H4190     1.0  0.75101  0.99511  0.56525  1.0000
  C   C2648     1.0  0.80194  0.00413  0.49372  1.0000
  S   S1073     1.0  0.97629  0.29208  0.54056  1.0000
  N   N256      1.0  0.87523  0.19402  0.44001  1.0000
  H   H4191     1.0  0.92972  0.25690  0.51856  1.0000
  C   C2649     1.0  0.95484  0.12908  0.52894  1.0000
  C   C2650     1.0  0.94353  0.13022  0.53220  1.0000
  C   C2651     1.0  0.93762  0.12942  0.52503  1.0000
  C   C2652     1.0  0.94302  0.12738  0.51458  1.0000
  C   C2653     1.0  0.95432  0.12628  0.51130  1.0000
  C   C2654     1.0  0.96022  0.12717  0.51845  1.0000
  H   H4192     1.0  0.93932  0.13168  0.54031  1.0000
  H   H4193     1.0  0.92889  0.13033  0.52761  1.0000
  H   H4194     1.0  0.95852  0.12453  0.50330  1.0000
  H   H4195     1.0  0.96895  0.12606  0.51600  1.0000
  H   H4196     1.0  0.93759  0.31059  0.46095  1.0000
  H   H4197     1.0  0.95782  0.09064  0.42404  1.0000
  H   H4198     1.0  0.85855  0.30726  0.52895  1.0000
  C   C2655     1.0  0.98335  0.32118  0.56077  1.0000
  C   C2656     1.0  0.76252  0.02133  0.48481  1.0000
  H   H4199     1.0  0.98083  0.25472  0.53587  1.0000
  C   C2657     1.0  0.98318  0.26254  0.53226  1.0000
  C   C2658     1.0  0.94381  0.11374  0.44791  1.0000
  C   C2659     1.0  0.93460  0.11510  0.44382  1.0000
  C   C2660     1.0  0.92838  0.10704  0.44758  1.0000
  C   C2661     1.0  0.93129  0.09760  0.45553  1.0000
  C   C2662     1.0  0.94059  0.09615  0.45954  1.0000
  C   C2663     1.0  0.94686  0.10422  0.45574  1.0000
  H   H4200     1.0  0.93224  0.12240  0.43769  1.0000
  H   H4201     1.0  0.92136  0.10812  0.44423  1.0000
  H   H4202     1.0  0.94286  0.08887  0.46572  1.0000
  H   H4203     1.0  0.95388  0.10319  0.45906  1.0000
  C   C2664     1.0  0.74885  0.99791  0.40758  1.0000
  C   C2665     1.0  0.96208  0.16826  0.42511  1.0000
  H   H4204     1.0  0.96447  0.29488  0.48819  1.0000
  H   H4205     1.0  0.80427  0.09068  0.40977  1.0000
  H   H4206     1.0  0.78637  0.02055  0.50131  1.0000
  H   H4207     1.0  0.82874  0.01314  0.52433  1.0000
  H   H4208     1.0  0.96116  0.29919  0.50651  1.0000
  C   C2666     1.0  0.93744  0.31714  0.43902  1.0000
  H   H4209     1.0  0.96888  0.26563  0.50379  1.0000
  C   C2667     1.0  0.98186  0.28139  0.53330  1.0000
  C   C2668     1.0  0.81758  0.03383  0.52466  1.0000
  H   H4210     1.0  0.79506  0.07832  0.51412  1.0000
  N   N257      1.0  0.82006  0.02497  0.53427  1.0000
  H   H4211     1.0  0.87624  0.09900  0.55024  1.0000
  H   H4212     1.0  0.74840  0.99771  0.46393  1.0000
  H   H4213     1.0  0.94587  0.14718  0.56573  1.0000
  Fe  Fe525     1.0  0.91831  0.29271  0.42881  1.0000
  H   H4214     1.0  0.90109  0.09672  0.54715  1.0000
  H   H4215     1.0  0.94878  0.28062  0.51391  1.0000
  H   H4216     1.0  0.90562  0.16916  0.50367  1.0000
  H   H4217     1.0  0.89587  0.10862  0.56580  1.0000
  C   C2669     1.0  0.84928  0.29443  0.54774  1.0000
  S   S1074     1.0  0.75298  0.01716  0.47065  1.0000
  C   C2670     1.0  0.76043  0.06883  0.43857  1.0000
  S   S1075     1.0  0.75906  0.02105  0.53491  1.0000
  H   H4218     1.0  0.87321  0.10343  0.57290  1.0000
  Fe  Fe526     1.0  0.97624  0.31404  0.44836  1.0000
  N   N258      1.0  0.96153  0.15943  0.42024  1.0000
  H   H4219     1.0  0.92997  0.24593  0.55286  1.0000
  C   C2671     1.0  0.95211  0.16311  0.41495  1.0000
  H   H4220     1.0  0.86064  0.29341  0.52717  1.0000
  H   H4221     1.0  0.97284  0.16435  0.40518  1.0000
  N   N259      1.0  0.97133  0.08856  0.43135  1.0000
  C   C2672     1.0  0.98697  0.15730  0.44338  1.0000
  H   H4222     1.0  0.81530  0.02211  0.49615  1.0000
  H   H4223     1.0  0.98121  0.18430  0.44488  1.0000
  H   H4224     1.0  0.95277  0.17068  0.40830  1.0000
  S   S1076     1.0  0.88261  0.31147  0.50941  1.0000
  H   H4225     1.0  0.91942  0.24379  0.54792  1.0000
  C   C2673     1.0  0.98658  0.15900  0.46173  1.0000
  H   H4226     1.0  0.74353  0.07790  0.45770  1.0000
  H   H4227     1.0  0.96719  0.14659  0.43329  1.0000
  C   C2674     1.0  0.97453  0.08331  0.44203  1.0000
  H   H4228     1.0  0.74551  0.07677  0.48626  1.0000
  N   N260      1.0  0.90568  0.09065  0.49339  1.0000
  C   C2675     1.0  0.91269  0.09093  0.50044  1.0000
  C   C2676     1.0  0.89449  0.09063  0.49997  1.0000
  C   C2677     1.0  0.91004  0.08057  0.48892  1.0000
  C   C2678     1.0  0.90549  0.10048  0.48424  1.0000
  H   H4229     1.0  0.92123  0.09078  0.49577  1.0000
  H   H4230     1.0  0.91275  0.08381  0.50765  1.0000
  H   H4231     1.0  0.90974  0.09850  0.50381  1.0000
  H   H4232     1.0  0.88892  0.09070  0.49483  1.0000
  H   H4233     1.0  0.89425  0.08325  0.50687  1.0000
  H   H4234     1.0  0.89108  0.09802  0.50365  1.0000
  H   H4235     1.0  0.90520  0.08026  0.48323  1.0000
  H   H4236     1.0  0.91000  0.07300  0.49561  1.0000
  H   H4237     1.0  0.91857  0.08020  0.48412  1.0000
  H   H4238     1.0  0.90005  0.10058  0.47898  1.0000
  H   H4239     1.0  0.91374  0.10065  0.47885  1.0000
  H   H4240     1.0  0.90235  0.10822  0.48737  1.0000
  N   N261      1.0  0.84433  0.10484  0.49956  1.0000
  C   C2679     1.0  0.84776  0.11263  0.50364  1.0000
  C   C2680     1.0  0.83372  0.10285  0.50647  1.0000
  C   C2681     1.0  0.85250  0.09432  0.50020  1.0000
  C   C2682     1.0  0.84336  0.10948  0.48797  1.0000
  H   H4241     1.0  0.85563  0.11451  0.49849  1.0000
  H   H4242     1.0  0.84886  0.10917  0.51227  1.0000
  H   H4243     1.0  0.84168  0.12059  0.50351  1.0000
  H   H4244     1.0  0.83100  0.09675  0.50383  1.0000
  H   H4245     1.0  0.83418  0.09957  0.51531  1.0000
  H   H4246     1.0  0.82728  0.11055  0.50601  1.0000
  H   H4247     1.0  0.85343  0.09056  0.50881  1.0000
  H   H4248     1.0  0.86063  0.09548  0.49519  1.0000
  H   H4249     1.0  0.85020  0.08828  0.49712  1.0000
  H   H4250     1.0  0.85129  0.11099  0.48254  1.0000
  H   H4251     1.0  0.83732  0.11746  0.48712  1.0000
  H   H4252     1.0  0.84078  0.10372  0.48471  1.0000
  Fe  Fe527     1.0  0.98380  0.21875  0.45631  1.0000
  N   N262      1.0  0.95682  0.15204  0.48028  1.0000
  C   C2683     1.0  0.94642  0.14947  0.48728  1.0000
  C   C2684     1.0  0.95843  0.16203  0.48243  1.0000
  C   C2685     1.0  0.95660  0.15396  0.46852  1.0000
  H   H4253     1.0  0.94498  0.14193  0.48592  1.0000
  H   H4254     1.0  0.93939  0.15633  0.48558  1.0000
  H   H4255     1.0  0.94634  0.14792  0.49621  1.0000
  H   H4256     1.0  0.95186  0.16932  0.48033  1.0000
  H   H4257     1.0  0.95528  0.14663  0.46663  1.0000
  H   H4258     1.0  0.96439  0.15581  0.46304  1.0000
  N   N263      1.0  0.91883  0.13646  0.46671  1.0000
  C   C2686     1.0  0.92738  0.12866  0.47215  1.0000
  C   C2687     1.0  0.91139  0.13037  0.46549  1.0000
  C   C2688     1.0  0.92390  0.14221  0.45569  1.0000
  C   C2689     1.0  0.91262  0.14463  0.47348  1.0000
  H   H4259     1.0  0.93308  0.13299  0.47330  1.0000
  H   H4260     1.0  0.93231  0.12247  0.46718  1.0000
  H   H4261     1.0  0.90502  0.13599  0.46115  1.0000
  H   H4262     1.0  0.91581  0.12399  0.46060  1.0000
  H   H4263     1.0  0.91770  0.14850  0.45158  1.0000
  H   H4264     1.0  0.92822  0.13637  0.45018  1.0000
  H   H4265     1.0  0.92994  0.14649  0.45623  1.0000
  H   H4266     1.0  0.90570  0.15029  0.46996  1.0000
  H   H4267     1.0  0.91783  0.14979  0.47412  1.0000
  N   N264      1.0  0.93111  0.22963  0.44884  1.0000
  C   C2690     1.0  0.93252  0.22543  0.43891  1.0000
  C   C2691     1.0  0.92158  0.23894  0.44948  1.0000
  C   C2692     1.0  0.94092  0.23343  0.44820  1.0000
  C   C2693     1.0  0.92939  0.22074  0.45877  1.0000
  H   H4268     1.0  0.92530  0.22240  0.43918  1.0000
  H   H4269     1.0  0.93968  0.21843  0.43816  1.0000
  H   H4270     1.0  0.93372  0.23193  0.43123  1.0000
  H   H4271     1.0  0.92071  0.24272  0.45652  1.0000
  H   H4272     1.0  0.92226  0.24551  0.44180  1.0000
  H   H4273     1.0  0.91394  0.23621  0.45066  1.0000
  H   H4274     1.0  0.94039  0.23612  0.45583  1.0000
  H   H4275     1.0  0.94207  0.24054  0.44113  1.0000
  H   H4276     1.0  0.94832  0.22676  0.44709  1.0000
  H   H4277     1.0  0.92798  0.22370  0.46647  1.0000
  H   H4278     1.0  0.93654  0.21368  0.45878  1.0000
  H   H4279     1.0  0.92219  0.21755  0.45930  1.0000
  Fe  Fe528     1.0  0.98356  0.29013  0.44572  1.0000
  H   H4280     1.0  0.96830  0.10480  0.42098  1.0000
  C   C2694     1.0  0.77583  0.99473  0.54774  1.0000
  S   S1077     1.0  0.97277  0.30909  0.46685  1.0000
  H   H4281     1.0  0.94488  0.31076  0.44046  1.0000
  H   H4282     1.0  0.86579  0.27755  0.54190  1.0000
  C   C2695     1.0  0.79459  0.01939  0.50282  1.0000
  H   H4283     1.0  0.94435  0.16522  0.42099  1.0000
  H   H4284     1.0  0.87280  0.30200  0.54539  1.0000
  H   H4285     1.0  0.95154  0.27737  0.50062  1.0000
  H   H4286     1.0  0.80024  0.99361  0.44908  1.0000
  H   H4287     1.0  0.76336  0.06197  0.46450  1.0000
  H   H4288     1.0  0.98539  0.30505  0.57883  1.0000
  S   S1078     1.0  0.90436  0.31774  0.51194  1.0000
  H   H4289     1.0  0.98254  0.26053  0.42416  1.0000
  H   H4290     1.0  0.93322  0.23382  0.53508  1.0000
  C   C2696     1.0  0.97164  0.15695  0.41189  1.0000
  C   C2697     1.0  0.81185  0.09139  0.43260  1.0000
  C   C2698     1.0  0.82330  0.08928  0.41479  1.0000
  H   H4291     1.0  0.81785  0.09488  0.43442  1.0000
  H   H4292     1.0  0.81387  0.08237  0.43591  1.0000
  H   H4293     1.0  0.80361  0.09460  0.43734  1.0000
  H   H4294     1.0  0.82561  0.08018  0.41776  1.0000
  H   H4295     1.0  0.82956  0.09271  0.41622  1.0000
  H   H4296     1.0  0.88791  0.19630  0.42541  1.0000
  H   H4297     1.0  0.77833  0.05425  0.53728  1.0000
  H   H4298     1.0  0.87478  0.17766  0.44980  1.0000
  C   C2699     1.0  0.87951  0.10578  0.55095  1.0000
  C   C2700     1.0  0.86918  0.18541  0.44661  1.0000
  H   H4299     1.0  0.88407  0.10906  0.54259  1.0000
  Fe  Fe529     1.0  0.75945  0.03780  0.52402  1.0000
  C   C2701     1.0  0.75325  0.00564  0.52824  1.0000
  S   S1079     1.0  0.75341  0.03477  0.43996  1.0000
  N   N265      1.0  0.78579  0.00615  0.45158  1.0000
  C   C2702     1.0  0.79357  0.99857  0.44488  1.0000
  C   C2703     1.0  0.78187  0.99976  0.46272  1.0000
  C   C2704     1.0  0.77651  0.01183  0.44626  1.0000
  C   C2705     1.0  0.79124  0.01435  0.45245  1.0000
  H   H4300     1.0  0.97505  0.07427  0.44412  1.0000
  H   H4301     1.0  0.98414  0.17269  0.43155  1.0000
  Fe  Fe530     1.0  0.76880  0.04689  0.50024  1.0000
  H   H4302     1.0  0.97903  0.10210  0.42807  1.0000
  C   C2706     1.0  0.74204  0.07772  0.47904  1.0000
  H   H4303     1.0  0.78871  0.99534  0.46694  1.0000
  H   H4304     1.0  0.77046  0.01759  0.45110  1.0000
  H   H4305     1.0  0.77220  0.00585  0.44554  1.0000
  H   H4306     1.0  0.91922  0.26333  0.52848  1.0000
  C   C2707     1.0  0.94094  0.26875  0.46054  1.0000
  H   H4307     1.0  0.96834  0.28083  0.48690  1.0000
  H   H4308     1.0  0.88674  0.18902  0.45040  1.0000
  S   S1080     1.0  0.90214  0.28956  0.42925  1.0000
  H   H4309     1.0  0.82877  0.03402  0.53913  1.0000
  H   H4310     1.0  0.82071  0.01059  0.48972  1.0000
  H   H4311     1.0  0.95855  0.16092  0.49124  1.0000
  H   H4312     1.0  0.95454  0.17041  0.43137  1.0000
  H   H4313     1.0  0.96481  0.13490  0.48158  1.0000
  H   H4314     1.0  0.79316  0.04816  0.54755  1.0000
  C   C2708     1.0  0.86403  0.30177  0.54848  1.0000
  C   C2709     1.0  0.78534  0.05797  0.53428  1.0000
  C   C2710     1.0  0.82993  0.02594  0.53700  1.0000
  N   N266      1.0  0.93173  0.25075  0.53526  1.0000
  H   H4315     1.0  0.94998  0.16109  0.46622  1.0000
  S   S1081     1.0  0.93623  0.26040  0.45519  1.0000
  C   C2711     1.0  0.88976  0.29883  0.46614  1.0000
  H   H4316     1.0  0.95002  0.16496  0.56520  1.0000
  H   H4317     1.0  0.96704  0.14477  0.54829  1.0000
  H   H4318     1.0  0.94328  0.24030  0.52501  1.0000
  S   S1082     1.0  0.75379  0.04050  0.50847  1.0000
  H   H4319     1.0  0.96628  0.16410  0.47739  1.0000
  H   H4320     1.0  0.86256  0.29900  0.55761  1.0000
  H   H4321     1.0  0.90713  0.12623  0.47366  1.0000
  H   H4322     1.0  0.81490  0.00845  0.50425  1.0000
  H   H4323     1.0  0.86470  0.18329  0.44161  1.0000
  Fe  Fe531     1.0  0.83662  0.98955  0.51099  1.0000
  H   H4324     1.0  0.88585  0.20283  0.44223  1.0000
  C   C2712     1.0  0.96583  0.14265  0.48291  1.0000
  S   S1083     1.0  0.88670  0.28932  0.46082  1.0000
  H   H4325     1.0  0.91972  0.24954  0.52754  1.0000
  H   H4326     1.0  0.97011  0.15760  0.54772  1.0000
  H   H4327     1.0  0.79488  0.06285  0.47360  1.0000
  H   H4328     1.0  0.95512  0.17338  0.55220  1.0000
  H   H4329     1.0  0.96508  0.14921  0.56079  1.0000
  H   H4330     1.0  0.81622  0.04211  0.52639  1.0000
  H   H4331     1.0  0.97382  0.14415  0.47770  1.0000
  H   H4332     1.0  0.98773  0.08479  0.42196  1.0000
  H   H4333     1.0  0.96633  0.14114  0.49168  1.0000
  H   H4334     1.0  0.80311  0.02589  0.54193  1.0000
  H   H4335     1.0  0.87714  0.18228  0.51533  1.0000
  C   C2713     1.0  0.94972  0.16745  0.55633  1.0000
  C   C2714     1.0  0.96431  0.15210  0.55205  1.0000
  H   H4336     1.0  0.94786  0.14292  0.55311  1.0000
  H   H4337     1.0  0.92383  0.12411  0.48046  1.0000
  H   H4338     1.0  0.90911  0.14053  0.48201  1.0000
  S   S1084     1.0  0.98774  0.22332  0.52751  1.0000
  H   H4339     1.0  0.97904  0.27121  0.50595  1.0000
  H   H4340     1.0  0.77776  0.99346  0.46234  1.0000
  H   H4341     1.0  0.95087  0.31209  0.52578  1.0000
  Fe  Fe532     1.0  0.92420  0.27142  0.44539  1.0000
  H   H4342     1.0  0.84741  0.29143  0.55686  1.0000
  H   H4343     1.0  0.88911  0.18241  0.43339  1.0000
  C   C2715     1.0  0.96894  0.28652  0.49164  1.0000
  S   S1085     1.0  0.74816  0.06743  0.43663  1.0000
  N   N267      1.0  0.79206  0.07260  0.48556  1.0000
  C   C2716     1.0  0.89307  0.19247  0.51335  1.0000
  N   N268      1.0  0.95304  0.15784  0.55116  1.0000
  H   H4344     1.0  0.94127  0.17205  0.55574  1.0000
  H   H4345     1.0  0.80842  0.00045  0.48730  1.0000
  C   C2717     1.0  0.98311  0.17542  0.44753  1.0000
  H   H4346     1.0  0.79582  0.09217  0.42313  1.0000
  H   H4347     1.0  0.89248  0.18135  0.49267  1.0000
  C   C2718     1.0  0.94544  0.31162  0.52113  1.0000
  C   C2719     1.0  0.98409  0.17051  0.45841  1.0000
  C   C2720     1.0  0.94217  0.27924  0.45440  1.0000
  H   H4348     1.0  0.86171  0.05137  0.49748  1.0000
  C   C2721     1.0  0.88039  0.09717  0.56988  1.0000
  C   C2722     1.0  0.94563  0.15024  0.55685  1.0000
  H   H4349     1.0  0.78555  0.02032  0.45729  1.0000
  H   H4350     1.0  0.97415  0.29066  0.50850  1.0000
  N   N269      1.0  0.81224  0.09390  0.42065  1.0000
  H   H4351     1.0  0.75523  0.08651  0.43534  1.0000
  H   H4352     1.0  0.88585  0.05393  0.47446  1.0000
  H   H4353     1.0  0.87533  0.19976  0.45410  1.0000
  H   H4354     1.0  0.88369  0.11796  0.56235  1.0000
  N   N270      1.0  0.80319  0.01506  0.49396  1.0000
  H   H4355     1.0  0.95791  0.16743  0.53489  1.0000
  H   H4356     1.0  0.93706  0.15436  0.55631  1.0000
  C   C2723     1.0  0.78887  0.06992  0.47668  1.0000
  C   C2724     1.0  0.95252  0.16156  0.53939  1.0000
  C   C2725     1.0  0.76505  0.03256  0.46625  1.0000
  H   H4357     1.0  0.87909  0.18799  0.42514  1.0000
  H   H4358     1.0  0.82395  0.09098  0.40575  1.0000
  H   H4359     1.0  0.88587  0.17001  0.51116  1.0000
  H   H4360     1.0  0.92690  0.32174  0.46497  1.0000
  H   H4361     1.0  0.97938  0.30665  0.55194  1.0000
  C   C2726     1.0  0.96560  0.25698  0.44106  1.0000
  H   H4362     1.0  0.95508  0.15449  0.53523  1.0000
  H   H4363     1.0  0.75915  0.01483  0.49094  1.0000
  H   H4364     1.0  0.87951  0.05351  0.46412  1.0000
  H   H4365     1.0  0.86308  0.20262  0.43051  1.0000
  H   H4366     1.0  0.94414  0.23635  0.53920  1.0000
  S   S1086     1.0  0.92490  0.30795  0.41997  1.0000
  C   C2727     1.0  0.89702  0.31206  0.47520  1.0000
  H   H4367     1.0  0.76050  0.07650  0.46346  1.0000
  Fe  Fe533     1.0  0.89931  0.31261  0.49921  1.0000
  H   H4368     1.0  0.89811  0.19282  0.49169  1.0000
  C   C2728     1.0  0.96777  0.24918  0.42546  1.0000
  C   C2729     1.0  0.75028  0.01626  0.53024  1.0000
  H   H4369     1.0  0.97572  0.24370  0.42683  1.0000
  N   N271      1.0  0.89380  0.18337  0.50817  1.0000
  H   H4370     1.0  0.84412  0.30286  0.54580  1.0000
  H   H4371     1.0  0.81551  0.10992  0.41791  1.0000
  Fe  Fe534     1.0  0.91121  0.27192  0.42939  1.0000
  H   H4372     1.0  0.91138  0.26049  0.47215  1.0000
  C   C2730     1.0  0.79375  0.05451  0.54007  1.0000
  S   S1087     1.0  0.91080  0.25995  0.41983  1.0000
  H   H4373     1.0  0.92295  0.25697  0.47823  1.0000
  H   H4374     1.0  0.90880  0.28035  0.47140  1.0000
  N   N272      1.0  0.96572  0.25954  0.42917  1.0000
  H   H4375     1.0  0.97318  0.27333  0.42566  1.0000
  Fe  Fe535     1.0  0.98280  0.22081  0.51322  1.0000
  S   S1088     1.0  0.98059  0.28358  0.46385  1.0000
  C   C2731     1.0  0.93043  0.31685  0.45847  1.0000
  H   H4376     1.0  0.80242  0.99821  0.50177  1.0000
  H   H4377     1.0  0.94423  0.25513  0.53988  1.0000
  H   H4378     1.0  0.78825  0.07701  0.46949  1.0000
  C   C2732     1.0  0.94534  0.28617  0.45894  1.0000
  H   H4379     1.0  0.89367  0.27137  0.48116  1.0000
  H   H4380     1.0  0.96274  0.19193  0.51893  1.0000
  S   S1089     1.0  0.98225  0.23826  0.50366  1.0000
  C   C2733     1.0  0.93629  0.31921  0.50592  1.0000
  C   C2734     1.0  0.89582  0.30648  0.45925  1.0000
  C   C2735     1.0  0.80961  0.10598  0.41653  1.0000
  C   C2736     1.0  0.89054  0.11119  0.55978  1.0000
  H   H4381     1.0  0.87235  0.04002  0.49393  1.0000
  N   N273      1.0  0.90889  0.26753  0.48612  1.0000
  C   C2737     1.0  0.89693  0.26901  0.48879  1.0000
  C   C2738     1.0  0.91189  0.27787  0.47913  1.0000
  H   H4382     1.0  0.89435  0.26134  0.49392  1.0000
  H   H4383     1.0  0.92086  0.27702  0.47672  1.0000
  H   H4384     1.0  0.94090  0.19885  0.51182  1.0000
  H   H4385     1.0  0.81229  0.01919  0.55111  1.0000
  C   C2739     1.0  0.97439  0.26555  0.42293  1.0000
  H   H4386     1.0  0.81014  0.03347  0.52239  1.0000
  C   C2740     1.0  0.86301  0.29858  0.53133  1.0000
  H   H4387     1.0  0.78090  0.06745  0.47968  1.0000
  H   H4388     1.0  0.92178  0.26397  0.49467  1.0000
  H   H4389     1.0  0.90841  0.28480  0.48347  1.0000
  H   H4390     1.0  0.90213  0.31248  0.43056  1.0000
  C   C2741     1.0  0.80256  0.07602  0.48120  1.0000
  C   C2742     1.0  0.80278  0.05942  0.53632  1.0000
  H   H4391     1.0  0.86146  0.20737  0.44281  1.0000
  C   C2743     1.0  0.92490  0.24947  0.54656  1.0000
  H   H4392     1.0  0.94072  0.28203  0.44613  1.0000
  H   H4393     1.0  0.81461  0.01309  0.52955  1.0000
  H   H4394     1.0  0.96989  0.18423  0.50854  1.0000
  H   H4395     1.0  0.78527  0.06023  0.49839  1.0000
  C   C2744     1.0  0.91282  0.26473  0.49644  1.0000
  H   H4396     1.0  0.89289  0.27563  0.49348  1.0000
  H   H4397     1.0  0.91099  0.25679  0.50176  1.0000
  H   H4398     1.0  0.95611  0.18332  0.51558  1.0000
  C   C2745     1.0  0.96178  0.18902  0.51202  1.0000
  H   H4399     1.0  0.79542  0.02754  0.50333  1.0000
  H   H4400     1.0  0.93118  0.31283  0.43901  1.0000
  C   C2746     1.0  0.98678  0.24840  0.45677  1.0000
  H   H4401     1.0  0.95325  0.27431  0.43004  1.0000
  C   C2747     1.0  0.86518  0.06547  0.47789  1.0000
  S   S1090     1.0  0.91651  0.28869  0.44710  1.0000
  C   C2748     1.0  0.88317  0.19002  0.43056  1.0000
  H   H4402     1.0  0.94335  0.21140  0.50225  1.0000
  C   C2749     1.0  0.94677  0.20435  0.50847  1.0000
  H   H4403     1.0  0.90887  0.27118  0.50135  1.0000
  C   C2750     1.0  0.95508  0.26646  0.42728  1.0000
  H   H4404     1.0  0.97466  0.26776  0.41393  1.0000
  H   H4405     1.0  0.98000  0.07461  0.42413  1.0000
  H   H4406     1.0  0.82403  0.00724  0.53855  1.0000
  N   N274      1.0  0.96428  0.28299  0.50349  1.0000
  C   C2751     1.0  0.98470  0.16882  0.44000  1.0000
  C   C2752     1.0  0.97014  0.27172  0.50767  1.0000
  H   H4407     1.0  0.82441  0.03327  0.51729  1.0000
  C   C2753     1.0  0.89603  0.09331  0.55521  1.0000
  H   H4408     1.0  0.80133  0.10972  0.42080  1.0000
  C   C2754     1.0  0.86970  0.04917  0.49184  1.0000
  S   S1091     1.0  0.92756  0.27562  0.42701  1.0000
  H   H4409     1.0  0.90412  0.31899  0.45839  1.0000
  H   H4410     1.0  0.81025  0.07163  0.52382  1.0000
  C   C2755     1.0  0.90473  0.17603  0.50768  1.0000
  H   H4411     1.0  0.97351  0.20181  0.49601  1.0000
  N   N275      1.0  0.95765  0.19840  0.50359  1.0000
  C   C2756     1.0  0.96516  0.20599  0.49960  1.0000
  H   H4412     1.0  0.76935  0.02533  0.49609  1.0000
  C   C2757     1.0  0.79474  0.07156  0.52126  1.0000
  H   H4413     1.0  0.94708  0.20771  0.51540  1.0000
  H   H4414     1.0  0.86319  0.18809  0.45387  1.0000
  H   H4415     1.0  0.90142  0.08989  0.56121  1.0000
  C   C2758     1.0  0.75735  0.99838  0.55836  1.0000
  H   H4416     1.0  0.91118  0.18061  0.50289  1.0000
  H   H4417     1.0  0.88493  0.19818  0.51391  1.0000
  Fe  Fe536     1.0  0.97734  0.19683  0.46112  1.0000
  C   C2759     1.0  0.74673  0.00217  0.52356  1.0000
  C   C2760     1.0  0.87974  0.05033  0.47299  1.0000
  H   H4418     1.0  0.96232  0.21317  0.49324  1.0000
  H   H4419     1.0  0.96791  0.25077  0.41651  1.0000
  H   H4420     1.0  0.96906  0.16576  0.42923  1.0000
  C   C2761     1.0  0.74243  0.07013  0.46387  1.0000
  H   H4421     1.0  0.80985  0.10817  0.40752  1.0000
  H   H4422     1.0  0.76792  0.05152  0.44212  1.0000
  H   H4423     1.0  0.95125  0.18857  0.49708  1.0000
  C   C2762     1.0  0.95690  0.19429  0.49430  1.0000
  C   C2763     1.0  0.81083  0.02599  0.54385  1.0000
  H   H4424     1.0  0.86418  0.06886  0.46924  1.0000
  H   H4425     1.0  0.87107  0.06953  0.47910  1.0000
  H   H4426     1.0  0.86365  0.03928  0.47944  1.0000
  H   H4427     1.0  0.86008  0.05155  0.46926  1.0000
  C   C2764     1.0  0.76877  0.05978  0.44139  1.0000
  N   N276      1.0  0.86892  0.05334  0.48016  1.0000
  C   C2765     1.0  0.82192  0.01413  0.53158  1.0000
  C   C2766     1.0  0.92476  0.25534  0.52712  1.0000
  C   C2767     1.0  0.77255  0.03579  0.47987  1.0000
  H   H4428     1.0  0.97452  0.29777  0.56458  1.0000
  H   H4429     1.0  0.95374  0.20117  0.48783  1.0000
  H   H4430     1.0  0.96499  0.18986  0.49031  1.0000
  C   C2768     1.0  0.79315  0.06275  0.49463  1.0000
  C   C2769     1.0  0.76829  0.02729  0.48772  1.0000
  H   H4431     1.0  0.80596  0.07987  0.42176  1.0000
  H   H4432     1.0  0.94839  0.26214  0.43195  1.0000
  H   H4433     1.0  0.90639  0.17232  0.51606  1.0000
  H   H4434     1.0  0.94421  0.25936  0.52543  1.0000
  H   H4435     1.0  0.83216  0.01935  0.54413  1.0000
  H   H4436     1.0  0.80957  0.03383  0.54644  1.0000
  C   C2770     1.0  0.80423  0.08898  0.41870  1.0000
  S   S1092     1.0  0.77490  0.07183  0.51812  1.0000
  H   H4437     1.0  0.92647  0.30929  0.50413  1.0000
  H   H4438     1.0  0.88380  0.19360  0.49689  1.0000
  H   H4439     1.0  0.91972  0.25752  0.54818  1.0000
  H   H4440     1.0  0.94643  0.29419  0.45412  1.0000
  C   C2771     1.0  0.86752  0.28316  0.54604  1.0000
  N   N277      1.0  0.97623  0.31327  0.56629  1.0000
  Fe  Fe537     1.0  0.74590  0.05741  0.51126  1.0000
  C   C2772     1.0  0.97692  0.30926  0.57800  1.0000
  H   H4441     1.0  0.94802  0.29142  0.50171  1.0000
  Fe  Fe538     1.0  0.74506  0.02874  0.45741  1.0000
  H   H4442     1.0  0.74914  0.99405  0.52184  1.0000
  H   H4443     1.0  0.92427  0.31233  0.45868  1.0000
  H   H4444     1.0  0.96405  0.32170  0.55685  1.0000
  H   H4445     1.0  0.86598  0.27961  0.55507  1.0000
  H   H4446     1.0  0.75887  0.00562  0.56026  1.0000
  H   H4447     1.0  0.77321  0.99806  0.53977  1.0000
  C   C2773     1.0  0.96048  0.08683  0.43198  1.0000
  Fe  Fe539     1.0  0.98546  0.24120  0.51866  1.0000
  H   H4448     1.0  0.98350  0.13208  0.50309  1.0000
  H   H4449     1.0  0.96043  0.07791  0.43397  1.0000
  H   H4450     1.0  0.97902  0.26556  0.45620  1.0000
  C   C2774     1.0  0.98406  0.12150  0.49268  1.0000
  H   H4451     1.0  0.98181  0.24551  0.46473  1.0000
  H   H4452     1.0  0.97739  0.08747  0.41434  1.0000
  C   C2775     1.0  0.97978  0.30387  0.56079  1.0000
  C   C2776     1.0  0.75913  0.06856  0.46915  1.0000
  H   H4453     1.0  0.74622  0.06326  0.45949  1.0000
  C   C2777     1.0  0.98531  0.25978  0.45201  1.0000
  H   H4454     1.0  0.75381  0.00154  0.55091  1.0000
  H   H4455     1.0  0.98267  0.08454  0.44185  1.0000
  H   H4456     1.0  0.73826  0.03151  0.52937  1.0000
  S   S1093     1.0  0.96116  0.32193  0.53520  1.0000
  S   S1094     1.0  0.98767  0.31994  0.52959  1.0000
  C   C2778     1.0  0.90494  0.32008  0.42821  1.0000
  H   H4457     1.0  0.93952  0.32226  0.43057  1.0000
  H   H4458     1.0  0.77825  0.99088  0.51937  1.0000
  C   C2779     1.0  0.91574  0.32017  0.42278  1.0000
  S   S1095     1.0  0.90196  0.31989  0.48102  1.0000
  S   S1096     1.0  0.98662  0.20647  0.44592  1.0000
  H   H4459     1.0  0.98758  0.15519  0.47008  1.0000
  Fe  Fe540     1.0  0.98640  0.13188  0.44121  1.0000
  S   S1097     1.0  0.98433  0.10871  0.47915  1.0000
  C   C2780     1.0  0.98784  0.15239  0.45429  1.0000
  C   C2781     1.0  0.98730  0.12966  0.49535  1.0000
  H   H4460     1.0  0.98690  0.26053  0.47999  1.0000
  N   N278      1.0  0.76745  0.98984  0.55650  1.0000
  S   S1098     1.0  0.90731  0.48758  0.26185  1.0000
  Fe  Fe541     1.0  0.90675  0.47023  0.24204  1.0000
  S   S1099     1.0  0.90251  0.48867  0.23785  1.0000
  S   S1100     1.0  0.90848  0.46034  0.22956  1.0000
  Fe  Fe542     1.0  0.89336  0.48685  0.25549  1.0000
  S   S1101     1.0  0.87729  0.49796  0.26044  1.0000
  Fe  Fe543     1.0  0.91681  0.48737  0.24461  1.0000
  S   S1102     1.0  0.92922  0.49745  0.23580  1.0000
  S   S1103     1.0  0.89637  0.46839  0.25931  1.0000
  S   S1104     1.0  0.92185  0.46907  0.24760  1.0000
  Fe  Fe544     1.0  0.90011  0.47753  0.17008  1.0000
  S   S1105     1.0  0.91729  0.47747  0.16088  1.0000
  S   S1106     1.0  0.89346  0.48549  0.18479  1.0000
  Fe  Fe545     1.0  0.89483  0.46981  0.15218  1.0000
  S   S1107     1.0  0.91156  0.46941  0.14139  1.0000
  S   S1108     1.0  0.88077  0.46557  0.14861  1.0000
  Fe  Fe546     1.0  0.91711  0.46165  0.15724  1.0000
  S   S1109     1.0  0.93254  0.44876  0.15698  1.0000
  Fe  Fe547     1.0  0.91029  0.48524  0.14599  1.0000
  S   S1110     1.0  0.91729  0.49905  0.13407  1.0000
  S   S1111     1.0  0.90048  0.46077  0.16792  1.0000
  S   S1112     1.0  0.89300  0.48650  0.15527  1.0000
  Fe  Fe548     1.0  0.91342  0.55618  0.17694  1.0000
  S   S1113     1.0  0.89658  0.55427  0.18630  1.0000
  S   S1114     1.0  0.92198  0.56978  0.17406  1.0000
  Fe  Fe549     1.0  0.91934  0.53442  0.16997  1.0000
  S   S1115     1.0  0.90325  0.53029  0.17887  1.0000
  S   S1116     1.0  0.93305  0.52536  0.15873  1.0000
  Fe  Fe550     1.0  0.89625  0.54799  0.17183  1.0000
  S   S1117     1.0  0.88224  0.55122  0.16366  1.0000
  Fe  Fe551     1.0  0.90499  0.53681  0.19256  1.0000
  S   S1118     1.0  0.90268  0.52698  0.21016  1.0000
  S   S1119     1.0  0.91226  0.55157  0.16194  1.0000
  S   S1120     1.0  0.92184  0.53924  0.18423  1.0000
  Fe  Fe552     1.0  0.89440  0.54733  0.26317  1.0000
  S   S1121     1.0  0.90403  0.52998  0.26667  1.0000
  S   S1122     1.0  0.88759  0.55412  0.24781  1.0000
  Fe  Fe553     1.0  0.89886  0.55288  0.28299  1.0000
  S   S1123     1.0  0.90859  0.53586  0.28789  1.0000
  C   C2782     1.0  0.73914  0.50828  0.01501  1.0000
  Fe  Fe554     1.0  0.91590  0.53748  0.26986  1.0000
  S   S1124     1.0  0.93384  0.53419  0.26362  1.0000
  Fe  Fe555     1.0  0.89546  0.53041  0.28426  1.0000
  S   S1125     1.0  0.88894  0.51583  0.29509  1.0000
  S   S1126     1.0  0.90707  0.55481  0.26505  1.0000
  S   S1127     1.0  0.88495  0.54737  0.28068  1.0000
  S   S1128     1.0  0.97942  0.47990  0.28277  1.0000
  H   H4461     1.0  0.81415  0.50627  0.06119  1.0000
  H   H4462     1.0  0.93943  0.58212  0.26561  1.0000
  Fe  Fe556     1.0  0.96737  0.48055  0.27330  1.0000
  S   S1129     1.0  0.95268  0.49431  0.27322  1.0000
  S   S1130     1.0  0.96707  0.46279  0.27954  1.0000
  Fe  Fe557     1.0  0.96293  0.46033  0.18936  1.0000
  H   H4463     1.0  0.80207  0.43968  0.99600  1.0000
  S   S1131     1.0  0.94917  0.45183  0.19683  1.0000
  Fe  Fe558     1.0  0.96682  0.48334  0.18186  1.0000
  S   S1132     1.0  0.96014  0.50155  0.17874  1.0000
  C   C2783     1.0  0.91366  0.45708  0.30159  1.0000
  H   H4464     1.0  0.78078  0.52082  0.03355  1.0000
  H   H4465     1.0  0.96750  0.51996  0.17972  1.0000
  S   S1133     1.0  0.96259  0.47277  0.17344  1.0000
  S   S1134     1.0  0.96532  0.47166  0.19832  1.0000
  Fe  Fe559     1.0  0.95684  0.55807  0.21222  1.0000
  S   S1135     1.0  0.97251  0.56380  0.20702  1.0000
  S   S1136     1.0  0.93973  0.56791  0.21533  1.0000
  Fe  Fe560     1.0  0.96793  0.53428  0.21302  1.0000
  H   H4466     1.0  0.95399  0.44450  0.05264  1.0000
  H   H4467     1.0  0.95410  0.49333  0.20227  1.0000
  H   H4468     1.0  0.76300  0.57972  0.99808  1.0000
  H   H4469     1.0  0.79468  0.45073  0.01566  1.0000
  H   H4470     1.0  0.97058  0.44169  0.05974  1.0000
  H   H4471     1.0  0.96770  0.57899  0.31472  1.0000
  S   S1137     1.0  0.96214  0.54432  0.22585  1.0000
  S   S1138     1.0  0.96142  0.54767  0.19972  1.0000
  Fe  Fe561     1.0  0.97323  0.54618  0.29103  1.0000
  S   S1139     1.0  0.74166  0.54157  0.02991  1.0000
  S   S1140     1.0  0.96845  0.55962  0.27678  1.0000
  H   H4472     1.0  0.81640  0.59531  0.06422  1.0000
  C   C2784     1.0  0.81136  0.58472  0.04534  1.0000
  H   H4473     1.0  0.94510  0.45636  0.29451  1.0000
  H   H4474     1.0  0.80659  0.57567  0.06712  1.0000
  H   H4475     1.0  0.76732  0.56989  0.02369  1.0000
  Fe  Fe562     1.0  0.96299  0.52759  0.30557  1.0000
  S   S1141     1.0  0.94894  0.51976  0.30847  1.0000
  S   S1142     1.0  0.96015  0.54509  0.30651  1.0000
  Fe  Fe563     1.0  0.88704  0.48382  0.07259  1.0000
  S   S1143     1.0  0.88138  0.46878  0.07320  1.0000
  S   S1144     1.0  0.90354  0.48783  0.06588  1.0000
  Fe  Fe564     1.0  0.86512  0.49431  0.08537  1.0000
  S   S1145     1.0  0.85755  0.48023  0.08731  1.0000
  S   S1146     1.0  0.85636  0.50983  0.09116  1.0000
  Fe  Fe565     1.0  0.87367  0.46988  0.09093  1.0000
  S   S1147     1.0  0.87454  0.45592  0.10589  1.0000
  Fe  Fe566     1.0  0.86577  0.48052  0.06947  1.0000
  S   S1148     1.0  0.85757  0.48429  0.05504  1.0000
  S   S1149     1.0  0.88037  0.48409  0.09036  1.0000
  S   S1150     1.0  0.87234  0.49543  0.06746  1.0000
  Fe  Fe567     1.0  0.89381  0.55960  0.10252  1.0000
  S   S1151     1.0  0.90346  0.56100  0.08497  1.0000
  S   S1152     1.0  0.89190  0.57210  0.11239  1.0000
  Fe  Fe568     1.0  0.89149  0.53672  0.10451  1.0000
  S   S1153     1.0  0.90107  0.53599  0.08744  1.0000
  S   S1154     1.0  0.88641  0.52129  0.11482  1.0000
  Fe  Fe569     1.0  0.91240  0.54388  0.09121  1.0000
  S   S1155     1.0  0.93038  0.53629  0.08757  1.0000
  Fe  Fe570     1.0  0.89115  0.55304  0.08265  1.0000
  S   S1156     1.0  0.88599  0.55674  0.06629  1.0000
  S   S1157     1.0  0.90361  0.54297  0.10882  1.0000
  S   S1158     1.0  0.88068  0.55327  0.09972  1.0000
  Fe  Fe571     1.0  0.97118  0.46726  0.08317  1.0000
  Fe  Fe572     1.0  0.94935  0.46363  0.09734  1.0000
  S   S1159     1.0  0.95293  0.46561  0.11243  1.0000
  S   S1160     1.0  0.93366  0.45908  0.09885  1.0000
  Fe  Fe573     1.0  0.96013  0.47953  0.10155  1.0000
  S   S1161     1.0  0.95579  0.49499  0.10771  1.0000
  Fe  Fe574     1.0  0.96935  0.45525  0.10720  1.0000
  H   H4476     1.0  0.97675  0.48168  0.11143  1.0000
  S   S1162     1.0  0.95491  0.47874  0.08686  1.0000
  S   S1163     1.0  0.96518  0.45192  0.09283  1.0000
  H   H4477     1.0  0.98282  0.50140  0.13076  1.0000
  C   C2785     1.0  0.92876  0.56022  0.28131  1.0000
  H   H4478     1.0  0.93250  0.43195  0.24258  1.0000
  Fe  Fe575     1.0  0.97701  0.54678  0.10624  1.0000
  H   H4479     1.0  0.96720  0.51955  0.27200  1.0000
  S   S1164     1.0  0.96152  0.55748  0.10119  1.0000
  C   C2786     1.0  0.97924  0.45663  0.22227  1.0000
  H   H4480     1.0  0.77311  0.58710  0.99699  1.0000
  C   C2787     1.0  0.89581  0.46218  0.31316  1.0000
  H   H4481     1.0  0.90488  0.49278  0.30329  1.0000
  C   C2788     1.0  0.96573  0.51920  0.19695  1.0000
  H   H4482     1.0  0.85586  0.48854  0.13793  1.0000
  H   H4483     1.0  0.78959  0.43562  0.99761  1.0000
  Fe  Fe576     1.0  0.81553  0.47108  0.00539  1.0000
  S   S1165     1.0  0.80089  0.48473  0.00332  1.0000
  H   H4484     1.0  0.97497  0.53278  0.24250  1.0000
  Fe  Fe577     1.0  0.81534  0.47339  0.02841  1.0000
  S   S1166     1.0  0.80042  0.48709  0.02824  1.0000
  S   S1167     1.0  0.82186  0.46658  0.04416  1.0000
  Fe  Fe578     1.0  0.79394  0.47727  0.02079  1.0000
  S   S1168     1.0  0.77651  0.47554  0.02707  1.0000
  Fe  Fe579     1.0  0.80859  0.49339  0.01080  1.0000
  S   S1169     1.0  0.80679  0.51169  0.00582  1.0000
  S   S1170     1.0  0.80805  0.46286  0.02250  1.0000
  S   S1171     1.0  0.82407  0.48042  0.01135  1.0000
  Fe  Fe580     1.0  0.83677  0.55479  0.04215  1.0000
  S   S1172     1.0  0.84477  0.54121  0.03301  1.0000
  S   S1173     1.0  0.84082  0.55478  0.05819  1.0000
  Fe  Fe581     1.0  0.81800  0.56293  0.02985  1.0000
  S   S1174     1.0  0.82449  0.54983  0.02007  1.0000
  S   S1175     1.0  0.80195  0.57448  0.02782  1.0000
  Fe  Fe582     1.0  0.82797  0.53866  0.03584  1.0000
  S   S1176     1.0  0.82507  0.52163  0.04108  1.0000
  Fe  Fe583     1.0  0.84058  0.55372  0.01798  1.0000
  S   S1177     1.0  0.85173  0.55332  0.00134  1.0000
  S   S1178     1.0  0.82005  0.55134  0.04592  1.0000
  S   S1179     1.0  0.83397  0.56781  0.02674  1.0000
  H   H4485     1.0  0.92090  0.55233  0.11166  1.0000
  H   H4486     1.0  0.97590  0.44878  0.15750  1.0000
  H   H4487     1.0  0.77396  0.49826  0.02594  1.0000
  H   H4488     1.0  0.90621  0.49966  0.20681  1.0000
  S   S1180     1.0  0.74678  0.48113  0.99392  1.0000
  H   H4489     1.0  0.91682  0.52066  0.10148  1.0000
  H   H4490     1.0  0.91812  0.53810  0.12920  1.0000
  Fe  Fe584     1.0  0.98045  0.46172  0.28771  1.0000
  H   H4491     1.0  0.91884  0.48267  0.21435  1.0000
  H   H4492     1.0  0.96257  0.42865  0.30146  1.0000
  H   H4493     1.0  0.92916  0.56658  0.12806  1.0000
  S   S1181     1.0  0.97807  0.45231  0.30546  1.0000
  C   C2789     1.0  0.97508  0.44612  0.14197  1.0000
  H   H4494     1.0  0.96144  0.53666  0.14989  1.0000
  H   H4495     1.0  0.82859  0.54550  0.99553  1.0000
  H   H4496     1.0  0.92758  0.55626  0.14063  1.0000
  H   H4497     1.0  0.77569  0.57239  0.00187  1.0000
  H   H4498     1.0  0.77397  0.53256  0.01730  1.0000
  H   H4499     1.0  0.80188  0.45612  0.00207  1.0000
  C   C2790     1.0  0.76797  0.47835  0.01776  1.0000
  C   C2791     1.0  0.77157  0.48206  0.00640  1.0000
  C   C2792     1.0  0.76495  0.48309  0.99912  1.0000
  C   C2793     1.0  0.75462  0.48064  0.00319  1.0000
  C   C2794     1.0  0.75086  0.47735  0.01457  1.0000
  C   C2795     1.0  0.75752  0.47619  0.02182  1.0000
  H   H4500     1.0  0.77952  0.48393  0.00315  1.0000
  H   H4501     1.0  0.86958  0.51359  0.31886  1.0000
  C   C2796     1.0  0.93786  0.57530  0.27289  1.0000
  H   H4502     1.0  0.75463  0.47339  0.03060  1.0000
  C   C2797     1.0  0.81250  0.51511  0.01475  1.0000
  C   C2798     1.0  0.80776  0.52479  0.01865  1.0000
  C   C2799     1.0  0.81188  0.52700  0.02651  1.0000
  C   C2800     1.0  0.82074  0.51958  0.03037  1.0000
  C   C2801     1.0  0.82580  0.51022  0.02603  1.0000
  C   C2802     1.0  0.82158  0.50790  0.01834  1.0000
  H   H4503     1.0  0.80073  0.53040  0.01589  1.0000
  H   H4504     1.0  0.80803  0.53429  0.02981  1.0000
  H   H4505     1.0  0.83283  0.50462  0.02880  1.0000
  H   H4506     1.0  0.82542  0.50055  0.01517  1.0000
  H   H4507     1.0  0.94411  0.45807  0.21751  1.0000
  C   C2803     1.0  0.79494  0.49385  0.06000  1.0000
  N   N279      1.0  0.80612  0.49510  0.05869  1.0000
  H   H4508     1.0  0.79487  0.43412  0.00953  1.0000
  H   H4509     1.0  0.88605  0.49992  0.31380  1.0000
  C   C2804     1.0  0.97207  0.52328  0.26397  1.0000
  H   H4510     1.0  0.81854  0.56729  0.06036  1.0000
  H   H4511     1.0  0.98392  0.58351  0.05857  1.0000
  C   C2805     1.0  0.82870  0.58384  0.04900  1.0000
  H   H4512     1.0  0.83403  0.47838  0.13276  1.0000
  H   H4513     1.0  0.93440  0.57893  0.28032  1.0000
  H   H4514     1.0  0.76786  0.48576  0.99033  1.0000
  C   C2806     1.0  0.98417  0.45937  0.14366  1.0000
  H   H4515     1.0  0.92805  0.47369  0.28942  1.0000
  H   H4516     1.0  0.79024  0.50109  0.05500  1.0000
  H   H4517     1.0  0.93661  0.55475  0.28290  1.0000
  H   H4518     1.0  0.83095  0.56849  0.00028  1.0000
  H   H4519     1.0  0.96129  0.56679  0.25633  1.0000
  C   C2807     1.0  0.96778  0.49844  0.10763  1.0000
  C   C2808     1.0  0.81732  0.53680  0.98703  1.0000
  H   H4520     1.0  0.92011  0.48043  0.27922  1.0000
  C   C2809     1.0  0.91990  0.57686  0.27032  1.0000
  S   S1182     1.0  0.73999  0.56817  0.02298  1.0000
  C   C2810     1.0  0.96810  0.50950  0.10564  1.0000
  H   H4521     1.0  0.97201  0.50246  0.26555  1.0000
  H   H4522     1.0  0.96941  0.52613  0.19538  1.0000
  H   H4523     1.0  0.95978  0.51707  0.24721  1.0000
  H   H4524     1.0  0.96086  0.51581  0.10459  1.0000
  C   C2811     1.0  0.87343  0.55590  0.06429  1.0000
  C   C2812     1.0  0.87224  0.55727  0.05347  1.0000
  C   C2813     1.0  0.86240  0.55671  0.05146  1.0000
  C   C2814     1.0  0.85360  0.55489  0.06027  1.0000
  C   C2815     1.0  0.85484  0.55335  0.07109  1.0000
  C   C2816     1.0  0.86471  0.55381  0.07311  1.0000
  H   H4525     1.0  0.87894  0.55889  0.04659  1.0000
  H   H4526     1.0  0.86157  0.55793  0.04308  1.0000
  H   H4527     1.0  0.84809  0.55191  0.07798  1.0000
  H   H4528     1.0  0.86552  0.55272  0.08147  1.0000
  C   C2817     1.0  0.93920  0.54249  0.09072  1.0000
  C   C2818     1.0  0.94947  0.53625  0.09234  1.0000
  C   C2819     1.0  0.95645  0.54078  0.09544  1.0000
  C   C2820     1.0  0.95331  0.55169  0.09664  1.0000
  C   C2821     1.0  0.94326  0.55810  0.09450  1.0000
  C   C2822     1.0  0.93616  0.55348  0.09167  1.0000
  H   H4529     1.0  0.95195  0.52784  0.09131  1.0000
  H   H4530     1.0  0.96425  0.53584  0.09689  1.0000
  H   H4531     1.0  0.94088  0.56662  0.09517  1.0000
  H   H4532     1.0  0.92836  0.55845  0.09016  1.0000
  C   C2823     1.0  0.84799  0.47877  0.05213  1.0000
  C   C2824     1.0  0.84482  0.48325  0.04198  1.0000
  C   C2825     1.0  0.83708  0.47938  0.03929  1.0000
  C   C2826     1.0  0.83235  0.47101  0.04679  1.0000
  C   C2827     1.0  0.83556  0.46647  0.05693  1.0000
  C   C2828     1.0  0.84333  0.47034  0.05961  1.0000
  H   H4533     1.0  0.84844  0.48973  0.03612  1.0000
  H   H4534     1.0  0.83474  0.48291  0.03145  1.0000
  H   H4535     1.0  0.83198  0.45995  0.06275  1.0000
  H   H4536     1.0  0.84574  0.46677  0.06742  1.0000
  C   C2829     1.0  0.92524  0.46747  0.08987  1.0000
  C   C2830     1.0  0.92820  0.47667  0.08204  1.0000
  C   C2831     1.0  0.92159  0.48287  0.07458  1.0000
  C   C2832     1.0  0.91190  0.48000  0.07508  1.0000
  C   C2833     1.0  0.90886  0.47094  0.08304  1.0000
  C   C2834     1.0  0.91552  0.46468  0.09039  1.0000
  H   H4537     1.0  0.93561  0.47895  0.08162  1.0000
  H   H4538     1.0  0.92395  0.48990  0.06846  1.0000
  H   H4539     1.0  0.90144  0.46859  0.08343  1.0000
  H   H4540     1.0  0.91314  0.45761  0.09645  1.0000
  C   C2835     1.0  0.86440  0.51305  0.09807  1.0000
  C   C2836     1.0  0.86496  0.52400  0.09658  1.0000
  C   C2837     1.0  0.87181  0.52654  0.10164  1.0000
  C   C2838     1.0  0.87778  0.51818  0.10855  1.0000
  C   C2839     1.0  0.87700  0.50727  0.11028  1.0000
  C   C2840     1.0  0.87042  0.50469  0.10492  1.0000
  H   H4541     1.0  0.86026  0.53050  0.09134  1.0000
  H   H4542     1.0  0.87233  0.53499  0.10033  1.0000
  H   H4543     1.0  0.88161  0.50078  0.11561  1.0000
  H   H4544     1.0  0.86988  0.49625  0.10628  1.0000
  H   H4545     1.0  0.81343  0.60238  0.05095  1.0000
  H   H4546     1.0  0.82763  0.53196  0.00375  1.0000
  S   S1183     1.0  0.96441  0.51743  0.21878  1.0000
  H   H4547     1.0  0.98503  0.50472  0.25759  1.0000
  N   N280      1.0  0.78763  0.45076  0.00248  1.0000
  H   H4548     1.0  0.93255  0.48422  0.27803  1.0000
  H   H4549     1.0  0.92164  0.50336  0.27629  1.0000
  H   H4550     1.0  0.94484  0.47011  0.06329  1.0000
  H   H4551     1.0  0.82030  0.49680  0.04581  1.0000
  H   H4552     1.0  0.96670  0.44144  0.29812  1.0000
  C   C2841     1.0  0.73810  0.51936  0.01479  1.0000
  H   H4553     1.0  0.94230  0.45110  0.24223  1.0000
  C   C2842     1.0  0.90038  0.56703  0.31223  1.0000
  H   H4554     1.0  0.92229  0.45376  0.30075  1.0000
  N   N281      1.0  0.95742  0.45602  0.05970  1.0000
  H   H4555     1.0  0.95527  0.51666  0.26169  1.0000
  H   H4556     1.0  0.92512  0.43939  0.23194  1.0000
  H   H4557     1.0  0.93023  0.55956  0.26052  1.0000
  C   C2843     1.0  0.97790  0.44930  0.13042  1.0000
  H   H4558     1.0  0.76107  0.51061  0.03756  1.0000
  H   H4559     1.0  0.76122  0.52503  0.03416  1.0000
  S   S1184     1.0  0.98054  0.45214  0.18471  1.0000
  S   S1185     1.0  0.97411  0.44293  0.12209  1.0000
  H   H4560     1.0  0.97878  0.51094  0.14621  1.0000
  H   H4561     1.0  0.93734  0.54430  0.16169  1.0000
  H   H4562     1.0  0.96334  0.50008  0.30041  1.0000
  C   C2844     1.0  0.96061  0.50631  0.18995  1.0000
  C   C2845     1.0  0.96470  0.51569  0.18806  1.0000
  C   C2846     1.0  0.81535  0.57521  0.06315  1.0000
  S   S1186     1.0  0.98466  0.53760  0.20759  1.0000
  H   H4563     1.0  0.96930  0.56172  0.23814  1.0000
  C   C2847     1.0  0.95734  0.50054  0.20076  1.0000
  H   H4564     1.0  0.77840  0.56034  0.98921  1.0000
  H   H4565     1.0  0.86858  0.49858  0.31095  1.0000
  H   H4566     1.0  0.97673  0.57733  0.08933  1.0000
  C   C2848     1.0  0.78637  0.45760  0.99148  1.0000
  C   C2849     1.0  0.97142  0.49887  0.30232  1.0000
  C   C2850     1.0  0.79225  0.56689  0.02899  1.0000
  H   H4567     1.0  0.97782  0.49562  0.29560  1.0000
  C   C2851     1.0  0.89131  0.46567  0.30378  1.0000
  H   H4568     1.0  0.78096  0.58080  0.02180  1.0000
  C   C2852     1.0  0.93037  0.44013  0.23703  1.0000
  H   H4569     1.0  0.94945  0.43701  0.24263  1.0000
  C   C2853     1.0  0.93892  0.52927  0.27559  1.0000
  C   C2854     1.0  0.94599  0.53457  0.27733  1.0000
  C   C2855     1.0  0.94880  0.53181  0.28756  1.0000
  C   C2856     1.0  0.94515  0.52323  0.29581  1.0000
  C   C2857     1.0  0.93847  0.51755  0.29389  1.0000
  C   C2858     1.0  0.93514  0.52076  0.28385  1.0000
  H   H4570     1.0  0.94891  0.54115  0.27097  1.0000
  H   H4571     1.0  0.95354  0.53657  0.28912  1.0000
  H   H4572     1.0  0.93586  0.51072  0.30013  1.0000
  H   H4573     1.0  0.92969  0.51664  0.28246  1.0000
  C   C2859     1.0  0.88459  0.55760  0.14953  1.0000
  C   C2860     1.0  0.89130  0.56520  0.14510  1.0000
  C   C2861     1.0  0.89313  0.57000  0.13374  1.0000
  C   C2862     1.0  0.88876  0.56677  0.12671  1.0000
  C   C2863     1.0  0.88208  0.55918  0.13114  1.0000
  C   C2864     1.0  0.87969  0.55493  0.14257  1.0000
  H   H4574     1.0  0.89479  0.56761  0.15047  1.0000
  H   H4575     1.0  0.89805  0.57612  0.13037  1.0000
  H   H4576     1.0  0.87848  0.55686  0.12579  1.0000
  H   H4577     1.0  0.87408  0.54953  0.14604  1.0000
  C   C2865     1.0  0.92663  0.56955  0.18560  1.0000
  C   C2866     1.0  0.92016  0.56742  0.19625  1.0000
  C   C2867     1.0  0.92396  0.56751  0.20535  1.0000
  C   C2868     1.0  0.93444  0.56912  0.20388  1.0000
  C   C2869     1.0  0.94097  0.57102  0.19325  1.0000
  C   C2870     1.0  0.93697  0.57150  0.18411  1.0000
  H   H4578     1.0  0.91211  0.56604  0.19742  1.0000
  H   H4579     1.0  0.91880  0.56624  0.21353  1.0000
  H   H4580     1.0  0.94905  0.57233  0.19205  1.0000
  H   H4581     1.0  0.94195  0.57324  0.17589  1.0000
  C   C2871     1.0  0.89901  0.53464  0.22048  1.0000
  C   C2872     1.0  0.89919  0.52911  0.23144  1.0000
  C   C2873     1.0  0.89578  0.53499  0.23989  1.0000
  C   C2874     1.0  0.89214  0.54646  0.23742  1.0000
  C   C2875     1.0  0.89194  0.55197  0.22646  1.0000
  C   C2876     1.0  0.89547  0.54610  0.21800  1.0000
  H   H4582     1.0  0.90198  0.52024  0.23343  1.0000
  H   H4583     1.0  0.89571  0.53061  0.24833  1.0000
  H   H4584     1.0  0.88912  0.56084  0.22449  1.0000
  H   H4585     1.0  0.89527  0.55047  0.20961  1.0000
  C   C2877     1.0  0.88166  0.46146  0.13644  1.0000
  C   C2878     1.0  0.87600  0.45347  0.13723  1.0000
  C   C2879     1.0  0.87456  0.45140  0.12773  1.0000
  C   C2880     1.0  0.87841  0.45755  0.11730  1.0000
  C   C2881     1.0  0.88445  0.46529  0.11642  1.0000
  C   C2882     1.0  0.88612  0.46721  0.12598  1.0000
  H   H4586     1.0  0.87245  0.44906  0.14528  1.0000
  H   H4587     1.0  0.86998  0.44534  0.12851  1.0000
  H   H4588     1.0  0.88785  0.46977  0.10841  1.0000
  H   H4589     1.0  0.89042  0.47347  0.12529  1.0000
  C   C2883     1.0  0.93720  0.44830  0.16854  1.0000
  C   C2884     1.0  0.94836  0.44555  0.16823  1.0000
  C   C2885     1.0  0.95211  0.44662  0.17695  1.0000
  C   C2886     1.0  0.94465  0.44995  0.18614  1.0000
  C   C2887     1.0  0.93351  0.45230  0.18660  1.0000
  C   C2888     1.0  0.92978  0.45165  0.17772  1.0000
  H   H4590     1.0  0.95412  0.44302  0.16111  1.0000
  H   H4591     1.0  0.96076  0.44482  0.17660  1.0000
  H   H4592     1.0  0.92778  0.45497  0.19365  1.0000
  H   H4593     1.0  0.92115  0.45377  0.17796  1.0000
  C   C2889     1.0  0.92142  0.50647  0.14102  1.0000
  C   C2890     1.0  0.91681  0.50644  0.15219  1.0000
  C   C2891     1.0  0.92021  0.51241  0.15764  1.0000
  C   C2892     1.0  0.92854  0.51801  0.15206  1.0000
  C   C2893     1.0  0.93334  0.51780  0.14098  1.0000
  C   C2894     1.0  0.92959  0.51227  0.13539  1.0000
  H   H4594     1.0  0.91058  0.50187  0.15667  1.0000
  H   H4595     1.0  0.91659  0.51242  0.16625  1.0000
  H   H4596     1.0  0.93995  0.52191  0.13670  1.0000
  H   H4597     1.0  0.93330  0.51221  0.12680  1.0000
  C   C2895     1.0  0.93644  0.49688  0.24552  1.0000
  C   C2896     1.0  0.94484  0.48780  0.24793  1.0000
  C   C2897     1.0  0.95010  0.48708  0.25627  1.0000
  C   C2898     1.0  0.94700  0.49550  0.26208  1.0000
  C   C2899     1.0  0.93877  0.50464  0.25949  1.0000
  C   C2900     1.0  0.93334  0.50523  0.25139  1.0000
  H   H4598     1.0  0.94711  0.48121  0.24355  1.0000
  H   H4599     1.0  0.95630  0.47985  0.25839  1.0000
  H   H4600     1.0  0.93635  0.51113  0.26399  1.0000
  H   H4601     1.0  0.92651  0.51197  0.24994  1.0000
  C   C2901     1.0  0.90401  0.46731  0.21726  1.0000
  C   C2902     1.0  0.89730  0.47788  0.21625  1.0000
  C   C2903     1.0  0.89404  0.48333  0.20628  1.0000
  C   C2904     1.0  0.89753  0.47829  0.19723  1.0000
  C   C2905     1.0  0.90420  0.46771  0.19823  1.0000
  C   C2906     1.0  0.90735  0.46221  0.20826  1.0000
  H   H4602     1.0  0.89440  0.48176  0.22322  1.0000
  H   H4603     1.0  0.88877  0.49146  0.20559  1.0000
  H   H4604     1.0  0.90682  0.46372  0.19133  1.0000
  H   H4605     1.0  0.91239  0.45396  0.20905  1.0000
  C   C2907     1.0  0.87885  0.50311  0.27091  1.0000
  C   C2908     1.0  0.87839  0.51436  0.26923  1.0000
  C   C2909     1.0  0.88107  0.51831  0.27694  1.0000
  C   C2910     1.0  0.88407  0.51105  0.28640  1.0000
  C   C2911     1.0  0.88405  0.49987  0.28835  1.0000
  C   C2912     1.0  0.88162  0.49587  0.28050  1.0000
  H   H4606     1.0  0.87647  0.51997  0.26176  1.0000
  H   H4607     1.0  0.88097  0.52697  0.27543  1.0000
  H   H4608     1.0  0.88631  0.49423  0.29566  1.0000
  H   H4609     1.0  0.88206  0.48715  0.28176  1.0000
  C   C2913     1.0  0.78165  0.51346  0.03023  1.0000
  N   N282      1.0  0.97213  0.49144  0.31319  1.0000
  Fe  Fe585     1.0  0.97761  0.55216  0.19553  1.0000
  H   H4610     1.0  0.93206  0.45427  0.21718  1.0000
  H   H4611     1.0  0.80243  0.58551  0.04860  1.0000
  H   H4612     1.0  0.95435  0.44782  0.23189  1.0000
  S   S1187     1.0  0.74801  0.52642  0.00620  1.0000
  H   H4613     1.0  0.81975  0.57471  0.06956  1.0000
  Fe  Fe586     1.0  0.97385  0.53935  0.31538  1.0000
  H   H4614     1.0  0.80147  0.50491  0.07090  1.0000
  H   H4615     1.0  0.96284  0.55519  0.14968  1.0000
  C   C2914     1.0  0.97334  0.55783  0.24493  1.0000
  H   H4616     1.0  0.93632  0.57123  0.25392  1.0000
  C   C2915     1.0  0.89535  0.56340  0.30607  1.0000
  Fe  Fe587     1.0  0.98301  0.46450  0.19258  1.0000
  C   C2916     1.0  0.81179  0.49600  0.04701  1.0000
  H   H4617     1.0  0.94192  0.43520  0.21752  1.0000
  C   C2917     1.0  0.76250  0.51774  0.03060  1.0000
  H   H4618     1.0  0.95686  0.46832  0.06818  1.0000
  H   H4619     1.0  0.79006  0.51171  0.02521  1.0000
  S   S1188     1.0  0.97698  0.46946  0.09703  1.0000
  C   C2918     1.0  0.77682  0.55459  0.03117  1.0000
  C   C2919     1.0  0.89801  0.46491  0.29330  1.0000
  H   H4620     1.0  0.82065  0.48587  0.06441  1.0000
  S   S1189     1.0  0.97951  0.47823  0.25771  1.0000
  C   C2920     1.0  0.91503  0.50053  0.28305  1.0000
  C   C2921     1.0  0.97807  0.45128  0.14860  1.0000
  H   H4621     1.0  0.95556  0.49974  0.21804  1.0000
  C   C2922     1.0  0.90918  0.46045  0.29223  1.0000
  H   H4622     1.0  0.92084  0.58381  0.26304  1.0000
  C   C2923     1.0  0.90703  0.45803  0.31201  1.0000
  H   H4623     1.0  0.86053  0.47892  0.11241  1.0000
  H   H4624     1.0  0.77738  0.44545  0.01823  1.0000
  H   H4625     1.0  0.78222  0.46628  0.99189  1.0000
  C   C2924     1.0  0.84508  0.55983  0.99040  1.0000
  N   N283      1.0  0.97174  0.51854  0.25495  1.0000
  H   H4626     1.0  0.93350  0.49546  0.29015  1.0000
  C   C2925     1.0  0.80578  0.50518  0.06214  1.0000
  H   H4627     1.0  0.77185  0.45865  0.01051  1.0000
  H   H4628     1.0  0.84422  0.46996  0.14023  1.0000
  C   C2926     1.0  0.97710  0.49025  0.10927  1.0000
  C   C2927     1.0  0.84094  0.47857  0.13606  1.0000
  H   H4629     1.0  0.74628  0.50386  0.01016  1.0000
  C   C2928     1.0  0.93691  0.45481  0.22277  1.0000
  H   H4630     1.0  0.81225  0.48861  0.04404  1.0000
  H   H4631     1.0  0.79044  0.49299  0.06876  1.0000
  N   N284      1.0  0.88260  0.52074  0.14835  1.0000
  C   C2929     1.0  0.89137  0.51422  0.14128  1.0000
  C   C2930     1.0  0.87508  0.52852  0.14160  1.0000
  C   C2931     1.0  0.88739  0.52686  0.15317  1.0000
  C   C2932     1.0  0.87661  0.51330  0.15735  1.0000
  H   H4632     1.0  0.89611  0.51955  0.13441  1.0000
  H   H4633     1.0  0.88814  0.50942  0.13749  1.0000
  H   H4634     1.0  0.89714  0.50828  0.14609  1.0000
  H   H4635     1.0  0.86822  0.53351  0.14666  1.0000
  H   H4636     1.0  0.87936  0.53430  0.13479  1.0000
  H   H4637     1.0  0.87158  0.52410  0.13766  1.0000
  H   H4638     1.0  0.88100  0.53173  0.15873  1.0000
  H   H4639     1.0  0.89187  0.53268  0.14667  1.0000
  H   H4640     1.0  0.89324  0.52121  0.15815  1.0000
  H   H4641     1.0  0.86976  0.51800  0.16270  1.0000
  H   H4642     1.0  0.88202  0.50752  0.16279  1.0000
  H   H4643     1.0  0.87321  0.50823  0.15405  1.0000
  H   H4644     1.0  0.92222  0.49848  0.30129  1.0000
  H   H4645     1.0  0.90471  0.48400  0.29479  1.0000
  C   C2933     1.0  0.81206  0.48536  0.06550  1.0000
  Fe  Fe588     1.0  0.74452  0.54195  0.01201  1.0000
  H   H4646     1.0  0.95389  0.52885  0.16190  1.0000
  C   C2934     1.0  0.97404  0.55573  0.26405  1.0000
  C   C2935     1.0  0.95977  0.43772  0.29886  1.0000
  C   C2936     1.0  0.98451  0.50388  0.15024  1.0000
  H   H4647     1.0  0.90744  0.57054  0.30817  1.0000
  C   C2937     1.0  0.95892  0.53519  0.15905  1.0000
  H   H4648     1.0  0.97381  0.45781  0.21693  1.0000
  S   S1190     1.0  0.97841  0.47150  0.06498  1.0000
  H   H4649     1.0  0.91287  0.47890  0.30495  1.0000
  C   C2938     1.0  0.79380  0.43953  0.00137  1.0000
  C   C2939     1.0  0.91950  0.53987  0.31722  1.0000
  N   N285      1.0  0.92356  0.49584  0.20097  1.0000
  C   C2940     1.0  0.93160  0.49720  0.19036  1.0000
  C   C2941     1.0  0.92461  0.48398  0.20620  1.0000
  C   C2942     1.0  0.92553  0.50163  0.20836  1.0000
  H   H4650     1.0  0.91163  0.51115  0.11352  1.0000
  H   H4651     1.0  0.91066  0.49648  0.19337  1.0000
  H   H4652     1.0  0.94006  0.49368  0.19155  1.0000
  H   H4653     1.0  0.93031  0.49298  0.18456  1.0000
  H   H4654     1.0  0.93111  0.50605  0.18619  1.0000
  H   H4655     1.0  0.93297  0.48008  0.20758  1.0000
  H   H4656     1.0  0.92287  0.47941  0.20098  1.0000
  H   H4657     1.0  0.92499  0.51056  0.20460  1.0000
  H   H4658     1.0  0.91942  0.50103  0.21634  1.0000
  H   H4659     1.0  0.79274  0.57043  0.98727  1.0000
  H   H4660     1.0  0.93007  0.48460  0.30171  1.0000
  N   N286      1.0  0.81694  0.58471  0.05382  1.0000
  S   S1191     1.0  0.97519  0.52889  0.28950  1.0000
  H   H4661     1.0  0.94498  0.55128  0.14918  1.0000
  C   C2943     1.0  0.78255  0.57205  0.02535  1.0000
  C   C2944     1.0  0.97786  0.51242  0.10469  1.0000
  H   H4662     1.0  0.92529  0.44601  0.24230  1.0000
  H   H4663     1.0  0.91589  0.58039  0.27777  1.0000
  H   H4664     1.0  0.83322  0.58366  0.05521  1.0000
  N   N287      1.0  0.92276  0.50362  0.10059  1.0000
  C   C2945     1.0  0.91898  0.51242  0.10689  1.0000
  C   C2946     1.0  0.92606  0.49288  0.10797  1.0000
  C   C2947     1.0  0.93218  0.50601  0.09159  1.0000
  C   C2948     1.0  0.91384  0.50322  0.09592  1.0000
  H   H4665     1.0  0.92539  0.51273  0.11083  1.0000
  H   H4666     1.0  0.92914  0.48607  0.10345  1.0000
  H   H4667     1.0  0.93261  0.49300  0.11185  1.0000
  H   H4668     1.0  0.91910  0.49077  0.11478  1.0000
  H   H4669     1.0  0.93000  0.51407  0.08585  1.0000
  H   H4670     1.0  0.93536  0.49952  0.08669  1.0000
  H   H4671     1.0  0.93897  0.50653  0.09489  1.0000
  H   H4672     1.0  0.90653  0.50173  0.10254  1.0000
  H   H4673     1.0  0.91631  0.49651  0.09132  1.0000
  H   H4674     1.0  0.91131  0.51114  0.09018  1.0000
  N   N288      1.0  0.94189  0.43498  0.12982  1.0000
  C   C2949     1.0  0.94841  0.43256  0.13821  1.0000
  C   C2950     1.0  0.93622  0.42598  0.13188  1.0000
  C   C2951     1.0  0.94917  0.43592  0.11874  1.0000
  C   C2952     1.0  0.93375  0.44546  0.13040  1.0000
  H   H4675     1.0  0.95223  0.43953  0.13735  1.0000
  H   H4676     1.0  0.95512  0.42514  0.13751  1.0000
  H   H4677     1.0  0.94332  0.43109  0.14673  1.0000
  H   H4678     1.0  0.93123  0.42759  0.12567  1.0000
  H   H4679     1.0  0.94210  0.41794  0.13154  1.0000
  H   H4680     1.0  0.93063  0.42510  0.14018  1.0000
  H   H4681     1.0  0.94453  0.43807  0.11214  1.0000
  H   H4682     1.0  0.95531  0.42812  0.11794  1.0000
  H   H4683     1.0  0.95376  0.44243  0.11711  1.0000
  H   H4684     1.0  0.92774  0.44483  0.13844  1.0000
  H   H4685     1.0  0.92912  0.44789  0.12376  1.0000
  H   H4686     1.0  0.93765  0.45233  0.12959  1.0000
  N   N289      1.0  0.84283  0.51749  0.06396  1.0000
  C   C2953     1.0  0.84705  0.51272  0.05404  1.0000
  C   C2954     1.0  0.83227  0.52524  0.06330  1.0000
  C   C2955     1.0  0.85062  0.52347  0.06468  1.0000
  C   C2956     1.0  0.84133  0.50854  0.07386  1.0000
  H   H4687     1.0  0.84166  0.50770  0.05348  1.0000
  H   H4688     1.0  0.85525  0.50722  0.05406  1.0000
  H   H4689     1.0  0.84776  0.51918  0.04633  1.0000
  H   H4690     1.0  0.82906  0.52924  0.07049  1.0000
  H   H4691     1.0  0.83311  0.53189  0.05577  1.0000
  H   H4692     1.0  0.82610  0.52104  0.06296  1.0000
  H   H4693     1.0  0.84770  0.52718  0.07208  1.0000
  H   H4694     1.0  0.85185  0.53031  0.05731  1.0000
  H   H4695     1.0  0.85867  0.51790  0.06528  1.0000
  H   H4696     1.0  0.83816  0.51179  0.08152  1.0000
  H   H4697     1.0  0.84914  0.50257  0.07465  1.0000
  H   H4698     1.0  0.83561  0.50381  0.07346  1.0000
  C   C2957     1.0  0.97540  0.45435  0.23377  1.0000
  C   C2958     1.0  0.98141  0.48453  0.22279  1.0000
  H   H4699     1.0  0.81444  0.57694  0.04234  1.0000
  C   C2959     1.0  0.83482  0.56691  0.99215  1.0000
  S   S1192     1.0  0.97557  0.52167  0.31567  1.0000
  H   H4700     1.0  0.97060  0.43967  0.14579  1.0000
  Fe  Fe589     1.0  0.98035  0.46022  0.26465  1.0000
  H   H4701     1.0  0.84187  0.50001  0.12789  1.0000
  C   C2960     1.0  0.94666  0.45414  0.30297  1.0000
  H   H4702     1.0  0.97548  0.47701  0.30672  1.0000
  H   H4703     1.0  0.74292  0.47541  0.01779  1.0000
  C   C2961     1.0  0.98340  0.58371  0.06725  1.0000
  H   H4704     1.0  0.96876  0.53235  0.26237  1.0000
  C   C2962     1.0  0.92657  0.49228  0.29619  1.0000
  H   H4705     1.0  0.76897  0.52676  0.00910  1.0000
  H   H4706     1.0  0.94555  0.44594  0.06600  1.0000
  C   C2963     1.0  0.97822  0.52374  0.24448  1.0000
  N   N290      1.0  0.87045  0.52110  0.23295  1.0000
  C   C2964     1.0  0.86221  0.51858  0.24319  1.0000
  C   C2965     1.0  0.87141  0.53264  0.23094  1.0000
  C   C2966     1.0  0.86717  0.51953  0.22355  1.0000
  C   C2967     1.0  0.88106  0.51360  0.23412  1.0000
  H   H4707     1.0  0.86151  0.50983  0.24515  1.0000
  H   H4708     1.0  0.85405  0.52394  0.24260  1.0000
  H   H4709     1.0  0.86445  0.51978  0.25041  1.0000
  H   H4710     1.0  0.87731  0.53490  0.22310  1.0000
  H   H4711     1.0  0.86348  0.53853  0.23036  1.0000
  H   H4712     1.0  0.87427  0.53401  0.23769  1.0000
  H   H4713     1.0  0.86639  0.51090  0.22483  1.0000
  H   H4714     1.0  0.87330  0.52131  0.21572  1.0000
  H   H4715     1.0  0.85922  0.52510  0.22236  1.0000
  H   H4716     1.0  0.88746  0.51511  0.22651  1.0000
  H   H4717     1.0  0.88056  0.50481  0.23588  1.0000
  H   H4718     1.0  0.88387  0.51462  0.24107  1.0000
  C   C2968     1.0  0.94974  0.45050  0.05801  1.0000
  H   H4719     1.0  0.93910  0.45761  0.30853  1.0000
  H   H4720     1.0  0.96141  0.48187  0.31247  1.0000
  C   C2969     1.0  0.91246  0.50058  0.19897  1.0000
  S   S1193     1.0  0.97878  0.53105  0.11900  1.0000
  N   N291      1.0  0.77352  0.51546  0.02357  1.0000
  C   C2970     1.0  0.78650  0.54950  0.03481  1.0000
  H   H4721     1.0  0.78078  0.50630  0.03729  1.0000
  H   H4722     1.0  0.90889  0.49947  0.27919  1.0000
  H   H4723     1.0  0.85650  0.46744  0.12269  1.0000
  N   N292      1.0  0.95295  0.54547  0.16279  1.0000
  C   C2971     1.0  0.94303  0.54997  0.15832  1.0000
  S   S1194     1.0  0.90050  0.56500  0.29173  1.0000
  C   C2972     1.0  0.77499  0.52501  0.01429  1.0000
  H   H4724     1.0  0.78327  0.52350  0.00887  1.0000
  S   S1195     1.0  0.97746  0.44959  0.25514  1.0000
  H   H4725     1.0  0.94912  0.42762  0.22829  1.0000
  C   C2973     1.0  0.96582  0.44769  0.06497  1.0000
  H   H4726     1.0  0.89450  0.46754  0.28609  1.0000
  H   H4727     1.0  0.80761  0.50327  0.04159  1.0000
  C   C2974     1.0  0.94686  0.44502  0.23701  1.0000
  C   C2975     1.0  0.96880  0.56068  0.25523  1.0000
  S   S1196     1.0  0.91780  0.45906  0.27933  1.0000
  C   C2976     1.0  0.94662  0.43595  0.22315  1.0000
  Fe  Fe590     1.0  0.91110  0.46920  0.26445  1.0000
  H   H4728     1.0  0.75612  0.51943  0.02585  1.0000
  H   H4729     1.0  0.93371  0.49812  0.21034  1.0000
  H   H4730     1.0  0.94354  0.55923  0.26194  1.0000
  H   H4731     1.0  0.94589  0.56977  0.27392  1.0000
  Fe  Fe591     1.0  0.98045  0.46567  0.16936  1.0000
  C   C2977     1.0  0.77493  0.50564  0.01917  1.0000
  H   H4732     1.0  0.78314  0.50371  0.01375  1.0000
  H   H4733     1.0  0.92557  0.56422  0.11139  1.0000
  C   C2978     1.0  0.87909  0.52686  0.06845  1.0000
  H   H4734     1.0  0.91213  0.56281  0.11857  1.0000
  H   H4735     1.0  0.94551  0.53630  0.17832  1.0000
  H   H4736     1.0  0.97802  0.56570  0.06568  1.0000
  H   H4737     1.0  0.91135  0.50955  0.19517  1.0000
  H   H4738     1.0  0.94663  0.49692  0.14545  1.0000
  C   C2979     1.0  0.79421  0.55560  0.03366  1.0000
  C   C2980     1.0  0.92066  0.55815  0.11666  1.0000
  H   H4739     1.0  0.94151  0.55181  0.11889  1.0000
  S   S1197     1.0  0.75700  0.55208  0.00677  1.0000
  H   H4740     1.0  0.96490  0.47538  0.13101  1.0000
  H   H4741     1.0  0.96761  0.47945  0.14199  1.0000
  C   C2981     1.0  0.93535  0.56462  0.26154  1.0000
  N   N293      1.0  0.92468  0.55229  0.12680  1.0000
  C   C2982     1.0  0.93602  0.54615  0.12382  1.0000
  C   C2983     1.0  0.92429  0.56037  0.13309  1.0000
  H   H4742     1.0  0.93670  0.54018  0.11877  1.0000
  H   H4743     1.0  0.91580  0.56493  0.13578  1.0000
  H   H4744     1.0  0.92443  0.56347  0.28887  1.0000
  C   C2984     1.0  0.96174  0.48126  0.13660  1.0000
  H   H4745     1.0  0.96176  0.48969  0.13134  1.0000
  H   H4746     1.0  0.89651  0.53422  0.06792  1.0000
  H   H4747     1.0  0.88962  0.52186  0.04878  1.0000
  H   H4748     1.0  0.93924  0.54145  0.13129  1.0000
  C   C2985     1.0  0.91773  0.54452  0.13359  1.0000
  N   N294      1.0  0.84946  0.48311  0.12720  1.0000
  H   H4749     1.0  0.87605  0.53285  0.06134  1.0000
  H   H4750     1.0  0.92027  0.54026  0.14151  1.0000
  H   H4751     1.0  0.90905  0.54885  0.13567  1.0000
  H   H4752     1.0  0.91566  0.54164  0.23733  1.0000
  H   H4753     1.0  0.92365  0.55158  0.22948  1.0000
  H   H4754     1.0  0.95211  0.48681  0.15622  1.0000
  H   H4755     1.0  0.91589  0.54697  0.22290  1.0000
  N   N295      1.0  0.95073  0.48033  0.14319  1.0000
  C   C2986     1.0  0.94678  0.48837  0.15037  1.0000
  H   H4756     1.0  0.95689  0.46682  0.15553  1.0000
  C   C2987     1.0  0.89731  0.52992  0.06132  1.0000
  C   C2988     1.0  0.89217  0.51594  0.05616  1.0000
  H   H4757     1.0  0.90083  0.51176  0.05358  1.0000
  C   C2989     1.0  0.98235  0.45290  0.24079  1.0000
  H   H4758     1.0  0.96930  0.57045  0.07768  1.0000
  C   C2990     1.0  0.92098  0.54425  0.22916  1.0000
  H   H4759     1.0  0.94263  0.49116  0.13056  1.0000
  H   H4760     1.0  0.95367  0.46280  0.14485  1.0000
  H   H4761     1.0  0.89469  0.53643  0.05428  1.0000
  H   H4762     1.0  0.90610  0.52625  0.05865  1.0000
  H   H4763     1.0  0.88739  0.50945  0.05876  1.0000
  H   H4764     1.0  0.80816  0.48448  0.07442  1.0000
  C   C2991     1.0  0.95108  0.46905  0.15002  1.0000
  H   H4765     1.0  0.94616  0.47693  0.13001  1.0000
  H   H4766     1.0  0.86171  0.47465  0.13656  1.0000
  H   H4767     1.0  0.91216  0.52593  0.31079  1.0000
  N   N296      1.0  0.89067  0.52150  0.06519  1.0000
  H   H4768     1.0  0.87784  0.53153  0.07490  1.0000
  H   H4769     1.0  0.87387  0.52071  0.07189  1.0000
  H   H4770     1.0  0.96643  0.53152  0.16227  1.0000
  C   C2992     1.0  0.94329  0.48264  0.13572  1.0000
  H   H4771     1.0  0.94066  0.54603  0.21600  1.0000
  H   H4772     1.0  0.93263  0.54230  0.20906  1.0000
  H   H4773     1.0  0.93838  0.48805  0.15530  1.0000
  Fe  Fe592     1.0  0.75330  0.55281  0.02455  1.0000
  S   S1198     1.0  0.74416  0.57920  0.98999  1.0000
  C   C2993     1.0  0.96269  0.46210  0.04895  1.0000
  S   S1199     1.0  0.82381  0.46045  0.99301  1.0000
  H   H4774     1.0  0.91413  0.57254  0.26929  1.0000
  N   N297      1.0  0.93039  0.53526  0.22647  1.0000
  H   H4775     1.0  0.94377  0.52484  0.23358  1.0000
  H   H4776     1.0  0.94295  0.46818  0.15534  1.0000
  C   C2994     1.0  0.77486  0.56588  0.02636  1.0000
  C   C2995     1.0  0.89411  0.51332  0.07482  1.0000
  H   H4777     1.0  0.77207  0.44644  0.00647  1.0000
  H   H4778     1.0  0.90283  0.50912  0.07271  1.0000
  C   C2996     1.0  0.92526  0.48177  0.28403  1.0000
  H   H4779     1.0  0.83026  0.59084  0.04192  1.0000
  N   N298      1.0  0.93047  0.56925  0.27151  1.0000
  N   N299      1.0  0.95004  0.44207  0.30679  1.0000
  H   H4780     1.0  0.97172  0.45161  0.06638  1.0000
  H   H4781     1.0  0.91109  0.50732  0.28751  1.0000
  N   N300      1.0  0.91923  0.49022  0.29051  1.0000
  C   C2997     1.0  0.93731  0.53918  0.21571  1.0000
  H   H4782     1.0  0.92110  0.52274  0.23370  1.0000
  H   H4783     1.0  0.93992  0.53873  0.23567  1.0000
  H   H4784     1.0  0.93498  0.48171  0.14040  1.0000
  H   H4785     1.0  0.88934  0.50676  0.07782  1.0000
  H   H4786     1.0  0.89291  0.51724  0.08184  1.0000
  H   H4787     1.0  0.80159  0.51270  0.05696  1.0000
  H   H4788     1.0  0.81286  0.53243  0.99491  1.0000
  C   C2998     1.0  0.85848  0.48305  0.13198  1.0000
  H   H4789     1.0  0.76878  0.50687  0.01424  1.0000
  H   H4790     1.0  0.78803  0.54080  0.03859  1.0000
  C   C2999     1.0  0.85357  0.47624  0.11887  1.0000
  C   C3000     1.0  0.92659  0.52580  0.22584  1.0000
  C   C3001     1.0  0.93675  0.53182  0.23514  1.0000
  H   H4791     1.0  0.93353  0.51879  0.22413  1.0000
  H   H4792     1.0  0.86542  0.48575  0.12551  1.0000
  C   C3002     1.0  0.84484  0.49452  0.12192  1.0000
  H   H4793     1.0  0.97807  0.52044  0.23745  1.0000
  H   H4794     1.0  0.92374  0.55505  0.28030  1.0000
  H   H4795     1.0  0.94429  0.53249  0.21326  1.0000
  C   C3003     1.0  0.94110  0.43685  0.30756  1.0000
  H   H4796     1.0  0.79503  0.48638  0.05725  1.0000
  C   C3004     1.0  0.97775  0.56638  0.07414  1.0000
  H   H4797     1.0  0.80160  0.55157  0.03656  1.0000
  H   H4798     1.0  0.93165  0.52912  0.24341  1.0000
  H   H4799     1.0  0.83766  0.48354  0.14251  1.0000
  H   H4800     1.0  0.92204  0.52802  0.21917  1.0000
  C   C3005     1.0  0.98503  0.57316  0.08552  1.0000
  H   H4801     1.0  0.96702  0.45383  0.23728  1.0000
  C   C3006     1.0  0.95262  0.43960  0.31777  1.0000
  C   C3007     1.0  0.79363  0.45564  0.00731  1.0000
  S   S1200     1.0  0.98474  0.47724  0.17674  1.0000
  H   H4802     1.0  0.81235  0.47762  0.06313  1.0000
  H   H4803     1.0  0.97262  0.50710  0.30202  1.0000
  S   S1201     1.0  0.76741  0.54649  0.03303  1.0000
  H   H4804     1.0  0.94470  0.55046  0.17809  1.0000
  H   H4805     1.0  0.95817  0.43956  0.29044  1.0000
  H   H4806     1.0  0.96735  0.45647  0.04329  1.0000
  Fe  Fe593     1.0  0.74273  0.56632  0.00558  1.0000
  C   C3008     1.0  0.81236  0.59506  0.05781  1.0000
  H   H4807     1.0  0.81256  0.59159  0.03801  1.0000
  C   C3009     1.0  0.98432  0.45494  0.31460  1.0000
  H   H4808     1.0  0.84717  0.47653  0.11462  1.0000
  C   C3010     1.0  0.95818  0.50417  0.20968  1.0000
  H   H4809     1.0  0.88265  0.46892  0.30461  1.0000
  H   H4810     1.0  0.93178  0.46100  0.22762  1.0000
  H   H4811     1.0  0.93858  0.55801  0.16049  1.0000
  H   H4812     1.0  0.95535  0.56170  0.16104  1.0000
  C   C3011     1.0  0.97630  0.50656  0.25738  1.0000
  H   H4813     1.0  0.80349  0.59599  0.06149  1.0000
  C   C3012     1.0  0.96248  0.51344  0.20775  1.0000
  N   N301      1.0  0.94018  0.44397  0.23000  1.0000
  C   C3013     1.0  0.77677  0.45026  0.00974  1.0000
  H   H4814     1.0  0.83792  0.49488  0.11834  1.0000
  H   H4815     1.0  0.85099  0.49809  0.11505  1.0000
  C   C3014     1.0  0.95985  0.55368  0.15880  1.0000
  H   H4816     1.0  0.95732  0.54048  0.17859  1.0000
  H   H4817     1.0  0.96708  0.55089  0.16253  1.0000
  H   H4818     1.0  0.83243  0.57613  0.04594  1.0000
  H   H4819     1.0  0.95415  0.43856  0.21781  1.0000
  C   C3015     1.0  0.91001  0.48630  0.29878  1.0000
  H   H4820     1.0  0.78930  0.46413  0.00824  1.0000
  C   C3016     1.0  0.96037  0.52055  0.25394  1.0000
  C   C3017     1.0  0.94998  0.54309  0.17499  1.0000
  H   H4821     1.0  0.78154  0.45441  0.98772  1.0000
  H   H4822     1.0  0.97967  0.49793  0.15601  1.0000
  C   C3018     1.0  0.98321  0.48953  0.31501  1.0000
  H   H4823     1.0  0.95661  0.46851  0.04477  1.0000
  H   H4824     1.0  0.94338  0.42774  0.31040  1.0000
  H   H4825     1.0  0.93892  0.43860  0.29941  1.0000
  H   H4826     1.0  0.94749  0.45950  0.07519  1.0000
  Fe  Fe594     1.0  0.97833  0.54886  0.21946  1.0000
  H   H4827     1.0  0.98615  0.45995  0.11667  1.0000
  H   H4828     1.0  0.92832  0.53716  0.31364  1.0000
  H   H4829     1.0  0.94330  0.45657  0.05404  1.0000
  C   C3019     1.0  0.88614  0.55900  0.31136  1.0000
  H   H4830     1.0  0.97557  0.50262  0.25109  1.0000
  H   H4831     1.0  0.96854  0.46636  0.04997  1.0000
  H   H4832     1.0  0.96214  0.44298  0.07313  1.0000
  C   C3020     1.0  0.95139  0.46382  0.06691  1.0000
  H   H4833     1.0  0.97819  0.52100  0.10263  1.0000
  H   H4834     1.0  0.88215  0.55628  0.30665  1.0000
  C   C3021     1.0  0.96982  0.48085  0.31345  1.0000
  H   H4835     1.0  0.91534  0.54397  0.31023  1.0000
  H   H4836     1.0  0.95662  0.52951  0.25216  1.0000
  H   H4837     1.0  0.97508  0.58831  0.07047  1.0000
  H   H4838     1.0  0.97366  0.49086  0.22360  1.0000
  H   H4839     1.0  0.98686  0.52243  0.24492  1.0000
  N   N302      1.0  0.98576  0.57247  0.07411  1.0000
  H   H4840     1.0  0.95305  0.45836  0.30283  1.0000
  C   C3022     1.0  0.83156  0.53654  0.99564  1.0000
  H   H4841     1.0  0.92485  0.51886  0.31477  1.0000
  H   H4842     1.0  0.97926  0.55787  0.07927  1.0000
  H   H4843     1.0  0.93363  0.43992  0.31351  1.0000
  H   H4844     1.0  0.87043  0.48462  0.31884  1.0000
  C   C3023     1.0  0.98560  0.53986  0.17219  1.0000
  H   H4845     1.0  0.84046  0.53453  0.99531  1.0000
  C   C3024     1.0  0.77192  0.57935  0.99583  1.0000
  H   H4846     1.0  0.98338  0.48848  0.14069  1.0000
  H   H4847     1.0  0.98134  0.47859  0.23091  1.0000
  C   C3025     1.0  0.98376  0.45758  0.12554  1.0000
  H   H4848     1.0  0.95914  0.44369  0.31754  1.0000
  H   H4849     1.0  0.98054  0.52185  0.26500  1.0000
  H   H4850     1.0  0.98132  0.47993  0.21672  1.0000
  C   C3026     1.0  0.98334  0.55033  0.24333  1.0000
  H   H4851     1.0  0.98372  0.50359  0.20811  1.0000
  C   C3027     1.0  0.98381  0.54788  0.26255  1.0000
  S   S1202     1.0  0.98577  0.55436  0.11382  1.0000
  H   H4852     1.0  0.82904  0.51688  0.99473  1.0000
  H   H4853     1.0  0.98275  0.50270  0.22778  1.0000
  H   H4854     1.0  0.98407  0.53608  0.18090  1.0000
  H   H4855     1.0  0.98543  0.49739  0.31441  1.0000
  H   H4856     1.0  0.98466  0.52566  0.16723  1.0000
  C   C3028     1.0  0.83309  0.52175  0.98690  1.0000
  C   C3029     1.0  0.91611  0.52225  0.31795  1.0000
  H   H4857     1.0  0.91056  0.45536  0.31920  1.0000
  C   C3030     1.0  0.98769  0.53889  0.15313  1.0000
  Fe  Fe595     1.0  0.98757  0.52462  0.29971  1.0000
  C   C3031     1.0  0.98595  0.53398  0.16443  1.0000
  C   C3032     1.0  0.86714  0.49341  0.31948  1.0000
  S   S1203     1.0  0.98659  0.53166  0.14396  1.0000
  H   H4858     1.0  0.98686  0.56484  0.09086  1.0000
  S   S1204     1.0  0.98692  0.54210  0.29999  1.0000
  C   C3033     1.0  0.98685  0.49316  0.10848  1.0000
  C   C3034     1.0  0.98701  0.46249  0.13213  1.0000
  S   S1205     1.0  0.98670  0.55815  0.17827  1.0000
  C   C3035     1.0  0.98721  0.50428  0.10616  1.0000
  C   C3036     1.0  0.98733  0.55058  0.16864  1.0000
  Fe  Fe596     1.0  0.89960  0.48074  0.34816  1.0000
  S   S1206     1.0  0.90601  0.47697  0.33140  1.0000
  S   S1207     1.0  0.89200  0.49857  0.34877  1.0000
  Fe  Fe597     1.0  0.90461  0.45628  0.35977  1.0000
  S   S1208     1.0  0.91122  0.45052  0.34375  1.0000
  S   S1209     1.0  0.90644  0.44663  0.37701  1.0000
  Fe  Fe598     1.0  0.91939  0.46476  0.33827  1.0000
  H   H4859     1.0  0.98283  0.45831  0.55055  1.0000
  Fe  Fe599     1.0  0.89709  0.46331  0.33808  1.0000
  H   H4860     1.0  0.97629  0.48812  0.64475  1.0000
  S   S1210     1.0  0.91397  0.46968  0.35452  1.0000
  S   S1211     1.0  0.88960  0.46786  0.35458  1.0000
  Fe  Fe600     1.0  0.90983  0.54218  0.36350  1.0000
  S   S1212     1.0  0.91093  0.55234  0.34629  1.0000
  S   S1213     1.0  0.91681  0.52394  0.36567  1.0000
  Fe  Fe601     1.0  0.89822  0.56201  0.37404  1.0000
  S   S1214     1.0  0.89776  0.57373  0.35760  1.0000
  S   S1215     1.0  0.89138  0.56637  0.39086  1.0000
  Fe  Fe602     1.0  0.89368  0.56034  0.35260  1.0000
  S   S1216     1.0  0.88123  0.56186  0.34300  1.0000
  Fe  Fe603     1.0  0.91500  0.56463  0.35280  1.0000
  S   S1217     1.0  0.92742  0.57455  0.34332  1.0000
  S   S1218     1.0  0.89229  0.54943  0.36957  1.0000
  S   S1219     1.0  0.91581  0.55365  0.36948  1.0000
  Fe  Fe604     1.0  0.96327  0.48205  0.36067  1.0000
  H   H4861     1.0  0.95624  0.34706  0.48925  1.0000
  S   S1220     1.0  0.94901  0.49240  0.35353  1.0000
  C   C3037     1.0  0.97761  0.34154  0.44194  1.0000
  H   H4862     1.0  0.86143  0.49045  0.34166  1.0000
  C   C3038     1.0  0.92819  0.41796  0.56273  1.0000
  Fe  Fe605     1.0  0.96077  0.57698  0.37796  1.0000
  C   C3039     1.0  0.90417  0.64558  0.46802  1.0000
  S   S1221     1.0  0.94719  0.59088  0.37314  1.0000
  S   S1222     1.0  0.96701  0.34345  0.54532  1.0000
  C   C3040     1.0  0.97481  0.62121  0.56418  1.0000
  S   S1223     1.0  0.95943  0.56652  0.39498  1.0000
  H   H4863     1.0  0.92209  0.42172  0.58330  1.0000
  H   H4864     1.0  0.86526  0.57453  0.53960  1.0000
  H   H4865     1.0  0.96177  0.36545  0.54848  1.0000
  S   S1224     1.0  0.94833  0.33188  0.50871  1.0000
  S   S1225     1.0  0.97009  0.38472  0.46267  1.0000
  Fe  Fe606     1.0  0.96270  0.39852  0.45032  1.0000
  S   S1226     1.0  0.94498  0.40097  0.45110  1.0000
  S   S1227     1.0  0.96855  0.41160  0.45377  1.0000
  Fe  Fe607     1.0  0.96554  0.40723  0.54109  1.0000
  S   S1228     1.0  0.97286  0.39913  0.55579  1.0000
  S   S1229     1.0  0.94792  0.40933  0.54171  1.0000
  C   C3041     1.0  0.98479  0.42724  0.41704  1.0000
  H   H4866     1.0  0.88212  0.41714  0.50064  1.0000
  H   H4867     1.0  0.88019  0.57610  0.54705  1.0000
  S   S1230     1.0  0.97918  0.39866  0.52965  1.0000
  S   S1231     1.0  0.97178  0.42260  0.53718  1.0000
  Fe  Fe608     1.0  0.91632  0.38366  0.52302  1.0000
  S   S1232     1.0  0.91256  0.40124  0.51424  1.0000
  S   S1233     1.0  0.93369  0.37598  0.52402  1.0000
  Fe  Fe609     1.0  0.89319  0.38165  0.52814  1.0000
  S   S1234     1.0  0.88727  0.39928  0.51987  1.0000
  S   S1235     1.0  0.88147  0.37087  0.53808  1.0000
  Fe  Fe610     1.0  0.90212  0.39596  0.50654  1.0000
  S   S1236     1.0  0.90391  0.40408  0.48848  1.0000
  Fe  Fe611     1.0  0.89812  0.40339  0.52820  1.0000
  S   S1237     1.0  0.89384  0.42005  0.53277  1.0000
  S   S1238     1.0  0.90723  0.37797  0.51409  1.0000
  S   S1239     1.0  0.90271  0.38603  0.53773  1.0000
  Fe  Fe612     1.0  0.89945  0.38984  0.41529  1.0000
  S   S1240     1.0  0.91070  0.37338  0.41408  1.0000
  S   S1241     1.0  0.89517  0.39957  0.39900  1.0000
  Fe  Fe613     1.0  0.89562  0.38447  0.44057  1.0000
  S   S1242     1.0  0.90648  0.36766  0.44112  1.0000
  S   S1243     1.0  0.88557  0.38736  0.45718  1.0000
  Fe  Fe614     1.0  0.91745  0.37622  0.42684  1.0000
  S   S1244     1.0  0.93533  0.37132  0.42589  1.0000
  Fe  Fe615     1.0  0.89861  0.36645  0.42840  1.0000
  S   S1245     1.0  0.89176  0.35190  0.42986  1.0000
  S   S1246     1.0  0.90727  0.39338  0.42701  1.0000
  S   S1247     1.0  0.88678  0.38260  0.42887  1.0000
  H   H4868     1.0  0.91883  0.46221  0.39038  1.0000
  H   H4869     1.0  0.88521  0.47777  0.62506  1.0000
  H   H4870     1.0  0.89257  0.57889  0.53782  1.0000
  H   H4871     1.0  0.88155  0.36607  0.46060  1.0000
  H   H4872     1.0  0.91531  0.56424  0.58592  1.0000
  H   H4873     1.0  0.95868  0.38388  0.49177  1.0000
  S   S1248     1.0  0.98411  0.55265  0.38590  1.0000
  H   H4874     1.0  0.88549  0.44917  0.50015  1.0000
  H   H4875     1.0  0.95613  0.51598  0.39367  1.0000
  C   C3042     1.0  0.94269  0.51951  0.37092  1.0000
  C   C3043     1.0  0.87133  0.57328  0.53183  1.0000
  Fe  Fe616     1.0  0.88468  0.54679  0.61485  1.0000
  S   S1249     1.0  0.88120  0.54357  0.60000  1.0000
  S   S1250     1.0  0.87282  0.55417  0.62872  1.0000
  Fe  Fe617     1.0  0.90822  0.53484  0.61014  1.0000
  S   S1251     1.0  0.90705  0.53044  0.59507  1.0000
  S   S1252     1.0  0.92368  0.52917  0.61631  1.0000
  Fe  Fe618     1.0  0.89743  0.54783  0.59103  1.0000
  S   S1253     1.0  0.90414  0.55684  0.57386  1.0000
  Fe  Fe619     1.0  0.89117  0.52648  0.60497  1.0000
  S   S1254     1.0  0.88635  0.51050  0.60704  1.0000
  S   S1255     1.0  0.89997  0.55254  0.60534  1.0000
  S   S1256     1.0  0.89323  0.52936  0.62048  1.0000
  Fe  Fe620     1.0  0.90092  0.43977  0.58380  1.0000
  S   S1257     1.0  0.91612  0.44647  0.57724  1.0000
  S   S1258     1.0  0.89874  0.42526  0.57862  1.0000
  Fe  Fe621     1.0  0.89397  0.45055  0.60378  1.0000
  S   S1259     1.0  0.90866  0.45766  0.59893  1.0000
  Fe  Fe622     1.0  0.90561  0.46217  0.58194  1.0000
  S   S1260     1.0  0.90906  0.47894  0.57349  1.0000
  Fe  Fe623     1.0  0.91784  0.44154  0.59474  1.0000
  S   S1261     1.0  0.93428  0.43328  0.59829  1.0000
  S   S1262     1.0  0.89003  0.45606  0.58697  1.0000
  S   S1263     1.0  0.90348  0.43383  0.60121  1.0000
  H   H4876     1.0  0.95096  0.37675  0.48782  1.0000
  S   S1264     1.0  0.93559  0.57275  0.61703  1.0000
  H   H4877     1.0  0.91995  0.42323  0.56476  1.0000
  S   S1265     1.0  0.94581  0.46520  0.61995  1.0000
  Fe  Fe624     1.0  0.89175  0.60934  0.53210  1.0000
  S   S1266     1.0  0.90290  0.62044  0.53021  1.0000
  S   S1267     1.0  0.88098  0.60269  0.54815  1.0000
  Fe  Fe625     1.0  0.89867  0.60745  0.50828  1.0000
  S   S1268     1.0  0.91062  0.61810  0.50410  1.0000
  S   S1269     1.0  0.89830  0.59740  0.49681  1.0000
  Fe  Fe626     1.0  0.91509  0.60901  0.52014  1.0000
  S   S1270     1.0  0.93282  0.60474  0.52006  1.0000
  Fe  Fe627     1.0  0.89775  0.62908  0.51422  1.0000
  Fe  Fe628     1.0  0.98185  0.47602  0.60445  1.0000
  S   S1271     1.0  0.90452  0.59716  0.52341  1.0000
  S   S1272     1.0  0.88516  0.61913  0.51700  1.0000
  Fe  Fe629     1.0  0.89454  0.61416  0.41613  1.0000
  S   S1273     1.0  0.89487  0.60191  0.43235  1.0000
  S   S1274     1.0  0.89109  0.61198  0.40068  1.0000
  Fe  Fe630     1.0  0.91131  0.60523  0.43021  1.0000
  S   S1275     1.0  0.92684  0.59284  0.43211  1.0000
  H   H4878     1.0  0.97410  0.43024  0.58464  1.0000
  C   C3044     1.0  0.92480  0.40258  0.57783  1.0000
  S   S1276     1.0  0.94049  0.60976  0.46617  1.0000
  N   N303      1.0  0.94236  0.39273  0.49086  1.0000
  C   C3045     1.0  0.89931  0.51333  0.64990  1.0000
  C   C3046     1.0  0.93107  0.59549  0.44264  1.0000
  C   C3047     1.0  0.92335  0.59864  0.45175  1.0000
  C   C3048     1.0  0.92640  0.60247  0.45932  1.0000
  C   C3049     1.0  0.93712  0.60348  0.45757  1.0000
  C   C3050     1.0  0.94494  0.59991  0.44869  1.0000
  C   C3051     1.0  0.94196  0.59567  0.44137  1.0000
  H   H4879     1.0  0.89493  0.58130  0.51781  1.0000
  H   H4880     1.0  0.94327  0.42678  0.40617  1.0000
  H   H4881     1.0  0.95327  0.60051  0.44735  1.0000
  H   H4882     1.0  0.94802  0.59295  0.43449  1.0000
  C   C3052     1.0  0.93665  0.61742  0.51621  1.0000
  C   C3053     1.0  0.94753  0.61782  0.51454  1.0000
  C   C3054     1.0  0.95049  0.62802  0.51127  1.0000
  C   C3055     1.0  0.94253  0.63778  0.51015  1.0000
  C   C3056     1.0  0.93174  0.63739  0.51139  1.0000
  C   C3057     1.0  0.92884  0.62721  0.51433  1.0000
  H   H4883     1.0  0.95367  0.61030  0.51577  1.0000
  H   H4884     1.0  0.95893  0.62833  0.50975  1.0000
  H   H4885     1.0  0.97831  0.32403  0.48026  1.0000
  H   H4886     1.0  0.92049  0.62706  0.51533  1.0000
  C   C3058     1.0  0.89197  0.60348  0.48559  1.0000
  C   C3059     1.0  0.88268  0.61202  0.48622  1.0000
  C   C3060     1.0  0.87785  0.61670  0.47705  1.0000
  C   C3061     1.0  0.88238  0.61293  0.46723  1.0000
  C   C3062     1.0  0.89162  0.60435  0.46666  1.0000
  C   C3063     1.0  0.89634  0.59957  0.47585  1.0000
  H   H4887     1.0  0.87917  0.61495  0.49378  1.0000
  H   H4888     1.0  0.87065  0.62329  0.47752  1.0000
  S   S1277     1.0  0.92531  0.48955  0.64458  1.0000
  H   H4889     1.0  0.90348  0.59290  0.47535  1.0000
  H   H4890     1.0  0.95463  0.60873  0.42146  1.0000
  H   H4891     1.0  0.93355  0.41236  0.58822  1.0000
  C   C3064     1.0  0.93773  0.44116  0.60527  1.0000
  C   C3065     1.0  0.94848  0.44223  0.60310  1.0000
  C   C3066     1.0  0.95101  0.44960  0.60765  1.0000
  C   C3067     1.0  0.94287  0.45554  0.61472  1.0000
  C   C3068     1.0  0.93223  0.45404  0.61735  1.0000
  C   C3069     1.0  0.92964  0.44696  0.61250  1.0000
  H   H4892     1.0  0.95479  0.43763  0.59765  1.0000
  H   H4893     1.0  0.95927  0.45059  0.60573  1.0000
  H   H4894     1.0  0.92593  0.45858  0.62286  1.0000
  H   H4895     1.0  0.92137  0.44601  0.61437  1.0000
  C   C3070     1.0  0.89757  0.57005  0.56771  1.0000
  C   C3071     1.0  0.88645  0.57429  0.57122  1.0000
  C   C3072     1.0  0.88142  0.58453  0.56542  1.0000
  C   C3073     1.0  0.88752  0.59059  0.55621  1.0000
  C   C3074     1.0  0.89872  0.58654  0.55308  1.0000
  C   C3075     1.0  0.90368  0.57625  0.55867  1.0000
  H   H4896     1.0  0.88168  0.56957  0.57820  1.0000
  H   H4897     1.0  0.87276  0.58765  0.56795  1.0000
  H   H4898     1.0  0.90357  0.59128  0.54626  1.0000
  H   H4899     1.0  0.91228  0.57305  0.55593  1.0000
  C   C3076     1.0  0.92712  0.54062  0.61799  1.0000
  C   C3077     1.0  0.93800  0.54103  0.61629  1.0000
  C   C3078     1.0  0.94068  0.55088  0.61603  1.0000
  C   C3079     1.0  0.93247  0.56024  0.61768  1.0000
  C   C3080     1.0  0.92159  0.55967  0.61973  1.0000
  C   C3081     1.0  0.91896  0.54982  0.62004  1.0000
  H   H4900     1.0  0.94435  0.53386  0.61481  1.0000
  H   H4901     1.0  0.94909  0.55126  0.61417  1.0000
  H   H4902     1.0  0.91518  0.56687  0.62089  1.0000
  H   H4903     1.0  0.91061  0.54927  0.62185  1.0000
  C   C3082     1.0  0.89271  0.50214  0.59733  1.0000
  C   C3083     1.0  0.90101  0.50494  0.58827  1.0000
  C   C3084     1.0  0.90598  0.49789  0.58085  1.0000
  C   C3085     1.0  0.90270  0.48801  0.58252  1.0000
  C   C3086     1.0  0.89440  0.48527  0.59157  1.0000
  C   C3087     1.0  0.88941  0.49231  0.59890  1.0000
  H   H4904     1.0  0.90347  0.51259  0.58687  1.0000
  H   H4905     1.0  0.91232  0.50010  0.57380  1.0000
  H   H4906     1.0  0.89164  0.47780  0.59282  1.0000
  H   H4907     1.0  0.88286  0.49017  0.60571  1.0000
  Fe  Fe631     1.0  0.98463  0.38255  0.44885  1.0000
  C   C3088     1.0  0.96823  0.43398  0.41003  1.0000
  C   C3089     1.0  0.96402  0.59289  0.48227  1.0000
  C   C3090     1.0  0.98275  0.61721  0.48616  1.0000
  H   H4908     1.0  0.89131  0.48020  0.63473  1.0000
  C   C3091     1.0  0.88984  0.55821  0.63412  1.0000
  H   H4909     1.0  0.84670  0.57868  0.38003  1.0000
  C   C3092     1.0  0.95214  0.60773  0.49055  1.0000
  H   H4910     1.0  0.89347  0.55930  0.62545  1.0000
  H   H4911     1.0  0.96990  0.33508  0.46469  1.0000
  H   H4912     1.0  0.92526  0.39793  0.49143  1.0000
  H   H4913     1.0  0.93961  0.39582  0.50702  1.0000
  H   H4914     1.0  0.88415  0.58077  0.51218  1.0000
  H   H4915     1.0  0.92366  0.54506  0.58350  1.0000
  H   H4916     1.0  0.92602  0.41759  0.40156  1.0000
  H   H4917     1.0  0.93931  0.40615  0.47708  1.0000
  H   H4918     1.0  0.89865  0.53867  0.32221  1.0000
  H   H4919     1.0  0.86693  0.57634  0.52496  1.0000
  C   C3093     1.0  0.90118  0.33976  0.42729  1.0000
  H   H4920     1.0  0.98720  0.54433  0.42192  1.0000
  H   H4921     1.0  0.95719  0.57456  0.34971  1.0000
  S   S1278     1.0  0.96550  0.45034  0.39168  1.0000
  H   H4922     1.0  0.91595  0.64429  0.53021  1.0000
  C   C3094     1.0  0.91203  0.33987  0.42197  1.0000
  H   H4923     1.0  0.98216  0.53167  0.40182  1.0000
  N   N304      1.0  0.91189  0.42154  0.63551  1.0000
  H   H4924     1.0  0.95717  0.33861  0.47403  1.0000
  H   H4925     1.0  0.91482  0.34748  0.41954  1.0000
  C   C3095     1.0  0.89589  0.42137  0.54529  1.0000
  C   C3096     1.0  0.89494  0.43192  0.54694  1.0000
  C   C3097     1.0  0.89604  0.43329  0.55699  1.0000
  C   C3098     1.0  0.89789  0.42410  0.56556  1.0000
  C   C3099     1.0  0.89897  0.41355  0.56385  1.0000
  C   C3100     1.0  0.89807  0.41218  0.55374  1.0000
  H   H4926     1.0  0.89325  0.43909  0.54044  1.0000
  H   H4927     1.0  0.89518  0.44145  0.55820  1.0000
  H   H4928     1.0  0.90037  0.40639  0.57043  1.0000
  H   H4929     1.0  0.89879  0.40402  0.55260  1.0000
  C   C3101     1.0  0.89140  0.39124  0.46586  1.0000
  C   C3102     1.0  0.88705  0.38917  0.47727  1.0000
  C   C3103     1.0  0.89115  0.39267  0.48435  1.0000
  C   C3104     1.0  0.89940  0.39855  0.47999  1.0000
  C   C3105     1.0  0.90379  0.40060  0.46859  1.0000
  C   C3106     1.0  0.89992  0.39680  0.46155  1.0000
  H   H4930     1.0  0.88042  0.38492  0.48064  1.0000
  H   H4931     1.0  0.88768  0.39111  0.49313  1.0000
  H   H4932     1.0  0.91015  0.40519  0.46519  1.0000
  H   H4933     1.0  0.90328  0.39848  0.45276  1.0000
  C   C3107     1.0  0.88068  0.35813  0.53632  1.0000
  C   C3108     1.0  0.88701  0.35345  0.52736  1.0000
  C   C3109     1.0  0.88601  0.34307  0.52667  1.0000
  C   C3110     1.0  0.87859  0.33753  0.53485  1.0000
  C   C3111     1.0  0.89564  0.42785  0.50338  1.0000
  C   C3112     1.0  0.87335  0.35251  0.54440  1.0000
  H   H4934     1.0  0.89251  0.35787  0.52096  1.0000
  H   H4935     1.0  0.89078  0.33949  0.51973  1.0000
  H   H4936     1.0  0.93930  0.39980  0.40491  1.0000
  H   H4937     1.0  0.86840  0.35610  0.55130  1.0000
  C   C3113     1.0  0.97589  0.44703  0.57793  1.0000
  C   C3114     1.0  0.94434  0.39958  0.53715  1.0000
  C   C3115     1.0  0.93344  0.40099  0.53697  1.0000
  C   C3116     1.0  0.93021  0.39352  0.53325  1.0000
  C   C3117     1.0  0.93786  0.38463  0.52959  1.0000
  C   C3118     1.0  0.94878  0.38305  0.52992  1.0000
  C   C3119     1.0  0.95202  0.39053  0.53375  1.0000
  H   H4938     1.0  0.92744  0.40795  0.53961  1.0000
  H   H4939     1.0  0.92176  0.39475  0.53323  1.0000
  H   H4940     1.0  0.95471  0.37609  0.52722  1.0000
  H   H4941     1.0  0.96042  0.38929  0.53408  1.0000
  C   C3120     1.0  0.94255  0.39110  0.44577  1.0000
  C   C3121     1.0  0.95111  0.38475  0.43946  1.0000
  C   C3122     1.0  0.94895  0.37805  0.43387  1.0000
  C   C3123     1.0  0.93820  0.37771  0.43464  1.0000
  C   C3124     1.0  0.92969  0.38354  0.44151  1.0000
  C   C3125     1.0  0.93186  0.39028  0.44703  1.0000
  H   H4942     1.0  0.95936  0.38532  0.43852  1.0000
  H   H4943     1.0  0.95554  0.37353  0.42856  1.0000
  H   H4944     1.0  0.92139  0.38308  0.44238  1.0000
  H   H4945     1.0  0.92523  0.39510  0.45202  1.0000
  C   C3126     1.0  0.97651  0.41364  0.50449  1.0000
  C   C3127     1.0  0.89738  0.65105  0.43717  1.0000
  H   H4946     1.0  0.97185  0.41558  0.51231  1.0000
  H   H4947     1.0  0.96429  0.40670  0.50250  1.0000
  C   C3128     1.0  0.94563  0.46110  0.64991  1.0000
  H   H4948     1.0  0.98539  0.50852  0.34959  1.0000
  C   C3129     1.0  0.93158  0.39024  0.49281  1.0000
  H   H4949     1.0  0.98608  0.34467  0.47811  1.0000
  H   H4950     1.0  0.86936  0.36193  0.46136  1.0000
  H   H4951     1.0  0.92911  0.38561  0.50141  1.0000
  H   H4952     1.0  0.88928  0.32970  0.43448  1.0000
  C   C3130     1.0  0.89194  0.57892  0.39342  1.0000
  C   C3131     1.0  0.88993  0.57998  0.40437  1.0000
  C   C3132     1.0  0.88981  0.59000  0.40674  1.0000
  C   C3133     1.0  0.89143  0.59914  0.39815  1.0000
  C   C3134     1.0  0.89335  0.59810  0.38719  1.0000
  C   C3135     1.0  0.89383  0.58798  0.38482  1.0000
  H   H4953     1.0  0.88841  0.57302  0.41108  1.0000
  H   H4954     1.0  0.88822  0.59073  0.41520  1.0000
  H   H4955     1.0  0.89465  0.60513  0.38050  1.0000
  H   H4956     1.0  0.89549  0.58728  0.37634  1.0000
  C   C3136     1.0  0.93118  0.57935  0.35277  1.0000
  C   C3137     1.0  0.93104  0.59055  0.35098  1.0000
  C   C3138     1.0  0.93539  0.59419  0.35772  1.0000
  C   C3139     1.0  0.94008  0.58660  0.36607  1.0000
  C   C3140     1.0  0.93973  0.57548  0.36820  1.0000
  C   C3141     1.0  0.93522  0.57187  0.36159  1.0000
  H   H4957     1.0  0.92778  0.59636  0.34424  1.0000
  H   H4958     1.0  0.93554  0.60281  0.35614  1.0000
  H   H4959     1.0  0.94317  0.56959  0.37476  1.0000
  H   H4960     1.0  0.93540  0.56321  0.36296  1.0000
  H   H4961     1.0  0.87179  0.51050  0.33260  1.0000
  H   H4962     1.0  0.98567  0.53476  0.64872  1.0000
  C   C3142     1.0  0.96418  0.34929  0.48483  1.0000
  H   H4963     1.0  0.91063  0.33705  0.52379  1.0000
  H   H4964     1.0  0.93590  0.40780  0.49667  1.0000
  H   H4965     1.0  0.92635  0.33355  0.54480  1.0000
  H   H4966     1.0  0.89823  0.58050  0.63839  1.0000
  C   C3143     1.0  0.90329  0.43353  0.38289  1.0000
  C   C3144     1.0  0.90462  0.42834  0.39367  1.0000
  C   C3145     1.0  0.90226  0.41789  0.39866  1.0000
  C   C3146     1.0  0.89845  0.41259  0.39291  1.0000
  C   C3147     1.0  0.89710  0.41779  0.38214  1.0000
  C   C3148     1.0  0.89954  0.42821  0.37711  1.0000
  H   H4967     1.0  0.90734  0.43251  0.39822  1.0000
  H   H4968     1.0  0.90315  0.41403  0.40701  1.0000
  H   H4969     1.0  0.89411  0.41376  0.37766  1.0000
  H   H4970     1.0  0.89846  0.43215  0.36882  1.0000
  C   C3149     1.0  0.94059  0.47330  0.33361  1.0000
  C   C3150     1.0  0.93324  0.48276  0.33646  1.0000
  C   C3151     1.0  0.93607  0.48898  0.34209  1.0000
  C   C3152     1.0  0.94614  0.48561  0.34505  1.0000
  C   C3153     1.0  0.95368  0.47652  0.34162  1.0000
  C   C3154     1.0  0.95091  0.47035  0.33591  1.0000
  H   H4971     1.0  0.92526  0.48514  0.33458  1.0000
  H   H4972     1.0  0.93035  0.49618  0.34444  1.0000
  H   H4973     1.0  0.96171  0.47424  0.34327  1.0000
  H   H4974     1.0  0.95660  0.46307  0.33368  1.0000
  H   H4975     1.0  0.88843  0.49660  0.32744  1.0000
  H   H4976     1.0  0.90320  0.34387  0.54119  1.0000
  Fe  Fe632     1.0  0.98598  0.46843  0.35433  1.0000
  Fe  Fe633     1.0  0.98143  0.48419  0.36958  1.0000
  S   S1279     1.0  0.97919  0.48652  0.35253  1.0000
  H   H4977     1.0  0.92762  0.33021  0.41536  1.0000
  H   H4978     1.0  0.91942  0.53099  0.33897  1.0000
  C   C3155     1.0  0.96409  0.51954  0.59493  1.0000
  C   C3156     1.0  0.98037  0.52073  0.59955  1.0000
  H   H4979     1.0  0.87353  0.48044  0.33775  1.0000
  C   C3157     1.0  0.89859  0.50528  0.35423  1.0000
  C   C3158     1.0  0.90850  0.50001  0.35729  1.0000
  C   C3159     1.0  0.91389  0.50571  0.36111  1.0000
  C   C3160     1.0  0.90945  0.51674  0.36176  1.0000
  C   C3161     1.0  0.89951  0.52201  0.35875  1.0000
  C   C3162     1.0  0.89404  0.51625  0.35512  1.0000
  H   H4980     1.0  0.91210  0.49163  0.35652  1.0000
  H   H4981     1.0  0.92167  0.50168  0.36326  1.0000
  H   H4982     1.0  0.89603  0.53053  0.35916  1.0000
  H   H4983     1.0  0.88633  0.52037  0.35283  1.0000
  N   N305      1.0  0.96270  0.57860  0.33212  1.0000
  H   H4984     1.0  0.87453  0.56425  0.53258  1.0000
  Fe  Fe634     1.0  0.97760  0.65454  0.51964  1.0000
  H   H4985     1.0  0.92389  0.33869  0.51576  1.0000
  S   S1280     1.0  0.98348  0.63889  0.53154  1.0000
  Fe  Fe635     1.0  0.98046  0.63029  0.52009  1.0000
  C   C3163     1.0  0.91310  0.64817  0.53747  1.0000
  H   H4986     1.0  0.97775  0.33012  0.49130  1.0000
  H   H4987     1.0  0.87124  0.59458  0.52204  1.0000
  S   S1281     1.0  0.98201  0.62665  0.44267  1.0000
  H   H4988     1.0  0.98615  0.57695  0.55063  1.0000
  H   H4989     1.0  0.96948  0.52395  0.43159  1.0000
  N   N306      1.0  0.93351  0.32392  0.44744  1.0000
  H   H4990     1.0  0.97013  0.42120  0.42467  1.0000
  C   C3164     1.0  0.88178  0.55862  0.32269  1.0000
  N   N307      1.0  0.92487  0.58539  0.40273  1.0000
  C   C3165     1.0  0.91966  0.59316  0.39393  1.0000
  C   C3166     1.0  0.92981  0.57469  0.39954  1.0000
  C   C3167     1.0  0.91660  0.58383  0.41313  1.0000
  C   C3168     1.0  0.93340  0.58987  0.40432  1.0000
  H   H4991     1.0  0.91522  0.60114  0.39631  1.0000
  H   H4992     1.0  0.91373  0.58969  0.39204  1.0000
  H   H4993     1.0  0.92573  0.59505  0.38612  1.0000
  H   H4994     1.0  0.93377  0.56859  0.40601  1.0000
  H   H4995     1.0  0.92363  0.57114  0.39813  1.0000
  H   H4996     1.0  0.93612  0.57562  0.39176  1.0000
  H   H4997     1.0  0.92030  0.57838  0.42007  1.0000
  H   H4998     1.0  0.91023  0.58014  0.41233  1.0000
  H   H4999     1.0  0.91244  0.59182  0.41555  1.0000
  H   H5000     1.0  0.93747  0.58422  0.41094  1.0000
  H   H5001     1.0  0.92992  0.59793  0.40675  1.0000
  H   H5002     1.0  0.93979  0.59113  0.39663  1.0000
  H   H5003     1.0  0.96806  0.59518  0.50070  1.0000
  C   C3169     1.0  0.96266  0.60746  0.58083  1.0000
  C   C3170     1.0  0.98084  0.45222  0.55801  1.0000
  H   H5004     1.0  0.88879  0.44454  0.48749  1.0000
  S   S1282     1.0  0.97175  0.60436  0.45219  1.0000
  H   H5005     1.0  0.92950  0.35234  0.53474  1.0000
  H   H5006     1.0  0.93465  0.32560  0.49877  1.0000
  H   H5007     1.0  0.94250  0.59373  0.48700  1.0000
  S   S1283     1.0  0.97902  0.46820  0.56895  1.0000
  S   S1284     1.0  0.96438  0.56977  0.59705  1.0000
  H   H5008     1.0  0.88342  0.64803  0.52764  1.0000
  H   H5009     1.0  0.98776  0.44762  0.39371  1.0000
  C   C3171     1.0  0.91989  0.41893  0.62549  1.0000
  C   C3172     1.0  0.98517  0.47147  0.64963  1.0000
  S   S1285     1.0  0.96469  0.48124  0.37772  1.0000
  C   C3173     1.0  0.96410  0.49641  0.32200  1.0000
  S   S1286     1.0  0.95863  0.65420  0.44910  1.0000
  Fe  Fe636     1.0  0.96209  0.32788  0.51711  1.0000
  H   H5010     1.0  0.96724  0.50033  0.38502  1.0000
  H   H5011     1.0  0.91566  0.43722  0.63341  1.0000
  H   H5012     1.0  0.89807  0.63516  0.48850  1.0000
  C   C3174     1.0  0.90619  0.65314  0.42847  1.0000
  C   C3175     1.0  0.90946  0.34895  0.53836  1.0000
  N   N308      1.0  0.88430  0.43249  0.50213  1.0000
  H   H5013     1.0  0.93376  0.48415  0.60207  1.0000
  H   H5014     1.0  0.88101  0.34107  0.45201  1.0000
  H   H5015     1.0  0.95884  0.61179  0.48982  1.0000
  C   C3176     1.0  0.89714  0.63125  0.48227  1.0000
  H   H5016     1.0  0.86637  0.48574  0.62450  1.0000
  H   H5017     1.0  0.94860  0.41075  0.56537  1.0000
  C   C3177     1.0  0.88547  0.48410  0.62924  1.0000
  H   H5018     1.0  0.90625  0.64898  0.47398  1.0000
  H   H5019     1.0  0.95339  0.40081  0.47745  1.0000
  H   H5020     1.0  0.85819  0.49454  0.32269  1.0000
  N   N309      1.0  0.88018  0.57906  0.52982  1.0000
  H   H5021     1.0  0.93149  0.38522  0.48713  1.0000
  H   H5022     1.0  0.98661  0.59251  0.56381  1.0000
  H   H5023     1.0  0.91768  0.41295  0.62222  1.0000
  C   C3178     1.0  0.94319  0.40487  0.56978  1.0000
  H   H5024     1.0  0.94631  0.39974  0.57717  1.0000
  H   H5025     1.0  0.94416  0.39932  0.56421  1.0000
  H   H5026     1.0  0.92529  0.39747  0.57199  1.0000
  H   H5027     1.0  0.91610  0.40671  0.58020  1.0000
  N   N310      1.0  0.97093  0.34133  0.47802  1.0000
  S   S1287     1.0  0.98022  0.56851  0.40891  1.0000
  C   C3179     1.0  0.98128  0.34471  0.47221  1.0000
  C   C3180     1.0  0.97323  0.33023  0.48516  1.0000
  H   H5028     1.0  0.86969  0.59269  0.53672  1.0000
  Fe  Fe637     1.0  0.98733  0.39202  0.54387  1.0000
  H   H5029     1.0  0.92607  0.33822  0.43673  1.0000
  H   H5030     1.0  0.93035  0.63152  0.42577  1.0000
  N   N311      1.0  0.93173  0.41072  0.57275  1.0000
  H   H5031     1.0  0.92725  0.39694  0.58538  1.0000
  H   H5032     1.0  0.89151  0.56834  0.51966  1.0000
  C   C3181     1.0  0.90110  0.42657  0.63280  1.0000
  C   C3182     1.0  0.93071  0.41746  0.58066  1.0000
  H   H5033     1.0  0.94281  0.44582  0.57380  1.0000
  H   H5034     1.0  0.91576  0.57062  0.65214  1.0000
  H   H5035     1.0  0.90698  0.45758  0.63847  1.0000
  H   H5036     1.0  0.93562  0.42387  0.57696  1.0000
  S   S1288     1.0  0.97753  0.56248  0.64099  1.0000
  S   S1289     1.0  0.98383  0.53941  0.60257  1.0000
  H   H5037     1.0  0.91127  0.35011  0.54582  1.0000
  H   H5038     1.0  0.93384  0.42352  0.55804  1.0000
  H   H5039     1.0  0.92784  0.41310  0.55702  1.0000
  H   H5040     1.0  0.96535  0.49167  0.33031  1.0000
  H   H5041     1.0  0.90330  0.62033  0.46578  1.0000
  H   H5042     1.0  0.97369  0.53683  0.35473  1.0000
  H   H5043     1.0  0.91707  0.56955  0.63833  1.0000
  Fe  Fe638     1.0  0.98615  0.32614  0.51188  1.0000
  C   C3183     1.0  0.97213  0.40881  0.49879  1.0000
  N   N312      1.0  0.92100  0.65411  0.53800  1.0000
  C   C3184     1.0  0.88456  0.37403  0.40445  1.0000
  C   C3185     1.0  0.94545  0.39846  0.47923  1.0000
  H   H5044     1.0  0.94613  0.39318  0.47351  1.0000
  H   H5045     1.0  0.94360  0.62720  0.39747  1.0000
  H   H5046     1.0  0.91577  0.65275  0.55554  1.0000
  H   H5047     1.0  0.94223  0.55491  0.59368  1.0000
  H   H5048     1.0  0.92116  0.59326  0.64628  1.0000
  H   H5049     1.0  0.89504  0.60132  0.45915  1.0000
  S   S1290     1.0  0.90532  0.61901  0.43911  1.0000
  C   C3186     1.0  0.88596  0.45304  0.63088  1.0000
  H   H5050     1.0  0.92415  0.35906  0.52265  1.0000
  H   H5051     1.0  0.85902  0.50978  0.33054  1.0000
  C   C3187     1.0  0.94193  0.39988  0.49817  1.0000
  H   H5052     1.0  0.94998  0.40188  0.49687  1.0000
  H   H5053     1.0  0.93818  0.54021  0.58112  1.0000
  H   H5054     1.0  0.90750  0.50863  0.64651  1.0000
  S   S1291     1.0  0.97351  0.39747  0.48351  1.0000
  H   H5055     1.0  0.92823  0.51432  0.60025  1.0000
  H   H5056     1.0  0.98032  0.45362  0.34213  1.0000
  C   C3188     1.0  0.94251  0.55792  0.58469  1.0000
  H   H5057     1.0  0.94367  0.56652  0.58241  1.0000
  H   H5058     1.0  0.92207  0.56143  0.59702  1.0000
  H   H5059     1.0  0.96470  0.50491  0.32139  1.0000
  H   H5060     1.0  0.94475  0.60575  0.41616  1.0000
  H   H5061     1.0  0.93059  0.54254  0.59442  1.0000
  H   H5062     1.0  0.94985  0.55277  0.58032  1.0000
  C   C3189     1.0  0.98108  0.58547  0.54921  1.0000
  Fe  Fe639     1.0  0.96567  0.63992  0.53940  1.0000
  C   C3190     1.0  0.92300  0.56432  0.58794  1.0000
  H   H5063     1.0  0.92377  0.57305  0.58576  1.0000
  C   C3191     1.0  0.95044  0.38232  0.49319  1.0000
  H   H5064     1.0  0.94833  0.37787  0.50194  1.0000
  H   H5065     1.0  0.94915  0.58147  0.49527  1.0000
  C   C3192     1.0  0.95067  0.63043  0.41345  1.0000
  S   S1292     1.0  0.87663  0.32471  0.53450  1.0000
  H   H5066     1.0  0.94091  0.51224  0.36930  1.0000
  N   N313      1.0  0.93248  0.55731  0.58200  1.0000
  C   C3193     1.0  0.93118  0.54578  0.58540  1.0000
  H   H5067     1.0  0.89339  0.64461  0.43762  1.0000
  H   H5068     1.0  0.94585  0.41725  0.39746  1.0000
  C   C3194     1.0  0.86796  0.50808  0.32720  1.0000
  C   C3195     1.0  0.97397  0.60509  0.57943  1.0000
  S   S1293     1.0  0.96975  0.46399  0.36141  1.0000
  C   C3196     1.0  0.91656  0.34246  0.52140  1.0000
  C   C3197     1.0  0.94482  0.41789  0.40612  1.0000
  H   H5069     1.0  0.95272  0.41383  0.40861  1.0000
  C   C3198     1.0  0.98474  0.54654  0.35409  1.0000
  H   H5070     1.0  0.92344  0.42728  0.41010  1.0000
  C   C3199     1.0  0.91441  0.59128  0.62925  1.0000
  H   H5071     1.0  0.94867  0.61868  0.57522  1.0000
  N   N314      1.0  0.97876  0.53409  0.41835  1.0000
  N   N315      1.0  0.87454  0.48855  0.63544  1.0000
  H   H5072     1.0  0.87132  0.34898  0.47930  1.0000
  H   H5073     1.0  0.87046  0.47266  0.64170  1.0000
  N   N316      1.0  0.93591  0.41278  0.41362  1.0000
  C   C3200     1.0  0.92558  0.41835  0.41006  1.0000
  C   C3201     1.0  0.93838  0.40099  0.41335  1.0000
  C   C3202     1.0  0.95053  0.53554  0.36322  1.0000
  C   C3203     1.0  0.93321  0.56123  0.56999  1.0000
  C   C3204     1.0  0.88801  0.57726  0.51943  1.0000
  H   H5074     1.0  0.88939  0.56573  0.54008  1.0000
  H   H5075     1.0  0.86974  0.34216  0.46364  1.0000
  C   C3205     1.0  0.97892  0.59104  0.40334  1.0000
  H   H5076     1.0  0.89475  0.51649  0.64319  1.0000
  H   H5077     1.0  0.94603  0.39644  0.41614  1.0000
  H   H5078     1.0  0.89926  0.52757  0.33407  1.0000
  C   C3206     1.0  0.88582  0.57473  0.53909  1.0000
  S   S1294     1.0  0.96043  0.53674  0.39321  1.0000
  H   H5079     1.0  0.94030  0.55615  0.56526  1.0000
  H   H5080     1.0  0.91870  0.41470  0.41562  1.0000
  H   H5081     1.0  0.94255  0.40978  0.42790  1.0000
  H   H5082     1.0  0.93401  0.56997  0.56716  1.0000
  H   H5083     1.0  0.97519  0.58792  0.32490  1.0000
  H   H5084     1.0  0.93507  0.34715  0.52237  1.0000
  H   H5085     1.0  0.93952  0.33444  0.45351  1.0000
  C   C3207     1.0  0.93486  0.41384  0.42497  1.0000
  H   H5086     1.0  0.93177  0.39689  0.41885  1.0000
  H   H5087     1.0  0.92832  0.40994  0.43092  1.0000
  C   C3208     1.0  0.95941  0.51856  0.35707  1.0000
  H   H5088     1.0  0.95489  0.44961  0.56447  1.0000
  H   H5089     1.0  0.89573  0.64996  0.46724  1.0000
  H   H5090     1.0  0.94617  0.58615  0.33079  1.0000
  S   S1295     1.0  0.95716  0.48202  0.59126  1.0000
  Fe  Fe640     1.0  0.97261  0.46333  0.37793  1.0000
  Fe  Fe641     1.0  0.98030  0.41395  0.55113  1.0000
  H   H5091     1.0  0.89422  0.63323  0.46196  1.0000
  H   H5092     1.0  0.93291  0.42261  0.42557  1.0000
  H   H5093     1.0  0.92579  0.56077  0.56771  1.0000
  H   H5094     1.0  0.96330  0.34929  0.46426  1.0000
  H   H5095     1.0  0.97744  0.62653  0.49895  1.0000
  C   C3209     1.0  0.97843  0.60115  0.40574  1.0000
  C   C3210     1.0  0.87553  0.59099  0.52896  1.0000
  H   H5096     1.0  0.88197  0.59558  0.52748  1.0000
  H   H5097     1.0  0.96755  0.54880  0.42252  1.0000
  H   H5098     1.0  0.90144  0.42765  0.49527  1.0000
  Fe  Fe642     1.0  0.95946  0.47221  0.60800  1.0000
  H   H5099     1.0  0.94730  0.51647  0.37760  1.0000
  N   N317      1.0  0.90502  0.63357  0.47171  1.0000
  C   C3211     1.0  0.89874  0.37590  0.38796  1.0000
  H   H5100     1.0  0.90834  0.63114  0.45518  1.0000
  H   H5101     1.0  0.86965  0.58705  0.38492  1.0000
  H   H5102     1.0  0.93324  0.47531  0.56097  1.0000
  H   H5103     1.0  0.92950  0.52252  0.33037  1.0000
  S   S1296     1.0  0.98447  0.56640  0.60905  1.0000
  C   C3212     1.0  0.94873  0.45112  0.57211  1.0000
  C   C3213     1.0  0.98075  0.44161  0.55727  1.0000
  H   H5104     1.0  0.97991  0.35315  0.46689  1.0000
  H   H5105     1.0  0.86936  0.49916  0.62092  1.0000
  H   H5106     1.0  0.92058  0.33768  0.45117  1.0000
  H   H5107     1.0  0.93549  0.50416  0.61710  1.0000
  C   C3214     1.0  0.96422  0.51635  0.38869  1.0000
  Fe  Fe643     1.0  0.95361  0.57106  0.61373  1.0000
  H   H5108     1.0  0.95305  0.44815  0.57902  1.0000
  H   H5109     1.0  0.95766  0.46847  0.56120  1.0000
  H   H5110     1.0  0.95549  0.43060  0.32082  1.0000
  Fe  Fe644     1.0  0.97884  0.61442  0.45887  1.0000
  H   H5111     1.0  0.96245  0.35777  0.47968  1.0000
  H   H5112     1.0  0.95987  0.43374  0.41080  1.0000
  C   C3215     1.0  0.96840  0.52564  0.38720  1.0000
  N   N318      1.0  0.91483  0.53048  0.32441  1.0000
  H   H5113     1.0  0.92823  0.41540  0.62706  1.0000
  H   H5114     1.0  0.90396  0.37228  0.38088  1.0000
  C   C3216     1.0  0.96102  0.59143  0.50187  1.0000
  S   S1297     1.0  0.87661  0.61912  0.45565  1.0000
  Fe  Fe645     1.0  0.96532  0.63613  0.44914  1.0000
  H   H5115     1.0  0.93510  0.46542  0.39414  1.0000
  C   C3217     1.0  0.88135  0.42592  0.49615  1.0000
  H   H5116     1.0  0.93073  0.63959  0.54644  1.0000
  N   N319      1.0  0.95595  0.59564  0.49220  1.0000
  C   C3218     1.0  0.94658  0.59059  0.49410  1.0000
  N   N320      1.0  0.87236  0.49637  0.32668  1.0000
  H   H5117     1.0  0.90180  0.53373  0.63842  1.0000
  C   C3219     1.0  0.93751  0.46646  0.56193  1.0000
  H   H5118     1.0  0.85037  0.58587  0.38803  1.0000
  H   H5119     1.0  0.94323  0.46536  0.55395  1.0000
  H   H5120     1.0  0.95501  0.62787  0.42031  1.0000
  C   C3220     1.0  0.95142  0.46955  0.56890  1.0000
  N   N321      1.0  0.94324  0.46289  0.57111  1.0000
  C   C3221     1.0  0.98287  0.61936  0.49625  1.0000
  C   C3222     1.0  0.97978  0.37961  0.51338  1.0000
  C   C3223     1.0  0.89080  0.55778  0.65272  1.0000
  Fe  Fe646     1.0  0.98616  0.41340  0.52660  1.0000
  H   H5121     1.0  0.98318  0.32416  0.55187  1.0000
  C   C3224     1.0  0.88418  0.49462  0.32212  1.0000
  C   C3225     1.0  0.86683  0.49250  0.62800  1.0000
  C   C3226     1.0  0.94997  0.61167  0.41480  1.0000
  H   H5122     1.0  0.93464  0.53493  0.35448  1.0000
  Fe  Fe647     1.0  0.98320  0.56414  0.36942  1.0000
  S   S1298     1.0  0.97600  0.46240  0.60188  1.0000
  H   H5123     1.0  0.97070  0.47492  0.32138  1.0000
  C   C3227     1.0  0.98100  0.50788  0.37748  1.0000
  C   C3228     1.0  0.92417  0.33287  0.53734  1.0000
  H   H5124     1.0  0.94489  0.33442  0.43914  1.0000
  H   H5125     1.0  0.93517  0.48979  0.62231  1.0000
  Fe  Fe648     1.0  0.96695  0.55224  0.38675  1.0000
  Fe  Fe649     1.0  0.97430  0.47333  0.58531  1.0000
  C   C3229     1.0  0.86585  0.56765  0.38528  1.0000
  H   H5126     1.0  0.95555  0.53321  0.36954  1.0000
  S   S1299     1.0  0.97086  0.54119  0.33281  1.0000
  C   C3230     1.0  0.90261  0.62940  0.46330  1.0000
  H   H5127     1.0  0.94074  0.52206  0.35034  1.0000
  H   H5128     1.0  0.94711  0.53366  0.34421  1.0000
  H   H5129     1.0  0.89821  0.43256  0.50785  1.0000
  H   H5130     1.0  0.91287  0.35053  0.51658  1.0000
  H   H5131     1.0  0.95833  0.51100  0.35537  1.0000
  H   H5132     1.0  0.92036  0.60488  0.46633  1.0000
  H   H5133     1.0  0.98512  0.52024  0.33827  1.0000
  H   H5134     1.0  0.87223  0.44723  0.64226  1.0000
  H   H5135     1.0  0.96832  0.34950  0.49117  1.0000
  C   C3231     1.0  0.94256  0.52925  0.35205  1.0000
  H   H5136     1.0  0.94760  0.47848  0.56802  1.0000
  H   H5137     1.0  0.95599  0.61120  0.40686  1.0000
  H   H5138     1.0  0.91499  0.59820  0.45293  1.0000
  H   H5139     1.0  0.93234  0.63511  0.40567  1.0000
  H   H5140     1.0  0.86270  0.48281  0.64963  1.0000
  C   C3232     1.0  0.87936  0.55627  0.63791  1.0000
  S   S1300     1.0  0.98105  0.59329  0.58740  1.0000
  C   C3233     1.0  0.87837  0.35989  0.45862  1.0000
  H   H5141     1.0  0.97393  0.44905  0.58592  1.0000
  C   C3234     1.0  0.97986  0.45244  0.32596  1.0000
  H   H5142     1.0  0.88036  0.36108  0.44948  1.0000
  H   H5143     1.0  0.93118  0.46171  0.56340  1.0000
  H   H5144     1.0  0.93473  0.52473  0.37413  1.0000
  Fe  Fe650     1.0  0.88877  0.61692  0.43981  1.0000
  S   S1301     1.0  0.96325  0.63016  0.52889  1.0000
  H   H5145     1.0  0.95175  0.53445  0.59357  1.0000
  H   H5146     1.0  0.97304  0.44845  0.32899  1.0000
  H   H5147     1.0  0.98068  0.32862  0.56439  1.0000
  H   H5148     1.0  0.93939  0.46226  0.58854  1.0000
  H   H5149     1.0  0.91703  0.61899  0.47616  1.0000
  H   H5150     1.0  0.91927  0.48856  0.60335  1.0000
  C   C3235     1.0  0.97842  0.43363  0.56688  1.0000
  H   H5151     1.0  0.98530  0.61145  0.54297  1.0000
  H   H5152     1.0  0.94681  0.45329  0.64727  1.0000
  S   S1302     1.0  0.96130  0.58306  0.61691  1.0000
  H   H5153     1.0  0.89746  0.34716  0.45100  1.0000
  C   C3236     1.0  0.93532  0.46445  0.58150  1.0000
  C   C3237     1.0  0.92841  0.47822  0.37596  1.0000
  H   H5154     1.0  0.97672  0.59284  0.43340  1.0000
  C   C3238     1.0  0.89789  0.35794  0.39987  1.0000
  H   H5155     1.0  0.91861  0.54624  0.32188  1.0000
  C   C3239     1.0  0.98053  0.54413  0.33795  1.0000
  H   H5156     1.0  0.91757  0.51786  0.33879  1.0000
  H   H5157     1.0  0.91843  0.32723  0.54004  1.0000
  C   C3240     1.0  0.97048  0.50750  0.38378  1.0000
  N   N322      1.0  0.88311  0.34854  0.46397  1.0000
  H   H5158     1.0  0.98646  0.33902  0.46681  1.0000
  H   H5159     1.0  0.98266  0.43954  0.54929  1.0000
  C   C3241     1.0  0.88681  0.56229  0.32883  1.0000
  H   H5160     1.0  0.92678  0.57498  0.64126  1.0000
  H   H5161     1.0  0.90133  0.43416  0.62615  1.0000
  H   H5162     1.0  0.96451  0.45613  0.63564  1.0000
  H   H5163     1.0  0.90380  0.55998  0.63849  1.0000
  C   C3242     1.0  0.97596  0.43639  0.57719  1.0000
  S   S1303     1.0  0.91115  0.64512  0.41837  1.0000
  C   C3243     1.0  0.97536  0.35214  0.54475  1.0000
  H   H5164     1.0  0.87765  0.50463  0.63292  1.0000
  N   N323      1.0  0.91938  0.34379  0.53118  1.0000
  Fe  Fe651     1.0  0.97487  0.55579  0.60666  1.0000
  H   H5165     1.0  0.89861  0.35210  0.46226  1.0000
  C   C3244     1.0  0.97235  0.35268  0.44117  1.0000
  C   C3245     1.0  0.92383  0.46037  0.38235  1.0000
  C   C3246     1.0  0.95374  0.58843  0.33085  1.0000
  H   H5166     1.0  0.94603  0.63908  0.41329  1.0000
  H   H5167     1.0  0.92934  0.45918  0.58363  1.0000
  H   H5168     1.0  0.86464  0.56928  0.39361  1.0000
  S   S1304     1.0  0.95664  0.51196  0.59167  1.0000
  C   C3247     1.0  0.88028  0.34737  0.47607  1.0000
  H   H5169     1.0  0.92974  0.61762  0.42664  1.0000
  H   H5170     1.0  0.87484  0.44780  0.49472  1.0000
  H   H5171     1.0  0.88967  0.37549  0.40920  1.0000
  N   N324      1.0  0.95611  0.46345  0.64960  1.0000
  H   H5172     1.0  0.95472  0.54066  0.35566  1.0000
  H   H5173     1.0  0.96416  0.52292  0.34938  1.0000
  C   C3248     1.0  0.87697  0.43215  0.51318  1.0000
  H   H5174     1.0  0.88379  0.33891  0.48036  1.0000
  H   H5175     1.0  0.88347  0.35325  0.47852  1.0000
  H   H5176     1.0  0.97936  0.57472  0.33356  1.0000
  H   H5177     1.0  0.87469  0.57092  0.36358  1.0000
  H   H5178     1.0  0.86969  0.59302  0.37055  1.0000
  H   H5179     1.0  0.96443  0.51588  0.36339  1.0000
  H   H5180     1.0  0.93500  0.48289  0.37299  1.0000
  Fe  Fe652     1.0  0.96464  0.49397  0.59466  1.0000
  H   H5181     1.0  0.87932  0.37518  0.38548  1.0000
  H   H5182     1.0  0.88860  0.63435  0.48120  1.0000
  H   H5183     1.0  0.86089  0.57005  0.36575  1.0000
  C   C3249     1.0  0.86612  0.57541  0.36595  1.0000
  H   H5184     1.0  0.86485  0.58299  0.35937  1.0000
  H   H5185     1.0  0.93942  0.62019  0.43252  1.0000
  S   S1305     1.0  0.96544  0.48490  0.61197  1.0000
  H   H5186     1.0  0.87968  0.58098  0.37455  1.0000
  C   C3250     1.0  0.87098  0.58511  0.37671  1.0000
  H   H5187     1.0  0.93466  0.46536  0.36121  1.0000
  N   N325      1.0  0.94880  0.52572  0.36082  1.0000
  C   C3251     1.0  0.95977  0.53068  0.59514  1.0000
  C   C3252     1.0  0.97607  0.53189  0.59972  1.0000
  H   H5188     1.0  0.85055  0.59167  0.37365  1.0000
  C   C3253     1.0  0.85234  0.58381  0.37979  1.0000
  N   N326      1.0  0.86382  0.57799  0.37693  1.0000
  S   S1306     1.0  0.96336  0.55615  0.62300  1.0000
  H   H5189     1.0  0.91440  0.52553  0.64180  1.0000
  H   H5190     1.0  0.94267  0.54090  0.36645  1.0000
  H   H5191     1.0  0.96235  0.54545  0.59774  1.0000
  H   H5192     1.0  0.86044  0.56215  0.38589  1.0000
  C   C3254     1.0  0.93548  0.49651  0.61475  1.0000
  H   H5193     1.0  0.94034  0.59249  0.50157  1.0000
  H   H5194     1.0  0.94882  0.61126  0.48301  1.0000
  H   H5195     1.0  0.93494  0.64236  0.53169  1.0000
  H   H5196     1.0  0.94341  0.49428  0.60908  1.0000
  C   C3255     1.0  0.98392  0.45543  0.33341  1.0000
  H   H5197     1.0  0.87438  0.56294  0.38323  1.0000
  H   H5198     1.0  0.98203  0.48833  0.62465  1.0000
  C   C3256     1.0  0.87228  0.34232  0.54366  1.0000
  S   S1307     1.0  0.88143  0.45296  0.61935  1.0000
  Fe  Fe653     1.0  0.95936  0.64630  0.51716  1.0000
  H   H5199     1.0  0.97321  0.37761  0.54883  1.0000
  H   H5200     1.0  0.85849  0.49589  0.63239  1.0000
  H   H5201     1.0  0.88771  0.48595  0.32129  1.0000
  H   H5202     1.0  0.90867  0.40527  0.64136  1.0000
  C   C3257     1.0  0.95978  0.57576  0.65177  1.0000
  H   H5203     1.0  0.90181  0.54044  0.33416  1.0000
  S   S1308     1.0  0.91145  0.61645  0.41362  1.0000
  H   H5204     1.0  0.88067  0.49520  0.64540  1.0000
  C   C3258     1.0  0.97700  0.36951  0.54717  1.0000
  C   C3259     1.0  0.87877  0.34060  0.46107  1.0000
  H   H5205     1.0  0.90421  0.37724  0.39245  1.0000
  S   S1309     1.0  0.88696  0.62904  0.42377  1.0000
  H   H5206     1.0  0.87914  0.43682  0.51800  1.0000
  H   H5207     1.0  0.92684  0.45128  0.38354  1.0000
  S   S1310     1.0  0.97744  0.57946  0.37638  1.0000
  H   H5208     1.0  0.89830  0.62225  0.48583  1.0000
  H   H5209     1.0  0.86685  0.50136  0.64452  1.0000
  C   C3260     1.0  0.97245  0.58194  0.33255  1.0000
  C   C3261     1.0  0.88433  0.36717  0.38902  1.0000
  H   H5210     1.0  0.88921  0.36317  0.38207  1.0000
  H   H5211     1.0  0.91826  0.46283  0.37658  1.0000
  H   H5212     1.0  0.89410  0.38424  0.38460  1.0000
  H   H5213     1.0  0.97434  0.37730  0.50959  1.0000
  C   C3262     1.0  0.93349  0.50698  0.64396  1.0000
  H   H5214     1.0  0.87866  0.36185  0.39438  1.0000
  H   H5215     1.0  0.90315  0.35366  0.39324  1.0000
  H   H5216     1.0  0.96176  0.47605  0.65284  1.0000
  C   C3263     1.0  0.98487  0.48106  0.63056  1.0000
  H   H5217     1.0  0.92307  0.48085  0.38354  1.0000
  Fe  Fe654     1.0  0.95593  0.61555  0.45776  1.0000
  H   H5218     1.0  0.93258  0.62110  0.40611  1.0000
  N   N327      1.0  0.93287  0.46620  0.37804  1.0000
  N   N328      1.0  0.89139  0.36875  0.39532  1.0000
  C   C3264     1.0  0.97054  0.36262  0.54696  1.0000
  H   H5219     1.0  0.89889  0.33783  0.46386  1.0000
  H   H5220     1.0  0.94311  0.45412  0.36885  1.0000
  H   H5221     1.0  0.89260  0.35237  0.40559  1.0000
  C   C3265     1.0  0.93952  0.46312  0.36763  1.0000
  H   H5222     1.0  0.92351  0.48086  0.36953  1.0000
  H   H5223     1.0  0.90329  0.35883  0.40469  1.0000
  N   N329      1.0  0.98695  0.52765  0.63511  1.0000
  C   C3266     1.0  0.87089  0.47976  0.64471  1.0000
  H   H5224     1.0  0.94328  0.45410  0.38798  1.0000
  C   C3267     1.0  0.93538  0.62309  0.42540  1.0000
  C   C3268     1.0  0.98062  0.52698  0.41053  1.0000
  C   C3269     1.0  0.93976  0.46312  0.38620  1.0000
  H   H5225     1.0  0.94674  0.46729  0.38314  1.0000
  H   H5226     1.0  0.94634  0.46746  0.36419  1.0000
  H   H5227     1.0  0.91175  0.64149  0.54495  1.0000
  H   H5228     1.0  0.87952  0.38222  0.40137  1.0000
  H   H5229     1.0  0.96175  0.54006  0.41808  1.0000
  C   C3270     1.0  0.90610  0.52993  0.64533  1.0000
  H   H5230     1.0  0.95508  0.59336  0.50949  1.0000
  C   C3271     1.0  0.93775  0.62677  0.40560  1.0000
  H   H5231     1.0  0.93062  0.47314  0.58086  1.0000
  S   S1311     1.0  0.97680  0.61484  0.41922  1.0000
  H   H5232     1.0  0.87907  0.36879  0.41037  1.0000
  S   S1312     1.0  0.95680  0.62803  0.44189  1.0000
  C   C3272     1.0  0.96571  0.53686  0.59759  1.0000
  C   C3273     1.0  0.96920  0.54318  0.41681  1.0000
  H   H5233     1.0  0.92552  0.64488  0.51047  1.0000
  H   H5234     1.0  0.94363  0.64196  0.47388  1.0000
  C   C3274     1.0  0.87978  0.44959  0.64139  1.0000
  H   H5235     1.0  0.90050  0.45884  0.62174  1.0000
  Fe  Fe655     1.0  0.90401  0.63009  0.42271  1.0000
  H   H5236     1.0  0.97339  0.36879  0.44191  1.0000
  H   H5237     1.0  0.92111  0.50780  0.59468  1.0000
  C   C3275     1.0  0.97807  0.58223  0.42259  1.0000
  H   H5238     1.0  0.94134  0.64178  0.48823  1.0000
  C   C3276     1.0  0.97976  0.52433  0.63023  1.0000
  H   H5239     1.0  0.95582  0.46710  0.57573  1.0000
  C   C3277     1.0  0.88330  0.44402  0.49583  1.0000
  H   H5240     1.0  0.91354  0.58642  0.62378  1.0000
  H   H5241     1.0  0.97456  0.58623  0.55680  1.0000
  S   S1313     1.0  0.96281  0.62455  0.46567  1.0000
  H   H5242     1.0  0.88682  0.42588  0.48784  1.0000
  C   C3278     1.0  0.98169  0.48097  0.64194  1.0000
  Fe  Fe656     1.0  0.97210  0.56781  0.62482  1.0000
  H   H5243     1.0  0.97871  0.60843  0.39915  1.0000
  C   C3279     1.0  0.89958  0.58537  0.64355  1.0000
  H   H5244     1.0  0.95794  0.60215  0.58719  1.0000
  C   C3280     1.0  0.91598  0.50219  0.61687  1.0000
  H   H5245     1.0  0.93562  0.50351  0.59322  1.0000
  H   H5246     1.0  0.88203  0.33197  0.46516  1.0000
  H   H5247     1.0  0.89652  0.41927  0.50828  1.0000
  C   C3281     1.0  0.89573  0.45605  0.62982  1.0000
  H   H5248     1.0  0.97775  0.50594  0.59716  1.0000
  H   H5249     1.0  0.97963  0.59057  0.39494  1.0000
  H   H5250     1.0  0.87756  0.42355  0.51817  1.0000
  H   H5251     1.0  0.87284  0.42913  0.49506  1.0000
  S   S1314     1.0  0.96647  0.56265  0.36984  1.0000
  S   S1315     1.0  0.95681  0.63526  0.55712  1.0000
  C   C3282     1.0  0.89506  0.34633  0.46010  1.0000
  H   H5252     1.0  0.91241  0.51519  0.32309  1.0000
  C   C3283     1.0  0.95743  0.61680  0.57402  1.0000
  C   C3284     1.0  0.97437  0.51454  0.59725  1.0000
  Fe  Fe657     1.0  0.97297  0.58066  0.60077  1.0000
  H   H5253     1.0  0.86832  0.43563  0.51263  1.0000
  H   H5254     1.0  0.89684  0.58131  0.65233  1.0000
  C   C3285     1.0  0.93768  0.64525  0.48087  1.0000
  C   C3286     1.0  0.96350  0.62364  0.56561  1.0000
  H   H5255     1.0  0.95707  0.63030  0.40571  1.0000
  C   C3287     1.0  0.88714  0.65509  0.52493  1.0000
  H   H5256     1.0  0.93024  0.64202  0.48256  1.0000
  S   S1316     1.0  0.97867  0.42006  0.56649  1.0000
  S   S1317     1.0  0.93636  0.46443  0.32853  1.0000
  H   H5257     1.0  0.94540  0.44261  0.32398  1.0000
  H   H5258     1.0  0.92488  0.48125  0.61527  1.0000
  H   H5259     1.0  0.97954  0.62654  0.55786  1.0000
  H   H5260     1.0  0.97085  0.58582  0.33969  1.0000
  H   H5261     1.0  0.86616  0.55425  0.65210  1.0000
  C   C3288     1.0  0.89933  0.45546  0.63929  1.0000
  H   H5262     1.0  0.92231  0.62952  0.46539  1.0000
  H   H5263     1.0  0.97056  0.54830  0.40833  1.0000
  S   S1318     1.0  0.89805  0.64703  0.50626  1.0000
  C   C3289     1.0  0.96797  0.56616  0.65266  1.0000
  H   H5264     1.0  0.97403  0.53950  0.64260  1.0000
  H   H5265     1.0  0.93929  0.52103  0.64392  1.0000
  C   C3290     1.0  0.87028  0.48934  0.33789  1.0000
  Fe  Fe658     1.0  0.97242  0.33298  0.53277  1.0000
  H   H5266     1.0  0.88888  0.49066  0.62274  1.0000
  H   H5267     1.0  0.96034  0.59570  0.47491  1.0000
  C   C3291     1.0  0.98048  0.53215  0.64486  1.0000
  C   C3292     1.0  0.97849  0.45493  0.56833  1.0000
  H   H5268     1.0  0.96203  0.32621  0.56924  1.0000
  H   H5269     1.0  0.94106  0.46777  0.64424  1.0000
  C   C3293     1.0  0.89623  0.56633  0.32359  1.0000
  C   C3294     1.0  0.89766  0.32985  0.43040  1.0000
  H   H5270     1.0  0.95890  0.58080  0.64372  1.0000
  H   H5271     1.0  0.91471  0.49621  0.62494  1.0000
  H   H5272     1.0  0.87426  0.49127  0.34349  1.0000
  C   C3295     1.0  0.89337  0.45145  0.64978  1.0000
  C   C3296     1.0  0.92736  0.35087  0.52759  1.0000
  H   H5273     1.0  0.90565  0.35723  0.53398  1.0000
  C   C3297     1.0  0.95409  0.47412  0.65268  1.0000
  H   H5274     1.0  0.97729  0.62278  0.48112  1.0000
  H   H5275     1.0  0.97681  0.60648  0.53768  1.0000
  C   C3298     1.0  0.97930  0.54181  0.34939  1.0000
  C   C3299     1.0  0.98391  0.44184  0.40041  1.0000
  H   H5276     1.0  0.92347  0.42593  0.64157  1.0000
  S   S1319     1.0  0.98173  0.48619  0.58727  1.0000
  H   H5277     1.0  0.91594  0.51011  0.61866  1.0000
  S   S1320     1.0  0.97196  0.34012  0.51498  1.0000
  H   H5278     1.0  0.98228  0.53298  0.37994  1.0000
  C   C3300     1.0  0.91615  0.62808  0.47325  1.0000
  C   C3301     1.0  0.89556  0.55888  0.64148  1.0000
  N   N330      1.0  0.92633  0.49814  0.60949  1.0000
  C   C3302     1.0  0.97759  0.36028  0.44229  1.0000
  H   H5279     1.0  0.90009  0.56930  0.32822  1.0000
  Fe  Fe659     1.0  0.97660  0.56779  0.39303  1.0000
  Fe  Fe660     1.0  0.97326  0.61746  0.43664  1.0000
  C   C3303     1.0  0.96512  0.57333  0.32269  1.0000
  C   C3304     1.0  0.97733  0.59240  0.42503  1.0000
  Fe  Fe661     1.0  0.98331  0.40702  0.44068  1.0000
  H   H5280     1.0  0.90890  0.50360  0.61311  1.0000
  C   C3305     1.0  0.97313  0.44152  0.40130  1.0000
  H   H5281     1.0  0.89487  0.42891  0.64010  1.0000
  H   H5282     1.0  0.96411  0.35538  0.43992  1.0000
  H   H5283     1.0  0.86650  0.33815  0.54997  1.0000
  H   H5284     1.0  0.90941  0.59975  0.62717  1.0000
  H   H5285     1.0  0.95229  0.56772  0.34233  1.0000
  H   H5286     1.0  0.96734  0.58386  0.48329  1.0000
  C   C3306     1.0  0.98668  0.34851  0.54281  1.0000
  C   C3307     1.0  0.91927  0.33010  0.41963  1.0000
  S   S1321     1.0  0.88743  0.46315  0.32627  1.0000
  C   C3308     1.0  0.98000  0.61207  0.57116  1.0000
  H   H5287     1.0  0.90965  0.64774  0.45983  1.0000
  C   C3309     1.0  0.97764  0.60188  0.41658  1.0000
  H   H5288     1.0  0.96611  0.56338  0.34389  1.0000
  H   H5289     1.0  0.97729  0.37686  0.52251  1.0000
  C   C3310     1.0  0.97402  0.42687  0.41789  1.0000
  S   S1322     1.0  0.97660  0.39522  0.43609  1.0000
  H   H5290     1.0  0.95181  0.59270  0.33777  1.0000
  H   H5291     1.0  0.97805  0.57491  0.42914  1.0000
  C   C3311     1.0  0.98520  0.51712  0.37613  1.0000
  C   C3312     1.0  0.97889  0.58150  0.41174  1.0000
  H   H5292     1.0  0.97336  0.53146  0.62743  1.0000
  C   C3313     1.0  0.92603  0.48757  0.60743  1.0000
  H   H5293     1.0  0.92034  0.42644  0.61878  1.0000
  N   N331      1.0  0.94344  0.62299  0.41481  1.0000
  Fe  Fe662     1.0  0.97690  0.39762  0.46540  1.0000
  H   H5294     1.0  0.87657  0.47652  0.65045  1.0000
  S   S1323     1.0  0.97049  0.33212  0.44127  1.0000
  H   H5295     1.0  0.91828  0.63101  0.47951  1.0000
  C   C3314     1.0  0.95942  0.57072  0.34247  1.0000
  C   C3315     1.0  0.92784  0.50630  0.59893  1.0000
  N   N332      1.0  0.91112  0.58603  0.64102  1.0000
  H   H5296     1.0  0.93770  0.65050  0.53932  1.0000
  C   C3316     1.0  0.97805  0.40619  0.48869  1.0000
  H   H5297     1.0  0.93263  0.50989  0.63549  1.0000
  H   H5298     1.0  0.96405  0.58234  0.50333  1.0000
  H   H5299     1.0  0.98381  0.52058  0.43124  1.0000
  H   H5300     1.0  0.93173  0.32885  0.53216  1.0000
  H   H5301     1.0  0.95012  0.48101  0.64673  1.0000
  C   C3317     1.0  0.90314  0.53446  0.32892  1.0000
  C   C3318     1.0  0.91126  0.41134  0.64414  1.0000
  C   C3319     1.0  0.93153  0.64630  0.53890  1.0000
  H   H5302     1.0  0.97091  0.46574  0.63775  1.0000
  H   H5303     1.0  0.91734  0.32891  0.44447  1.0000
  H   H5304     1.0  0.94547  0.61004  0.49749  1.0000
  H   H5305     1.0  0.95883  0.47059  0.63231  1.0000
  H   H5306     1.0  0.98524  0.50706  0.33620  1.0000
  H   H5307     1.0  0.90528  0.41310  0.65181  1.0000
  C   C3320     1.0  0.94223  0.32914  0.44738  1.0000
  C   C3321     1.0  0.93721  0.51331  0.64875  1.0000
  C   C3322     1.0  0.97891  0.52597  0.38094  1.0000
  H   H5308     1.0  0.97103  0.59688  0.48039  1.0000
  S   S1324     1.0  0.97638  0.64564  0.50757  1.0000
  C   C3323     1.0  0.92393  0.33256  0.44486  1.0000
  C   C3324     1.0  0.91528  0.42935  0.63961  1.0000
  C   C3325     1.0  0.91799  0.57482  0.64333  1.0000
  H   H5309     1.0  0.89816  0.42088  0.62983  1.0000
  H   H5310     1.0  0.96561  0.32740  0.48976  1.0000
  H   H5311     1.0  0.92311  0.59185  0.62701  1.0000
  H   H5312     1.0  0.97561  0.51794  0.63622  1.0000
  C   C3326     1.0  0.92059  0.52526  0.33353  1.0000
  H   H5313     1.0  0.89414  0.59368  0.64200  1.0000
  S   S1325     1.0  0.94587  0.65037  0.50834  1.0000
  H   H5314     1.0  0.87448  0.55549  0.32670  1.0000
  C   C3327     1.0  0.96505  0.34108  0.46990  1.0000
  H   H5315     1.0  0.98337  0.54513  0.36294  1.0000
  C   C3328     1.0  0.97675  0.52753  0.42978  1.0000
  H   H5316     1.0  0.95585  0.59449  0.32304  1.0000
  C   C3329     1.0  0.98062  0.60494  0.54481  1.0000
  H   H5317     1.0  0.98603  0.54359  0.62415  1.0000
  H   H5318     1.0  0.97819  0.38875  0.51147  1.0000
  H   H5319     1.0  0.97396  0.60616  0.55218  1.0000
  H   H5320     1.0  0.97173  0.56582  0.32343  1.0000
  C   C3330     1.0  0.87435  0.55562  0.64912  1.0000
  H   H5321     1.0  0.90507  0.65382  0.53680  1.0000
  H   H5322     1.0  0.95561  0.49687  0.32161  1.0000
  C   C3331     1.0  0.87496  0.49784  0.63975  1.0000
  H   H5323     1.0  0.98440  0.52090  0.62284  1.0000
  H   H5324     1.0  0.97706  0.58646  0.54235  1.0000
  N   N333      1.0  0.98770  0.59378  0.54663  1.0000
  H   H5325     1.0  0.90948  0.43142  0.64726  1.0000
  C   C3332     1.0  0.93062  0.49711  0.65025  1.0000
  H   H5326     1.0  0.97340  0.52351  0.41171  1.0000
  C   C3333     1.0  0.98696  0.41566  0.50028  1.0000
  C   C3334     1.0  0.96293  0.46398  0.63833  1.0000
  H   H5327     1.0  0.98199  0.65307  0.44043  1.0000
  H   H5328     1.0  0.97529  0.53268  0.43587  1.0000
  H   H5329     1.0  0.97648  0.52592  0.65130  1.0000
  H   H5330     1.0  0.91928  0.40733  0.64637  1.0000
  H   H5331     1.0  0.90704  0.53677  0.64837  1.0000
  H   H5332     1.0  0.90750  0.60119  0.64640  1.0000
  C   C3335     1.0  0.91252  0.59266  0.64796  1.0000
  H   H5333     1.0  0.98402  0.48417  0.32326  1.0000
  H   H5334     1.0  0.88459  0.53262  0.65169  1.0000
  C   C3336     1.0  0.88358  0.44857  0.65080  1.0000
  H   H5335     1.0  0.95788  0.57072  0.32223  1.0000
  H   H5336     1.0  0.98774  0.51997  0.41145  1.0000
  H   H5337     1.0  0.94958  0.32288  0.44938  1.0000
  H   H5338     1.0  0.88661  0.65588  0.45178  1.0000
  Fe  Fe663     1.0  0.80305  0.56665  0.94736  1.0000
  S   S1326     1.0  0.81529  0.57717  0.93924  1.0000
  S   S1327     1.0  0.78503  0.57329  0.95219  1.0000
  Fe  Fe664     1.0  0.82030  0.54601  0.95183  1.0000
  S   S1328     1.0  0.83426  0.55451  0.94438  1.0000
  S   S1329     1.0  0.82196  0.52796  0.95917  1.0000
  Fe  Fe665     1.0  0.82358  0.56775  0.95313  1.0000
  S   S1330     1.0  0.82870  0.57785  0.96152  1.0000
  Fe  Fe666     1.0  0.82500  0.56322  0.93103  1.0000
  S   S1331     1.0  0.83245  0.56634  0.91278  1.0000
  S   S1332     1.0  0.81059  0.55834  0.96196  1.0000
  S   S1333     1.0  0.81187  0.55357  0.93778  1.0000
  Fe  Fe667     1.0  0.78535  0.50196  0.94549  1.0000
  S   S1334     1.0  0.80242  0.49222  0.94199  1.0000
  S   S1335     1.0  0.78036  0.51579  0.95447  1.0000
  Fe  Fe668     1.0  0.77760  0.49098  0.93195  1.0000
  H   H5339     1.0  0.81682  0.44517  0.96597  1.0000
  S   S1336     1.0  0.76294  0.49434  0.92459  1.0000
  H   H5340     1.0  0.90882  0.56368  0.83243  1.0000
  Fe  Fe669     1.0  0.80080  0.49537  0.92455  1.0000
  S   S1337     1.0  0.81425  0.50253  0.91169  1.0000
  H   H5341     1.0  0.93490  0.55009  0.81642  1.0000
  S   S1338     1.0  0.78418  0.50622  0.92786  1.0000
  S   S1339     1.0  0.98031  0.47029  0.66400  1.0000
  H   H5342     1.0  0.98359  0.50718  0.72218  1.0000
  S   S1340     1.0  0.95869  0.58036  0.73102  1.0000
  H   H5343     1.0  0.91242  0.48452  0.71252  1.0000
  H   H5344     1.0  0.90913  0.54342  0.81679  1.0000
  H   H5345     1.0  0.93154  0.49353  0.82742  1.0000
  C   C3337     1.0  0.98072  0.53528  0.68738  1.0000
  N   N334      1.0  0.91774  0.55153  0.82289  1.0000
  H   H5346     1.0  0.82195  0.57799  0.98460  1.0000
  Fe  Fe670     1.0  0.95937  0.49405  0.85931  1.0000
  S   S1341     1.0  0.97694  0.55332  0.80388  1.0000
  H   H5347     1.0  0.76199  0.57545  0.95722  1.0000
  S   S1342     1.0  0.75452  0.56152  0.92897  1.0000
  H   H5348     1.0  0.86210  0.46043  0.84734  1.0000
  H   H5349     1.0  0.85941  0.46816  0.85776  1.0000
  S   S1343     1.0  0.93202  0.58322  0.80394  1.0000
  S   S1344     1.0  0.93509  0.54314  0.73190  1.0000
  H   H5350     1.0  0.74245  0.49921  0.91882  1.0000
  Fe  Fe671     1.0  0.89300  0.55124  0.67976  1.0000
  S   S1345     1.0  0.89422  0.53314  0.68657  1.0000
  H   H5351     1.0  0.95691  0.45413  0.66607  1.0000
  Fe  Fe672     1.0  0.88639  0.55646  0.70260  1.0000
  S   S1346     1.0  0.88693  0.53885  0.71149  1.0000
  S   S1347     1.0  0.88193  0.57126  0.71002  1.0000
  Fe  Fe673     1.0  0.90222  0.53534  0.69872  1.0000
  S   S1348     1.0  0.91772  0.52396  0.70219  1.0000
  Fe  Fe674     1.0  0.87881  0.53831  0.69859  1.0000
  S   S1349     1.0  0.86482  0.53010  0.70290  1.0000
  S   S1350     1.0  0.90243  0.55300  0.69094  1.0000
  S   S1351     1.0  0.87681  0.55632  0.69072  1.0000
  C   C3338     1.0  0.96232  0.53878  0.92598  1.0000
  S   S1352     1.0  0.91737  0.46375  0.66808  1.0000
  H   H5352     1.0  0.93075  0.53870  0.66590  1.0000
  Fe  Fe675     1.0  0.89024  0.48565  0.67014  1.0000
  S   S1353     1.0  0.89151  0.46878  0.68113  1.0000
  S   S1354     1.0  0.87478  0.49861  0.67007  1.0000
  Fe  Fe676     1.0  0.90740  0.47107  0.68257  1.0000
  S   S1355     1.0  0.91384  0.46781  0.69788  1.0000
  Fe  Fe677     1.0  0.90130  0.46297  0.66574  1.0000
  H   H5353     1.0  0.77168  0.52674  0.97381  1.0000
  S   S1356     1.0  0.90531  0.48845  0.67272  1.0000
  H   H5354     1.0  0.90733  0.52459  0.66630  1.0000
  Fe  Fe678     1.0  0.88962  0.47190  0.77516  1.0000
  S   S1357     1.0  0.89702  0.48660  0.76716  1.0000
  S   S1358     1.0  0.89001  0.46410  0.79310  1.0000
  Fe  Fe679     1.0  0.88558  0.47080  0.75351  1.0000
  S   S1359     1.0  0.89255  0.48550  0.74390  1.0000
  S   S1360     1.0  0.87967  0.46326  0.74326  1.0000
  Fe  Fe680     1.0  0.90553  0.47788  0.75348  1.0000
  S   S1361     1.0  0.92274  0.47921  0.74575  1.0000
  Fe  Fe681     1.0  0.88322  0.49282  0.75837  1.0000
  S   S1362     1.0  0.87513  0.51078  0.75522  1.0000
  S   S1363     1.0  0.89940  0.46249  0.76202  1.0000
  S   S1364     1.0  0.87502  0.47881  0.76740  1.0000
  Fe  Fe682     1.0  0.90501  0.56004  0.77657  1.0000
  S   S1365     1.0  0.88890  0.57163  0.78034  1.0000
  S   S1366     1.0  0.92066  0.56536  0.76921  1.0000
  Fe  Fe683     1.0  0.89561  0.53997  0.78339  1.0000
  S   S1367     1.0  0.87867  0.54969  0.78771  1.0000
  S   S1368     1.0  0.89760  0.52174  0.78630  1.0000
  Fe  Fe684     1.0  0.88340  0.56169  0.77204  1.0000
  S   S1369     1.0  0.87163  0.56989  0.76099  1.0000
  Fe  Fe685     1.0  0.88581  0.55850  0.79568  1.0000
  S   S1370     1.0  0.87755  0.55977  0.81322  1.0000
  S   S1371     1.0  0.89986  0.55125  0.76695  1.0000
  S   S1372     1.0  0.90249  0.54769  0.79257  1.0000
  Fe  Fe686     1.0  0.95900  0.56958  0.71991  1.0000
  S   S1373     1.0  0.96417  0.54323  0.89042  1.0000
  H   H5355     1.0  0.90670  0.53825  0.71730  1.0000
  Fe  Fe687     1.0  0.89127  0.57069  0.88017  1.0000
  S   S1374     1.0  0.88741  0.56409  0.86771  1.0000
  S   S1375     1.0  0.88117  0.57190  0.89724  1.0000
  Fe  Fe688     1.0  0.91424  0.57189  0.86710  1.0000
  S   S1376     1.0  0.91246  0.56524  0.85371  1.0000
  S   S1377     1.0  0.93017  0.57671  0.86390  1.0000
  Fe  Fe689     1.0  0.89605  0.57654  0.85508  1.0000
  S   S1378     1.0  0.89332  0.58598  0.83826  1.0000
  Fe  Fe690     1.0  0.90423  0.55345  0.86714  1.0000
  S   S1379     1.0  0.90936  0.53577  0.86616  1.0000
  S   S1380     1.0  0.89839  0.58427  0.86757  1.0000
  S   S1381     1.0  0.90747  0.55889  0.88058  1.0000
  Fe  Fe691     1.0  0.86567  0.48432  0.86898  1.0000
  S   S1382     1.0  0.86085  0.49897  0.85598  1.0000
  S   S1383     1.0  0.85222  0.47585  0.87992  1.0000
  Fe  Fe692     1.0  0.88980  0.48463  0.86035  1.0000
  S   S1384     1.0  0.88683  0.49916  0.84643  1.0000
  S   S1385     1.0  0.90679  0.47586  0.86271  1.0000
  Fe  Fe693     1.0  0.87310  0.50586  0.85922  1.0000
  S   S1386     1.0  0.86960  0.52398  0.85790  1.0000
  Fe  Fe694     1.0  0.87481  0.49110  0.84413  1.0000
  S   S1387     1.0  0.87021  0.49463  0.82772  1.0000
  S   S1388     1.0  0.87681  0.49197  0.87350  1.0000
  S   S1389     1.0  0.87896  0.47574  0.85689  1.0000
  C   C3339     1.0  0.89929  0.53227  0.86223  1.0000
  C   C3340     1.0  0.89178  0.54049  0.85694  1.0000
  C   C3341     1.0  0.88275  0.53789  0.85533  1.0000
  C   C3342     1.0  0.88143  0.52704  0.85874  1.0000
  C   C3343     1.0  0.88935  0.51870  0.86330  1.0000
  C   C3344     1.0  0.89822  0.52135  0.86518  1.0000
  H   H5356     1.0  0.89281  0.54888  0.85425  1.0000
  H   H5357     1.0  0.87667  0.54432  0.85171  1.0000
  H   H5358     1.0  0.88838  0.51028  0.86592  1.0000
  H   H5359     1.0  0.90396  0.51500  0.86938  1.0000
  C   C3345     1.0  0.95458  0.55298  0.88353  1.0000
  C   C3346     1.0  0.94355  0.55265  0.88708  1.0000
  C   C3347     1.0  0.93596  0.56007  0.88122  1.0000
  C   C3348     1.0  0.93938  0.56779  0.87178  1.0000
  C   C3349     1.0  0.95037  0.56829  0.86840  1.0000
  C   C3350     1.0  0.95795  0.56093  0.87429  1.0000
  H   H5360     1.0  0.94089  0.54662  0.89432  1.0000
  H   H5361     1.0  0.92746  0.55985  0.88408  1.0000
  H   H5362     1.0  0.95306  0.57434  0.86118  1.0000
  H   H5363     1.0  0.96639  0.56142  0.87161  1.0000
  C   C3351     1.0  0.93181  0.49529  0.86107  1.0000
  C   C3352     1.0  0.92183  0.50086  0.85817  1.0000
  C   C3353     1.0  0.91398  0.49503  0.85889  1.0000
  C   C3354     1.0  0.91604  0.48357  0.86258  1.0000
  C   C3355     1.0  0.92594  0.47802  0.86567  1.0000
  C   C3356     1.0  0.93377  0.48386  0.86499  1.0000
  H   H5364     1.0  0.92030  0.50970  0.85506  1.0000
  H   H5365     1.0  0.90643  0.49938  0.85639  1.0000
  H   H5366     1.0  0.92758  0.46916  0.86856  1.0000
  H   H5367     1.0  0.94137  0.47948  0.86737  1.0000
  C   C3357     1.0  0.88182  0.56741  0.81989  1.0000
  C   C3358     1.0  0.87942  0.56508  0.83144  1.0000
  C   C3359     1.0  0.88304  0.57065  0.83712  1.0000
  C   C3360     1.0  0.88873  0.57891  0.83126  1.0000
  C   C3361     1.0  0.89096  0.58141  0.81969  1.0000
  C   C3362     1.0  0.88767  0.57554  0.81399  1.0000
  H   H5368     1.0  0.87477  0.55890  0.83601  1.0000
  H   H5369     1.0  0.88115  0.56877  0.84603  1.0000
  H   H5370     1.0  0.89529  0.58786  0.81514  1.0000
  H   H5371     1.0  0.88948  0.57745  0.80506  1.0000
  C   C3363     1.0  0.88415  0.47239  0.80287  1.0000
  C   C3364     1.0  0.87735  0.48271  0.80020  1.0000
  C   C3365     1.0  0.87303  0.48938  0.80798  1.0000
  C   C3366     1.0  0.87558  0.48581  0.81842  1.0000
  C   C3367     1.0  0.88230  0.47543  0.82117  1.0000
  C   C3368     1.0  0.88651  0.46870  0.81341  1.0000
  H   H5372     1.0  0.87537  0.48549  0.79217  1.0000
  H   H5373     1.0  0.86781  0.49739  0.80581  1.0000
  H   H5374     1.0  0.88430  0.47261  0.82921  1.0000
  H   H5375     1.0  0.89173  0.46068  0.81551  1.0000
  C   C3369     1.0  0.87903  0.51518  0.76484  1.0000
  C   C3370     1.0  0.88251  0.52506  0.76193  1.0000
  C   C3371     1.0  0.88774  0.52734  0.76885  1.0000
  C   C3372     1.0  0.88972  0.51964  0.77849  1.0000
  C   C3373     1.0  0.88578  0.51002  0.78163  1.0000
  C   C3374     1.0  0.88027  0.50791  0.77488  1.0000
  H   H5376     1.0  0.88176  0.53065  0.75410  1.0000
  H   H5377     1.0  0.89064  0.53483  0.76642  1.0000
  H   H5378     1.0  0.88707  0.50415  0.78918  1.0000
  H   H5379     1.0  0.87732  0.50040  0.77723  1.0000
  C   C3375     1.0  0.90455  0.46510  0.71055  1.0000
  C   C3376     1.0  0.89393  0.46452  0.71102  1.0000
  C   C3377     1.0  0.88646  0.46314  0.72121  1.0000
  C   C3378     1.0  0.88950  0.46274  0.73090  1.0000
  C   C3379     1.0  0.90018  0.46305  0.73045  1.0000
  C   C3380     1.0  0.90773  0.46399  0.72034  1.0000
  H   H5380     1.0  0.89145  0.46516  0.70357  1.0000
  H   H5381     1.0  0.87828  0.46270  0.72151  1.0000
  H   H5382     1.0  0.90266  0.46252  0.73791  1.0000
  H   H5383     1.0  0.91601  0.46407  0.72012  1.0000
  C   C3381     1.0  0.86758  0.52116  0.69399  1.0000
  C   C3382     1.0  0.87752  0.51354  0.69260  1.0000
  C   C3383     1.0  0.87964  0.50630  0.68558  1.0000
  C   C3384     1.0  0.87196  0.50692  0.67964  1.0000
  C   C3385     1.0  0.86200  0.51451  0.68110  1.0000
  C   C3386     1.0  0.85974  0.52150  0.68839  1.0000
  H   H5384     1.0  0.88353  0.51310  0.69707  1.0000
  H   H5385     1.0  0.88722  0.50031  0.68474  1.0000
  H   H5386     1.0  0.85603  0.51503  0.67655  1.0000
  H   H5387     1.0  0.85203  0.52737  0.68946  1.0000
  C   C3387     1.0  0.87983  0.57029  0.72423  1.0000
  C   C3388     1.0  0.88454  0.56096  0.73136  1.0000
  C   C3389     1.0  0.88241  0.56077  0.74274  1.0000
  C   C3390     1.0  0.87535  0.56977  0.74689  1.0000
  C   C3391     1.0  0.87067  0.57894  0.73971  1.0000
  C   C3392     1.0  0.87304  0.57928  0.72843  1.0000
  H   H5388     1.0  0.88987  0.55402  0.72811  1.0000
  H   H5389     1.0  0.88598  0.55361  0.74830  1.0000
  H   H5390     1.0  0.86520  0.58589  0.74288  1.0000
  H   H5391     1.0  0.86940  0.58650  0.72295  1.0000
  H   H5392     1.0  0.75395  0.48643  0.96852  1.0000
  C   C3393     1.0  0.93582  0.49953  0.66585  1.0000
  C   C3394     1.0  0.92764  0.54297  0.67290  1.0000
  H   H5393     1.0  0.97895  0.53314  0.93642  1.0000
  H   H5394     1.0  0.97315  0.54769  0.93498  1.0000
  S   S1390     1.0  0.89874  0.55789  0.66163  1.0000
  H   H5395     1.0  0.93675  0.49660  0.67428  1.0000
  H   H5396     1.0  0.92952  0.48578  0.66609  1.0000
  H   H5397     1.0  0.79016  0.58514  0.98248  1.0000
  H   H5398     1.0  0.98244  0.49353  0.72276  1.0000
  C   C3395     1.0  0.93029  0.53798  0.72350  1.0000
  C   C3396     1.0  0.91914  0.54038  0.72385  1.0000
  C   C3397     1.0  0.91529  0.53622  0.71713  1.0000
  C   C3398     1.0  0.92253  0.52931  0.71042  1.0000
  C   C3399     1.0  0.93366  0.52681  0.71015  1.0000
  C   C3400     1.0  0.93756  0.53139  0.71649  1.0000
  H   H5399     1.0  0.93929  0.52150  0.70493  1.0000
  H   H5400     1.0  0.94618  0.52967  0.71609  1.0000
  C   C3401     1.0  0.92824  0.58014  0.79340  1.0000
  C   C3402     1.0  0.91766  0.57894  0.79474  1.0000
  C   C3403     1.0  0.91524  0.57450  0.78722  1.0000
  C   C3404     1.0  0.92332  0.57167  0.77817  1.0000
  C   C3405     1.0  0.93373  0.57347  0.77650  1.0000
  C   C3406     1.0  0.93621  0.57760  0.78419  1.0000
  H   H5401     1.0  0.91144  0.58107  0.80176  1.0000
  H   H5402     1.0  0.90717  0.57319  0.78851  1.0000
  H   H5403     1.0  0.93996  0.57142  0.76943  1.0000
  H   H5404     1.0  0.94435  0.57869  0.78306  1.0000
  C   C3407     1.0  0.93927  0.46913  0.77470  1.0000
  C   C3408     1.0  0.94379  0.47546  0.76468  1.0000
  C   C3409     1.0  0.93912  0.47794  0.75554  1.0000
  C   C3410     1.0  0.92968  0.47444  0.75653  1.0000
  C   C3411     1.0  0.92519  0.46804  0.76654  1.0000
  C   C3412     1.0  0.93011  0.46520  0.77557  1.0000
  H   H5405     1.0  0.95091  0.47844  0.76401  1.0000
  H   H5406     1.0  0.94264  0.48281  0.74780  1.0000
  H   H5407     1.0  0.91792  0.46527  0.76739  1.0000
  H   H5408     1.0  0.92661  0.46023  0.78327  1.0000
  H   H5409     1.0  0.88411  0.52297  0.66472  1.0000
  S   S1391     1.0  0.89883  0.44831  0.66149  1.0000
  H   H5410     1.0  0.97617  0.53215  0.80303  1.0000
  H   H5411     1.0  0.83132  0.51937  0.98004  1.0000
  H   H5412     1.0  0.95263  0.53777  0.77615  1.0000
  C   C3413     1.0  0.78847  0.57747  0.98169  1.0000
  C   C3414     1.0  0.74691  0.48587  0.96565  1.0000
  H   H5413     1.0  0.91715  0.60111  0.81976  1.0000
  H   H5414     1.0  0.93874  0.55775  0.75500  1.0000
  C   C3415     1.0  0.84050  0.46688  0.85462  1.0000
  H   H5415     1.0  0.88109  0.55017  0.89241  1.0000
  S   S1392     1.0  0.79426  0.48032  0.92717  1.0000
  H   H5416     1.0  0.87433  0.53778  0.83328  1.0000
  C   C3416     1.0  0.90901  0.58460  0.74846  1.0000
  H   H5417     1.0  0.86008  0.54391  0.82281  1.0000
  H   H5418     1.0  0.91597  0.56295  0.74884  1.0000
  H   H5419     1.0  0.92001  0.53438  0.83099  1.0000
  H   H5420     1.0  0.88241  0.48523  0.72423  1.0000
  H   H5421     1.0  0.90527  0.57956  0.75638  1.0000
  H   H5422     1.0  0.86563  0.55473  0.88317  1.0000
  H   H5423     1.0  0.88102  0.49988  0.72042  1.0000
  H   H5424     1.0  0.84615  0.55652  0.74624  1.0000
  H   H5425     1.0  0.87902  0.44536  0.65888  1.0000
  C   C3417     1.0  0.82454  0.49504  0.90271  1.0000
  C   C3418     1.0  0.82402  0.48474  0.90168  1.0000
  C   C3419     1.0  0.83257  0.47889  0.89472  1.0000
  C   C3420     1.0  0.84161  0.48337  0.88860  1.0000
  C   C3421     1.0  0.84206  0.49373  0.88952  1.0000
  C   C3422     1.0  0.83356  0.49952  0.89656  1.0000
  H   H5426     1.0  0.81697  0.48133  0.90614  1.0000
  H   H5427     1.0  0.83213  0.47092  0.89398  1.0000
  H   H5428     1.0  0.84897  0.49728  0.88483  1.0000
  H   H5429     1.0  0.83401  0.50751  0.89725  1.0000
  C   C3423     1.0  0.75239  0.48704  0.92922  1.0000
  C   C3424     1.0  0.93170  0.49343  0.66121  1.0000
  H   H5430     1.0  0.97435  0.46895  0.80551  1.0000
  H   H5431     1.0  0.84364  0.53817  0.97524  1.0000
  C   C3425     1.0  0.74452  0.47141  0.94020  1.0000
  C   C3426     1.0  0.75308  0.47703  0.93702  1.0000
  C   C3427     1.0  0.93153  0.55347  0.68358  1.0000
  H   H5432     1.0  0.93152  0.60005  0.81505  1.0000
  H   H5433     1.0  0.74517  0.46356  0.94603  1.0000
  H   H5434     1.0  0.76030  0.47349  0.94036  1.0000
  C   C3428     1.0  0.84612  0.56747  0.90844  1.0000
  C   C3429     1.0  0.85265  0.56499  0.91606  1.0000
  C   C3430     1.0  0.86343  0.56631  0.91248  1.0000
  C   C3431     1.0  0.86779  0.56996  0.90125  1.0000
  C   C3432     1.0  0.86135  0.57221  0.89357  1.0000
  C   C3433     1.0  0.85051  0.57098  0.89718  1.0000
  H   H5435     1.0  0.84941  0.56211  0.92471  1.0000
  H   H5436     1.0  0.86846  0.56445  0.91841  1.0000
  H   H5437     1.0  0.86464  0.57514  0.88490  1.0000
  H   H5438     1.0  0.84548  0.57292  0.89124  1.0000
  H   H5439     1.0  0.86757  0.55508  0.72066  1.0000
  H   H5440     1.0  0.84893  0.56183  0.96277  1.0000
  C   C3434     1.0  0.81008  0.52432  0.95904  1.0000
  C   C3435     1.0  0.80067  0.53249  0.95774  1.0000
  C   C3436     1.0  0.79147  0.52976  0.95665  1.0000
  C   C3437     1.0  0.79162  0.51885  0.95688  1.0000
  C   C3438     1.0  0.80086  0.51061  0.95867  1.0000
  C   C3439     1.0  0.81009  0.51334  0.95974  1.0000
  H   H5441     1.0  0.80048  0.54094  0.95750  1.0000
  H   H5442     1.0  0.78440  0.53620  0.95528  1.0000
  H   H5443     1.0  0.80087  0.50210  0.95938  1.0000
  H   H5444     1.0  0.81728  0.50696  0.96096  1.0000
  C   C3440     1.0  0.77658  0.57016  0.94561  1.0000
  C   C3441     1.0  0.78090  0.56593  0.93609  1.0000
  C   C3442     1.0  0.77398  0.56357  0.93094  1.0000
  C   C3443     1.0  0.76275  0.56518  0.93541  1.0000
  C   C3444     1.0  0.75841  0.56946  0.94491  1.0000
  C   C3445     1.0  0.76533  0.57201  0.94996  1.0000
  H   H5445     1.0  0.78952  0.56478  0.93254  1.0000
  H   H5446     1.0  0.77729  0.56064  0.92339  1.0000
  H   H5447     1.0  0.74973  0.57089  0.94830  1.0000
  N   N335      1.0  0.87160  0.52834  0.82339  1.0000
  C   C3446     1.0  0.86443  0.52232  0.83259  1.0000
  C   C3447     1.0  0.87811  0.52104  0.81578  1.0000
  H   H5448     1.0  0.85909  0.53566  0.81410  1.0000
  H   H5449     1.0  0.85885  0.51932  0.82960  1.0000
  H   H5450     1.0  0.86926  0.51502  0.83731  1.0000
  H   H5451     1.0  0.85943  0.52758  0.83851  1.0000
  H   H5452     1.0  0.88385  0.52487  0.83277  1.0000
  H   H5453     1.0  0.88326  0.51361  0.82006  1.0000
  H   H5454     1.0  0.88358  0.52537  0.80868  1.0000
  H   H5455     1.0  0.87282  0.51810  0.81234  1.0000
  C   C3448     1.0  0.91554  0.58639  0.72878  1.0000
  H   H5456     1.0  0.92333  0.58804  0.72909  1.0000
  H   H5457     1.0  0.90978  0.59447  0.72706  1.0000
  H   H5458     1.0  0.91724  0.58252  0.72161  1.0000
  H   H5459     1.0  0.92688  0.56978  0.74159  1.0000
  H   H5460     1.0  0.90337  0.59281  0.74717  1.0000
  H   H5461     1.0  0.91670  0.58576  0.74962  1.0000
  N   N336      1.0  0.91296  0.48542  0.80006  1.0000
  C   C3449     1.0  0.91350  0.47345  0.80248  1.0000
  C   C3450     1.0  0.90216  0.49108  0.80543  1.0000
  C   C3451     1.0  0.91470  0.48980  0.78802  1.0000
  C   C3452     1.0  0.92148  0.48742  0.80424  1.0000
  H   H5462     1.0  0.92176  0.46889  0.79904  1.0000
  H   H5463     1.0  0.90767  0.47160  0.79878  1.0000
  H   H5464     1.0  0.91157  0.46995  0.81150  1.0000
  H   H5465     1.0  0.90144  0.50015  0.80367  1.0000
  H   H5466     1.0  0.89562  0.48972  0.80239  1.0000
  H   H5467     1.0  0.90047  0.48801  0.81454  1.0000
  H   H5468     1.0  0.91417  0.49886  0.78596  1.0000
  H   H5469     1.0  0.90848  0.48829  0.78458  1.0000
  H   H5470     1.0  0.92283  0.48580  0.78371  1.0000
  H   H5471     1.0  0.92130  0.49639  0.80248  1.0000
  H   H5472     1.0  0.92975  0.48331  0.80027  1.0000
  H   H5473     1.0  0.92041  0.48423  0.81330  1.0000
  H   H5474     1.0  0.85560  0.53066  0.73582  1.0000
  C   C3453     1.0  0.87896  0.53196  0.82780  1.0000
  H   H5475     1.0  0.89455  0.58502  0.73704  1.0000
  H   H5476     1.0  0.82481  0.46660  0.92208  1.0000
  H   H5477     1.0  0.91766  0.59401  0.84966  1.0000
  C   C3454     1.0  0.84801  0.47460  0.83556  1.0000
  H   H5478     1.0  0.87627  0.55563  0.66522  1.0000
  C   C3455     1.0  0.84122  0.47426  0.92330  1.0000
  H   H5479     1.0  0.75067  0.49882  0.94549  1.0000
  H   H5480     1.0  0.92960  0.48406  0.84061  1.0000
  H   H5481     1.0  0.74326  0.53428  0.97045  1.0000
  H   H5482     1.0  0.90664  0.55811  0.81198  1.0000
  N   N337      1.0  0.94469  0.53220  0.86439  1.0000
  C   C3456     1.0  0.93714  0.54310  0.86281  1.0000
  C   C3457     1.0  0.95327  0.53260  0.86955  1.0000
  C   C3458     1.0  0.94973  0.52923  0.85358  1.0000
  C   C3459     1.0  0.93857  0.52386  0.87162  1.0000
  H   H5483     1.0  0.93072  0.54309  0.85872  1.0000
  H   H5484     1.0  0.94148  0.54970  0.85767  1.0000
  H   H5485     1.0  0.93292  0.54544  0.87084  1.0000
  H   H5486     1.0  0.95937  0.52464  0.87041  1.0000
  H   H5487     1.0  0.95771  0.53919  0.86462  1.0000
  H   H5488     1.0  0.94981  0.53427  0.87796  1.0000
  H   H5489     1.0  0.95535  0.52098  0.85443  1.0000
  H   H5490     1.0  0.95448  0.53530  0.84792  1.0000
  H   H5491     1.0  0.94350  0.52884  0.84944  1.0000
  H   H5492     1.0  0.94403  0.51556  0.87316  1.0000
  H   H5493     1.0  0.93221  0.52314  0.86783  1.0000
  H   H5494     1.0  0.93440  0.52598  0.87975  1.0000
  N   N338      1.0  0.91990  0.51171  0.75061  1.0000
  C   C3460     1.0  0.93085  0.50822  0.74388  1.0000
  C   C3461     1.0  0.91804  0.50326  0.76088  1.0000
  C   C3462     1.0  0.91159  0.51305  0.74434  1.0000
  C   C3463     1.0  0.91909  0.52225  0.75345  1.0000
  H   H5495     1.0  0.93270  0.51459  0.73623  1.0000
  H   H5496     1.0  0.93164  0.50045  0.74134  1.0000
  H   H5497     1.0  0.93731  0.50675  0.74850  1.0000
  H   H5498     1.0  0.90993  0.50577  0.76626  1.0000
  H   H5499     1.0  0.91830  0.49527  0.75910  1.0000
  H   H5500     1.0  0.92438  0.50175  0.76562  1.0000
  H   H5501     1.0  0.91278  0.51931  0.73648  1.0000
  H   H5502     1.0  0.90323  0.51569  0.74918  1.0000
  H   H5503     1.0  0.91197  0.50516  0.74222  1.0000
  H   H5504     1.0  0.92544  0.52152  0.75795  1.0000
  H   H5505     1.0  0.91103  0.52499  0.75877  1.0000
  H   H5506     1.0  0.92021  0.52891  0.74594  1.0000
  N   N339      1.0  0.79704  0.53415  0.92090  1.0000
  C   C3464     1.0  0.80422  0.52574  0.92764  1.0000
  C   C3465     1.0  0.80059  0.54469  0.91769  1.0000
  C   C3466     1.0  0.78570  0.53574  0.92740  1.0000
  C   C3467     1.0  0.79768  0.53046  0.91086  1.0000
  H   H5507     1.0  0.80438  0.52848  0.93501  1.0000
  H   H5508     1.0  0.81275  0.52392  0.92283  1.0000
  H   H5509     1.0  0.80147  0.51782  0.93064  1.0000
  H   H5510     1.0  0.79550  0.55116  0.91239  1.0000
  H   H5511     1.0  0.79994  0.54785  0.92505  1.0000
  H   H5512     1.0  0.80922  0.54376  0.91304  1.0000
  H   H5513     1.0  0.77996  0.54171  0.92247  1.0000
  H   H5514     1.0  0.78488  0.53888  0.93484  1.0000
  H   H5515     1.0  0.78285  0.52790  0.93037  1.0000
  H   H5516     1.0  0.80614  0.52914  0.90580  1.0000
  H   H5517     1.0  0.79232  0.53654  0.90559  1.0000
  H   H5518     1.0  0.79518  0.52247  0.91294  1.0000
  H   H5519     1.0  0.92223  0.50270  0.69804  1.0000
  Fe  Fe695     1.0  0.97442  0.48544  0.67119  1.0000
  C   C3468     1.0  0.97815  0.54121  0.93041  1.0000
  H   H5520     1.0  0.92495  0.48945  0.69478  1.0000
  H   H5521     1.0  0.92069  0.56426  0.73420  1.0000
  Fe  Fe696     1.0  0.98237  0.49762  0.84912  1.0000
  H   H5522     1.0  0.88470  0.53628  0.82104  1.0000
  C   C3469     1.0  0.86485  0.53805  0.81741  1.0000
  S   S1393     1.0  0.94332  0.51726  0.66560  1.0000
  C   C3470     1.0  0.94230  0.52256  0.82529  1.0000
  H   H5523     1.0  0.90197  0.57307  0.73157  1.0000
  C   C3471     1.0  0.91899  0.56858  0.74102  1.0000
  N   N340      1.0  0.86589  0.49452  0.72638  1.0000
  C   C3472     1.0  0.86517  0.49426  0.73806  1.0000
  C   C3473     1.0  0.85965  0.50521  0.72130  1.0000
  C   C3474     1.0  0.86132  0.48555  0.72574  1.0000
  C   C3475     1.0  0.87741  0.49307  0.72039  1.0000
  H   H5524     1.0  0.85659  0.49548  0.74281  1.0000
  H   H5525     1.0  0.86877  0.50076  0.73887  1.0000
  H   H5526     1.0  0.86960  0.48619  0.74220  1.0000
  H   H5527     1.0  0.86292  0.51216  0.72157  1.0000
  H   H5528     1.0  0.86001  0.50566  0.71248  1.0000
  H   H5529     1.0  0.85093  0.50664  0.72558  1.0000
  H   H5530     1.0  0.86564  0.47737  0.72979  1.0000
  H   H5531     1.0  0.86206  0.48527  0.71703  1.0000
  H   H5532     1.0  0.85258  0.48650  0.72996  1.0000
  H   H5533     1.0  0.87831  0.49284  0.71163  1.0000
  C   C3476     1.0  0.98206  0.52928  0.67947  1.0000
  H   H5534     1.0  0.86020  0.54389  0.88205  1.0000
  N   N341      1.0  0.91107  0.57920  0.73917  1.0000
  H   H5535     1.0  0.77469  0.58651  0.96796  1.0000
  H   H5536     1.0  0.95682  0.54521  0.93039  1.0000
  H   H5537     1.0  0.74305  0.50372  0.97394  1.0000
  C   C3477     1.0  0.97257  0.55187  0.91360  1.0000
  H   H5538     1.0  0.83202  0.47037  0.85346  1.0000
  H   H5539     1.0  0.86998  0.54270  0.81033  1.0000
  C   C3478     1.0  0.90076  0.57720  0.73845  1.0000
  C   C3479     1.0  0.81072  0.47116  0.97790  1.0000
  H   H5540     1.0  0.77259  0.59530  0.97728  1.0000
  H   H5541     1.0  0.89718  0.57184  0.74621  1.0000
  H   H5542     1.0  0.85936  0.56371  0.72994  1.0000
  C   C3480     1.0  0.98469  0.47887  0.80638  1.0000
  H   H5543     1.0  0.95967  0.51038  0.71144  1.0000
  H   H5544     1.0  0.88645  0.53611  0.89846  1.0000
  C   C3481     1.0  0.88264  0.54150  0.89157  1.0000
  H   H5545     1.0  0.86275  0.54811  0.90347  1.0000
  H   H5546     1.0  0.88879  0.54069  0.88375  1.0000
  C   C3482     1.0  0.97843  0.47084  0.81073  1.0000
  C   C3483     1.0  0.77138  0.58734  0.97668  1.0000
  H   H5547     1.0  0.90134  0.51277  0.67050  1.0000
  C   C3484     1.0  0.86467  0.53958  0.90219  1.0000
  H   H5548     1.0  0.86795  0.53399  0.90934  1.0000
  N   N342      1.0  0.87252  0.53854  0.89164  1.0000
  C   C3485     1.0  0.86774  0.54600  0.88242  1.0000
  H   H5549     1.0  0.97943  0.50193  0.80986  1.0000
  H   H5550     1.0  0.85686  0.53762  0.90244  1.0000
  H   H5551     1.0  0.87352  0.54555  0.87435  1.0000
  H   H5552     1.0  0.74197  0.48095  0.97273  1.0000
  C   C3486     1.0  0.83473  0.53983  0.97581  1.0000
  S   S1394     1.0  0.94428  0.46732  0.78642  1.0000
  H   H5553     1.0  0.85004  0.60718  0.92206  1.0000
  C   C3487     1.0  0.87502  0.52705  0.89034  1.0000
  H   H5554     1.0  0.88106  0.52599  0.88256  1.0000
  H   H5555     1.0  0.87854  0.52114  0.89721  1.0000
  C   C3488     1.0  0.80814  0.46207  0.96497  1.0000
  H   H5556     1.0  0.94303  0.55123  0.65701  1.0000
  H   H5557     1.0  0.86764  0.52460  0.89005  1.0000
  H   H5558     1.0  0.91351  0.54561  0.72916  1.0000
  S   S1395     1.0  0.77745  0.48755  0.95001  1.0000
  H   H5559     1.0  0.81524  0.53460  0.98025  1.0000
  C   C3489     1.0  0.91668  0.59902  0.84133  1.0000
  Fe  Fe697     1.0  0.94807  0.55175  0.72088  1.0000
  C   C3490     1.0  0.82973  0.57228  0.98327  1.0000
  C   C3491     1.0  0.95260  0.52956  0.80723  1.0000
  C   C3492     1.0  0.90812  0.55129  0.81924  1.0000
  H   H5560     1.0  0.92670  0.55685  0.80642  1.0000
  H   H5561     1.0  0.97908  0.50027  0.70347  1.0000
  H   H5562     1.0  0.91505  0.56922  0.81855  1.0000
  H   H5563     1.0  0.90066  0.55216  0.82592  1.0000
  H   H5564     1.0  0.74762  0.52759  0.98318  1.0000
  H   H5565     1.0  0.96338  0.44645  0.65542  1.0000
  C   C3493     1.0  0.94801  0.52393  0.80251  1.0000
  H   H5566     1.0  0.97732  0.56832  0.85120  1.0000
  C   C3494     1.0  0.91616  0.56223  0.82574  1.0000
  C   C3495     1.0  0.92747  0.55008  0.81387  1.0000
  H   H5567     1.0  0.92885  0.54217  0.81136  1.0000
  S   S1396     1.0  0.95956  0.51111  0.74929  1.0000
  H   H5568     1.0  0.98647  0.54295  0.92711  1.0000
  H   H5569     1.0  0.93597  0.49540  0.69433  1.0000
  N   N343      1.0  0.77665  0.57793  0.98438  1.0000
  H   H5570     1.0  0.84298  0.45837  0.85313  1.0000
  N   N344      1.0  0.84415  0.59234  0.92986  1.0000
  H   H5571     1.0  0.94277  0.53225  0.68441  1.0000
  C   C3496     1.0  0.84493  0.56318  0.97096  1.0000
  H   H5572     1.0  0.92331  0.56268  0.82850  1.0000
  H   H5573     1.0  0.96266  0.47906  0.73438  1.0000
  N   N345      1.0  0.98588  0.51625  0.80110  1.0000
  Fe  Fe698     1.0  0.96631  0.49351  0.69294  1.0000
  H   H5574     1.0  0.94636  0.55875  0.66484  1.0000
  C   C3497     1.0  0.97847  0.57337  0.83357  1.0000
  H   H5575     1.0  0.94945  0.53442  0.67011  1.0000
  C   C3498     1.0  0.91923  0.54256  0.83270  1.0000
  H   H5576     1.0  0.91221  0.54365  0.83980  1.0000
  C   C3499     1.0  0.92708  0.58383  0.83285  1.0000
  H   H5577     1.0  0.74271  0.51144  0.94911  1.0000
  S   S1397     1.0  0.95583  0.53547  0.82473  1.0000
  Fe  Fe699     1.0  0.97042  0.48992  0.78590  1.0000
  N   N346      1.0  0.97332  0.54105  0.92141  1.0000
  S   S1398     1.0  0.89855  0.47964  0.65460  1.0000
  H   H5578     1.0  0.92668  0.54222  0.83541  1.0000
  H   H5579     1.0  0.93099  0.51316  0.82558  1.0000
  H   H5580     1.0  0.94876  0.47408  0.66105  1.0000
  H   H5581     1.0  0.86531  0.53578  0.72407  1.0000
  C   C3500     1.0  0.98581  0.45339  0.87488  1.0000
  C   C3501     1.0  0.76658  0.53400  0.97722  1.0000
  H   H5582     1.0  0.82548  0.44476  0.98081  1.0000
  H   H5583     1.0  0.75017  0.48117  0.95897  1.0000
  Fe  Fe700     1.0  0.97129  0.57016  0.80764  1.0000
  H   H5584     1.0  0.75380  0.54747  0.95613  1.0000
  H   H5585     1.0  0.85113  0.54091  0.72437  1.0000
  H   H5586     1.0  0.87393  0.54102  0.73616  1.0000
  S   S1399     1.0  0.93452  0.51084  0.80332  1.0000
  Fe  Fe701     1.0  0.95246  0.48120  0.78318  1.0000
  H   H5587     1.0  0.96679  0.54097  0.75316  1.0000
  H   H5588     1.0  0.94689  0.58668  0.66066  1.0000
  H   H5589     1.0  0.85333  0.56000  0.72099  1.0000
  H   H5590     1.0  0.75436  0.50426  0.95491  1.0000
  H   H5591     1.0  0.91004  0.58894  0.65690  1.0000
  H   H5592     1.0  0.77183  0.53992  0.97569  1.0000
  H   H5593     1.0  0.89495  0.50745  0.65646  1.0000
  H   H5594     1.0  0.92449  0.56034  0.68191  1.0000
  S   S1400     1.0  0.96463  0.57807  0.79229  1.0000
  H   H5595     1.0  0.94186  0.54971  0.77382  1.0000
  H   H5596     1.0  0.76618  0.54884  0.95837  1.0000
  S   S1401     1.0  0.94279  0.49797  0.77714  1.0000
  H   H5597     1.0  0.98276  0.55078  0.75190  1.0000
  C   C3502     1.0  0.85728  0.53821  0.72957  1.0000
  H   H5598     1.0  0.86434  0.53550  0.74786  1.0000
  C   C3503     1.0  0.83429  0.59791  0.93678  1.0000
  H   H5599     1.0  0.94348  0.52785  0.76860  1.0000
  N   N347      1.0  0.83273  0.47032  0.93267  1.0000
  C   C3504     1.0  0.85944  0.55687  0.72625  1.0000
  C   C3505     1.0  0.96043  0.53613  0.75511  1.0000
  C   C3506     1.0  0.94998  0.54524  0.76995  1.0000
  H   H5600     1.0  0.96044  0.53401  0.74733  1.0000
  H   H5601     1.0  0.95271  0.55767  0.74912  1.0000
  H   H5602     1.0  0.80902  0.47840  0.98123  1.0000
  C   C3507     1.0  0.98053  0.57364  0.84364  1.0000
  N   N348      1.0  0.85721  0.54701  0.73484  1.0000
  C   C3508     1.0  0.86566  0.54307  0.74143  1.0000
  C   C3509     1.0  0.93615  0.59682  0.83472  1.0000
  H   H5603     1.0  0.97393  0.56765  0.83338  1.0000
  H   H5604     1.0  0.92329  0.61123  0.82137  1.0000
  H   H5605     1.0  0.86570  0.54942  0.74571  1.0000
  C   C3510     1.0  0.94149  0.53557  0.76238  1.0000
  N   N349      1.0  0.94962  0.54237  0.75979  1.0000
  S   S1402     1.0  0.96359  0.55122  0.72523  1.0000
  Fe  Fe702     1.0  0.79458  0.47809  0.94503  1.0000
  S   S1403     1.0  0.96423  0.51130  0.68422  1.0000
  Fe  Fe703     1.0  0.95726  0.50636  0.67281  1.0000
  H   H5606     1.0  0.83602  0.48890  0.84844  1.0000
  C   C3511     1.0  0.93718  0.51754  0.82047  1.0000
  H   H5607     1.0  0.84411  0.45757  0.94094  1.0000
  C   C3512     1.0  0.84645  0.54989  0.74215  1.0000
  H   H5608     1.0  0.83986  0.55288  0.73746  1.0000
  H   H5609     1.0  0.92871  0.57843  0.84084  1.0000
  H   H5610     1.0  0.75491  0.55497  0.97569  1.0000
  H   H5611     1.0  0.93319  0.54016  0.76570  1.0000
  H   H5612     1.0  0.84454  0.54265  0.74879  1.0000
  H   H5613     1.0  0.83355  0.53749  0.96864  1.0000
  H   H5614     1.0  0.95576  0.55068  0.76820  1.0000
  Fe  Fe704     1.0  0.94703  0.50265  0.79053  1.0000
  N   N350      1.0  0.84801  0.47382  0.84719  1.0000
  C   C3513     1.0  0.96134  0.49305  0.74099  1.0000
  H   H5615     1.0  0.85364  0.47980  0.82979  1.0000
  C   C3514     1.0  0.94024  0.51798  0.80911  1.0000
  S   S1404     1.0  0.95533  0.48558  0.79743  1.0000
  H   H5616     1.0  0.96295  0.52825  0.76091  1.0000
  H   H5617     1.0  0.94119  0.53314  0.75486  1.0000
  C   C3515     1.0  0.94656  0.55256  0.75163  1.0000
  H   H5618     1.0  0.94018  0.52184  0.83413  1.0000
  C   C3516     1.0  0.75029  0.54848  0.97715  1.0000
  H   H5619     1.0  0.97175  0.51139  0.80034  1.0000
  H   H5620     1.0  0.83836  0.48304  0.91930  1.0000
  H   H5621     1.0  0.95901  0.51945  0.72636  1.0000
  C   C3517     1.0  0.96438  0.57357  0.74265  1.0000
  S   S1405     1.0  0.94188  0.50278  0.85889  1.0000
  H   H5622     1.0  0.94025  0.49620  0.71103  1.0000
  H   H5623     1.0  0.97523  0.55210  0.66382  1.0000
  H   H5624     1.0  0.93390  0.58101  0.82621  1.0000
  C   C3518     1.0  0.75051  0.53078  0.97418  1.0000
  C   C3519     1.0  0.96027  0.50443  0.73881  1.0000
  Fe  Fe705     1.0  0.94918  0.57364  0.80318  1.0000
  H   H5625     1.0  0.84875  0.47364  0.92599  1.0000
  H   H5626     1.0  0.84345  0.46942  0.91679  1.0000
  H   H5627     1.0  0.83887  0.45331  0.93171  1.0000
  C   C3520     1.0  0.85911  0.46885  0.84905  1.0000
  H   H5628     1.0  0.86497  0.47390  0.84357  1.0000
  H   H5629     1.0  0.83545  0.58639  0.92164  1.0000
  C   C3521     1.0  0.88007  0.55637  0.65655  1.0000
  H   H5630     1.0  0.96192  0.48816  0.74915  1.0000
  H   H5631     1.0  0.83043  0.45551  0.94484  1.0000
  S   S1406     1.0  0.80194  0.46173  0.95469  1.0000
  C   C3522     1.0  0.74734  0.50313  0.95243  1.0000
  H   H5632     1.0  0.98667  0.55595  0.67447  1.0000
  H   H5633     1.0  0.85075  0.46635  0.83344  1.0000
  C   C3523     1.0  0.98174  0.52800  0.79646  1.0000
  H   H5634     1.0  0.83977  0.47833  0.83380  1.0000
  H   H5635     1.0  0.83805  0.59986  0.91504  1.0000
  C   C3524     1.0  0.83674  0.45866  0.93775  1.0000
  H   H5636     1.0  0.84037  0.46621  0.86345  1.0000
  H   H5637     1.0  0.95890  0.47233  0.83982  1.0000
  H   H5638     1.0  0.96181  0.48593  0.82202  1.0000
  C   C3525     1.0  0.96017  0.50550  0.71964  1.0000
  H   H5639     1.0  0.82703  0.48596  0.93742  1.0000
  S   S1407     1.0  0.98531  0.48682  0.79277  1.0000
  H   H5640     1.0  0.95451  0.46997  0.82306  1.0000
  H   H5641     1.0  0.93415  0.47328  0.72020  1.0000
  C   C3526     1.0  0.82993  0.47707  0.94101  1.0000
  C   C3527     1.0  0.96040  0.57763  0.75234  1.0000
  H   H5642     1.0  0.96735  0.55864  0.91767  1.0000
  H   H5643     1.0  0.83705  0.47633  0.94444  1.0000
  H   H5644     1.0  0.82334  0.47447  0.94806  1.0000
  H   H5645     1.0  0.84462  0.48470  0.85820  1.0000
  C   C3528     1.0  0.82295  0.47131  0.92863  1.0000
  C   C3529     1.0  0.84446  0.48496  0.84955  1.0000
  H   H5646     1.0  0.85569  0.57679  0.93131  1.0000
  H   H5647     1.0  0.83112  0.60644  0.93241  1.0000
  S   S1408     1.0  0.98027  0.46195  0.84295  1.0000
  Fe  Fe706     1.0  0.96032  0.55091  0.81335  1.0000
  C   C3530     1.0  0.93426  0.47764  0.71144  1.0000
  H   H5648     1.0  0.91577  0.48390  0.72526  1.0000
  H   H5649     1.0  0.93243  0.49108  0.72432  1.0000
  H   H5650     1.0  0.81947  0.48005  0.92514  1.0000
  H   H5651     1.0  0.81649  0.46812  0.93536  1.0000
  C   C3531     1.0  0.93508  0.48937  0.83481  1.0000
  Fe  Fe707     1.0  0.97102  0.55166  0.70728  1.0000
  H   H5652     1.0  0.84980  0.58139  0.94402  1.0000
  C   C3532     1.0  0.96432  0.57191  0.76192  1.0000
  H   H5653     1.0  0.94291  0.47768  0.70722  1.0000
  H   H5654     1.0  0.93128  0.47266  0.70760  1.0000
  H   H5655     1.0  0.84985  0.49047  0.84395  1.0000
  H   H5656     1.0  0.98447  0.46171  0.87650  1.0000
  C   C3533     1.0  0.95053  0.47738  0.84183  1.0000
  S   S1409     1.0  0.97302  0.50251  0.66081  1.0000
  C   C3534     1.0  0.77483  0.56756  0.98328  1.0000
  H   H5657     1.0  0.96255  0.53066  0.93190  1.0000
  C   C3535     1.0  0.94991  0.52872  0.81866  1.0000
  S   S1410     1.0  0.97061  0.49259  0.84294  1.0000
  N   N351      1.0  0.92751  0.48897  0.71065  1.0000
  C   C3536     1.0  0.91617  0.48858  0.71657  1.0000
  C   C3537     1.0  0.93191  0.49528  0.71565  1.0000
  H   H5658     1.0  0.96112  0.57502  0.76939  1.0000
  H   H5659     1.0  0.94536  0.47180  0.84768  1.0000
  H   H5660     1.0  0.95089  0.48346  0.84626  1.0000
  S   S1411     1.0  0.95583  0.55012  0.70353  1.0000
  H   H5661     1.0  0.93575  0.60556  0.83456  1.0000
  H   H5662     1.0  0.83593  0.59839  0.94462  1.0000
  H   H5663     1.0  0.91104  0.49701  0.71671  1.0000
  H   H5664     1.0  0.92677  0.50370  0.71569  1.0000
  H   H5665     1.0  0.94140  0.46846  0.83162  1.0000
  C   C3538     1.0  0.95305  0.57910  0.66136  1.0000
  C   C3539     1.0  0.94614  0.47458  0.82606  1.0000
  H   H5666     1.0  0.84887  0.58791  0.91406  1.0000
  H   H5667     1.0  0.96908  0.55203  0.90662  1.0000
  H   H5668     1.0  0.95028  0.49484  0.81682  1.0000
  H   H5669     1.0  0.95856  0.53863  0.91928  1.0000
  S   S1412     1.0  0.97060  0.50078  0.86480  1.0000
  H   H5670     1.0  0.93769  0.55709  0.68494  1.0000
  C   C3540     1.0  0.92768  0.49436  0.69893  1.0000
  H   H5671     1.0  0.98060  0.51369  0.70332  1.0000
  H   H5672     1.0  0.84192  0.57605  0.93833  1.0000
  C   C3541     1.0  0.85272  0.59869  0.92683  1.0000
  H   H5673     1.0  0.97115  0.51450  0.81330  1.0000
  N   N352      1.0  0.92609  0.59551  0.83266  1.0000
  H   H5674     1.0  0.85491  0.59940  0.93428  1.0000
  C   C3542     1.0  0.84809  0.58115  0.93613  1.0000
  H   H5675     1.0  0.86028  0.59467  0.92161  1.0000
  C   C3543     1.0  0.97251  0.56391  0.74251  1.0000
  N   N353      1.0  0.75701  0.53909  0.97219  1.0000
  N   N354      1.0  0.94627  0.48294  0.83178  1.0000
  H   H5676     1.0  0.95839  0.53432  0.80201  1.0000
  H   H5677     1.0  0.82766  0.59335  0.93916  1.0000
  H   H5678     1.0  0.97954  0.44929  0.88106  1.0000
  S   S1413     1.0  0.96534  0.47660  0.86770  1.0000
  C   C3544     1.0  0.95451  0.57288  0.67182  1.0000
  S   S1414     1.0  0.94301  0.57010  0.71646  1.0000
  H   H5679     1.0  0.96976  0.45619  0.65733  1.0000
  H   H5680     1.0  0.94237  0.47843  0.81880  1.0000
  S   S1415     1.0  0.95283  0.55734  0.79870  1.0000
  C   C3545     1.0  0.84151  0.59160  0.91973  1.0000
  H   H5681     1.0  0.96359  0.55815  0.68065  1.0000
  C   C3546     1.0  0.95327  0.49045  0.82446  1.0000
  H   H5682     1.0  0.74443  0.57775  0.96814  1.0000
  C   C3547     1.0  0.92443  0.60231  0.82175  1.0000
  C   C3548     1.0  0.90596  0.51790  0.66333  1.0000
  H   H5683     1.0  0.91952  0.58252  0.83158  1.0000
  H   H5684     1.0  0.76246  0.58795  0.97840  1.0000
  Fe  Fe708     1.0  0.97772  0.48308  0.87180  1.0000
  S   S1416     1.0  0.95542  0.56699  0.81870  1.0000
  H   H5685     1.0  0.93495  0.49591  0.83890  1.0000
  H   H5686     1.0  0.95345  0.49685  0.82861  1.0000
  S   S1417     1.0  0.96845  0.48388  0.77197  1.0000
  H   H5687     1.0  0.94343  0.59407  0.82841  1.0000
  C   C3549     1.0  0.96179  0.48791  0.73257  1.0000
  H   H5688     1.0  0.95167  0.54178  0.67887  1.0000
  H   H5689     1.0  0.80052  0.47893  0.96605  1.0000
  Fe  Fe709     1.0  0.97741  0.47559  0.85165  1.0000
  H   H5690     1.0  0.94564  0.55072  0.74410  1.0000
  Fe  Fe710     1.0  0.96900  0.56090  0.78939  1.0000
  H   H5691     1.0  0.97267  0.53894  0.69123  1.0000
  Fe  Fe711     1.0  0.95229  0.56852  0.69935  1.0000
  H   H5692     1.0  0.95030  0.52439  0.79373  1.0000
  S   S1418     1.0  0.96232  0.50753  0.77981  1.0000
  Fe  Fe712     1.0  0.91377  0.48097  0.65816  1.0000
  S   S1419     1.0  0.97680  0.55435  0.77390  1.0000
  H   H5693     1.0  0.97716  0.52906  0.79003  1.0000
  H   H5694     1.0  0.94036  0.46042  0.65834  1.0000
  C   C3550     1.0  0.97762  0.46511  0.82182  1.0000
  H   H5695     1.0  0.76600  0.56780  0.98484  1.0000
  N   N355      1.0  0.93608  0.54761  0.67443  1.0000
  C   C3551     1.0  0.98511  0.50544  0.70167  1.0000
  S   S1420     1.0  0.94637  0.57743  0.68373  1.0000
  Fe  Fe713     1.0  0.95893  0.50112  0.76683  1.0000
  H   H5696     1.0  0.95412  0.58510  0.75251  1.0000
  C   C3552     1.0  0.93977  0.55536  0.66412  1.0000
  C   C3553     1.0  0.98280  0.58015  0.82373  1.0000
  H   H5697     1.0  0.85805  0.55250  0.97844  1.0000
  C   C3554     1.0  0.74304  0.49148  0.92485  1.0000
  C   C3555     1.0  0.81515  0.45247  0.96920  1.0000
  C   C3556     1.0  0.76072  0.54305  0.96018  1.0000
  C   C3557     1.0  0.97649  0.55826  0.75206  1.0000
  H   H5698     1.0  0.91566  0.60780  0.84147  1.0000
  H   H5699     1.0  0.98072  0.55388  0.91003  1.0000
  C   C3558     1.0  0.95973  0.51064  0.72810  1.0000
  C   C3559     1.0  0.98263  0.46777  0.82870  1.0000
  S   S1421     1.0  0.96781  0.57010  0.70224  1.0000
  S   S1422     1.0  0.95796  0.48894  0.68236  1.0000
  C   C3560     1.0  0.93847  0.50952  0.65966  1.0000
  C   C3561     1.0  0.83477  0.57042  0.97268  1.0000
  C   C3562     1.0  0.80600  0.47149  0.96922  1.0000
  S   S1423     1.0  0.98298  0.48834  0.68261  1.0000
  H   H5700     1.0  0.97286  0.45886  0.82515  1.0000
  H   H5701     1.0  0.83150  0.54886  0.97487  1.0000
  H   H5702     1.0  0.74295  0.55247  0.97360  1.0000
  C   C3563     1.0  0.81775  0.46149  0.98211  1.0000
  H   H5703     1.0  0.97503  0.52862  0.67713  1.0000
  H   H5704     1.0  0.76527  0.53613  0.95604  1.0000
  C   C3564     1.0  0.85010  0.55793  0.97981  1.0000
  H   H5705     1.0  0.92867  0.54780  0.69147  1.0000
  C   C3565     1.0  0.96130  0.49406  0.72184  1.0000
  C   C3566     1.0  0.97233  0.56217  0.76182  1.0000
  H   H5706     1.0  0.90897  0.59806  0.84004  1.0000
  S   S1424     1.0  0.96264  0.48696  0.71149  1.0000
  C   C3567     1.0  0.98139  0.57786  0.67045  1.0000
  C   C3568     1.0  0.96908  0.55968  0.66311  1.0000
  Fe  Fe714     1.0  0.98058  0.54733  0.88308  1.0000
  C   C3569     1.0  0.94541  0.53863  0.67708  1.0000
  C   C3570     1.0  0.98680  0.58076  0.84383  1.0000
  C   C3571     1.0  0.82003  0.45223  0.97762  1.0000
  S   S1425     1.0  0.98264  0.57866  0.81068  1.0000
  H   H5707     1.0  0.97707  0.53222  0.90852  1.0000
  H   H5708     1.0  0.93758  0.59183  0.84294  1.0000
  C   C3572     1.0  0.96244  0.56306  0.67266  1.0000
  H   H5709     1.0  0.97578  0.56083  0.73503  1.0000
  H   H5710     1.0  0.75542  0.52358  0.97055  1.0000
  C   C3573     1.0  0.88906  0.52852  0.65844  1.0000
  H   H5711     1.0  0.92038  0.54948  0.67109  1.0000
  H   H5712     1.0  0.91408  0.51269  0.66066  1.0000
  H   H5713     1.0  0.93302  0.56243  0.66207  1.0000
  H   H5714     1.0  0.88936  0.53495  0.66245  1.0000
  H   H5715     1.0  0.77852  0.56607  0.97484  1.0000
  S   S1426     1.0  0.98126  0.47770  0.88897  1.0000
  Fe  Fe715     1.0  0.98022  0.50582  0.67298  1.0000
  S   S1427     1.0  0.98360  0.56241  0.88585  1.0000
  C   C3574     1.0  0.97662  0.51081  0.80636  1.0000
  H   H5716     1.0  0.98671  0.51945  0.81627  1.0000
  N   N356      1.0  0.74041  0.49692  0.96176  1.0000
  H   H5717     1.0  0.97530  0.57415  0.67731  1.0000
  H   H5718     1.0  0.97877  0.57902  0.66264  1.0000
  H   H5719     1.0  0.98515  0.51731  0.85723  1.0000
  N   N357      1.0  0.90011  0.52242  0.65424  1.0000
  H   H5720     1.0  0.92488  0.53680  0.68036  1.0000
  H   H5721     1.0  0.98089  0.58616  0.67170  1.0000
  C   C3575     1.0  0.96178  0.45464  0.65745  1.0000
  C   C3576     1.0  0.98028  0.53235  0.91559  1.0000
  H   H5722     1.0  0.79221  0.57651  0.97305  1.0000
  H   H5723     1.0  0.79439  0.45777  0.98573  1.0000
  H   H5724     1.0  0.98424  0.45453  0.86655  1.0000
  H   H5725     1.0  0.98083  0.52404  0.92117  1.0000
  N   N358      1.0  0.82918  0.53372  0.98636  1.0000
  H   H5726     1.0  0.84202  0.51913  0.98637  1.0000
  H   H5727     1.0  0.76409  0.53103  0.98630  1.0000
  H   H5728     1.0  0.74743  0.54581  0.98624  1.0000
  H   H5729     1.0  0.81411  0.54580  0.98650  1.0000
  H   H5730     1.0  0.95738  0.86330  0.55277  1.0000
  C   C3577     1.0  0.81039  0.95262  0.50010  1.0000
  H   H5731     1.0  0.89022  0.76295  0.44431  1.0000
  H   H5732     1.0  0.93695  0.77380  0.56426  1.0000
  N   N359      1.0  0.97981  0.67514  0.47891  1.0000
  Fe  Fe716     1.0  0.89235  0.87194  0.46848  1.0000
  S   S1428     1.0  0.89231  0.88986  0.46358  1.0000
  S   S1429     1.0  0.89828  0.86110  0.48335  1.0000
  Fe  Fe717     1.0  0.88330  0.87254  0.44932  1.0000
  S   S1430     1.0  0.88251  0.89072  0.44241  1.0000
  S   S1431     1.0  0.87919  0.86120  0.44139  1.0000
  Fe  Fe718     1.0  0.89897  0.88693  0.44648  1.0000
  S   S1432     1.0  0.91364  0.89287  0.43513  1.0000
  Fe  Fe719     1.0  0.87590  0.89237  0.46007  1.0000
  S   S1433     1.0  0.86234  0.90507  0.46781  1.0000
  S   S1434     1.0  0.90032  0.86868  0.45173  1.0000
  S   S1435     1.0  0.87531  0.87449  0.46663  1.0000
  Fe  Fe720     1.0  0.91111  0.89573  0.53647  1.0000
  S   S1436     1.0  0.91742  0.87959  0.53122  1.0000
  S   S1437     1.0  0.91907  0.90080  0.54707  1.0000
  Fe  Fe721     1.0  0.89130  0.90207  0.52640  1.0000
  S   S1438     1.0  0.89582  0.88642  0.52035  1.0000
  S   S1439     1.0  0.87730  0.91473  0.52028  1.0000
  Fe  Fe722     1.0  0.90001  0.87793  0.53669  1.0000
  S   S1440     1.0  0.89665  0.86141  0.54660  1.0000
  Fe  Fe723     1.0  0.91274  0.88927  0.51535  1.0000
  S   S1441     1.0  0.92290  0.88728  0.49868  1.0000
  S   S1442     1.0  0.89393  0.89337  0.54338  1.0000
  S   S1443     1.0  0.90800  0.90564  0.52001  1.0000
  H   H5733     1.0  0.89234  0.67428  0.49073  1.0000
  S   S1444     1.0  0.95631  0.92770  0.52920  1.0000
  H   H5734     1.0  0.88221  0.69372  0.48945  1.0000
  Fe  Fe724     1.0  0.91769  0.69625  0.45882  1.0000
  S   S1445     1.0  0.90273  0.69052  0.46927  1.0000
  S   S1446     1.0  0.93416  0.69198  0.46260  1.0000
  Fe  Fe725     1.0  0.90691  0.70957  0.44037  1.0000
  S   S1447     1.0  0.89072  0.70527  0.44891  1.0000
  S   S1448     1.0  0.91102  0.72096  0.42397  1.0000
  Fe  Fe726     1.0  0.89406  0.70801  0.46391  1.0000
  S   S1449     1.0  0.88105  0.71705  0.47565  1.0000
  Fe  Fe727     1.0  0.90054  0.68808  0.45357  1.0000
  S   S1450     1.0  0.89421  0.67296  0.45556  1.0000
  S   S1451     1.0  0.90919  0.71396  0.45504  1.0000
  S   S1452     1.0  0.91645  0.69215  0.44359  1.0000
  Fe  Fe728     1.0  0.89355  0.69573  0.53191  1.0000
  S   S1453     1.0  0.90930  0.68946  0.53745  1.0000
  S   S1454     1.0  0.88358  0.68298  0.53530  1.0000
  Fe  Fe729     1.0  0.89773  0.71888  0.52203  1.0000
  S   S1455     1.0  0.91413  0.71402  0.52608  1.0000
  S   S1456     1.0  0.89368  0.73659  0.51290  1.0000
  Fe  Fe730     1.0  0.91613  0.69854  0.52071  1.0000
  S   S1457     1.0  0.93255  0.69079  0.51203  1.0000
  Fe  Fe731     1.0  0.90574  0.70554  0.54247  1.0000
  S   S1458     1.0  0.90911  0.70621  0.55839  1.0000
  S   S1459     1.0  0.90059  0.70416  0.51476  1.0000
  S   S1460     1.0  0.88906  0.71107  0.53877  1.0000
  Fe  Fe732     1.0  0.89361  0.79761  0.46366  1.0000
  S   S1461     1.0  0.91147  0.79181  0.45745  1.0000
  S   S1462     1.0  0.88762  0.81286  0.47077  1.0000
  Fe  Fe733     1.0  0.88847  0.77710  0.46084  1.0000
  S   S1463     1.0  0.90584  0.76964  0.45415  1.0000
  S   S1464     1.0  0.87459  0.76898  0.46356  1.0000
  Fe  Fe734     1.0  0.90921  0.77519  0.46753  1.0000
  S   S1465     1.0  0.92019  0.76406  0.47844  1.0000
  Fe  Fe735     1.0  0.90659  0.78684  0.44458  1.0000
  S   S1466     1.0  0.91518  0.79014  0.42678  1.0000
  S   S1467     1.0  0.89175  0.78131  0.47507  1.0000
  S   S1468     1.0  0.88877  0.79398  0.44995  1.0000
  Fe  Fe736     1.0  0.91087  0.79425  0.54343  1.0000
  S   S1469     1.0  0.89273  0.79803  0.54561  1.0000
  S   S1470     1.0  0.91845  0.79124  0.55783  1.0000
  Fe  Fe737     1.0  0.91479  0.79552  0.51916  1.0000
  S   S1471     1.0  0.89711  0.79903  0.51918  1.0000
  S   S1472     1.0  0.92683  0.79643  0.50314  1.0000
  Fe  Fe738     1.0  0.89539  0.81075  0.52982  1.0000
  S   S1473     1.0  0.88671  0.82838  0.52453  1.0000
  Fe  Fe739     1.0  0.89626  0.78597  0.53476  1.0000
  S   S1474     1.0  0.88656  0.77274  0.54013  1.0000
  S   S1475     1.0  0.91321  0.80801  0.52869  1.0000
  S   S1476     1.0  0.91427  0.78132  0.53375  1.0000
  H   H5735     1.0  0.85102  0.88230  0.46211  1.0000
  Fe  Fe740     1.0  0.83920  0.96784  0.52790  1.0000
  S   S1477     1.0  0.82725  0.96179  0.52290  1.0000
  S   S1478     1.0  0.84806  0.95544  0.54042  1.0000
  H   H5736     1.0  0.90073  0.82981  0.47324  1.0000
  Fe  Fe741     1.0  0.81714  0.97901  0.52167  1.0000
  S   S1479     1.0  0.97859  0.87999  0.42197  1.0000
  Fe  Fe742     1.0  0.83633  0.96795  0.50586  1.0000
  S   S1480     1.0  0.84121  0.95624  0.49454  1.0000
  H   H5737     1.0  0.77264  0.97439  0.55137  1.0000
  N   N360      1.0  0.88702  0.90648  0.48835  1.0000
  H   H5738     1.0  0.90599  0.82472  0.50554  1.0000
  H   H5739     1.0  0.91499  0.83079  0.49357  1.0000
  H   H5740     1.0  0.89712  0.84150  0.47938  1.0000
  C   C3578     1.0  0.90281  0.83337  0.47906  1.0000
  H   H5741     1.0  0.96105  0.75285  0.55429  1.0000
  C   C3579     1.0  0.90636  0.83020  0.49716  1.0000
  H   H5742     1.0  0.94414  0.76883  0.57526  1.0000
  H   H5743     1.0  0.94677  0.77567  0.54512  1.0000
  H   H5744     1.0  0.88976  0.82031  0.50380  1.0000
  H   H5745     1.0  0.91736  0.81487  0.48559  1.0000
  H   H5746     1.0  0.88101  0.89314  0.48702  1.0000
  H   H5747     1.0  0.90154  0.83855  0.49824  1.0000
  H   H5748     1.0  0.90575  0.81151  0.48346  1.0000
  H   H5749     1.0  0.88730  0.82155  0.49052  1.0000
  H   H5750     1.0  0.95334  0.75188  0.56821  1.0000
  H   H5751     1.0  0.89351  0.90497  0.50234  1.0000
  H   H5752     1.0  0.90780  0.80895  0.49707  1.0000
  H   H5753     1.0  0.96124  0.77081  0.54167  1.0000
  C   C3580     1.0  0.90856  0.81485  0.48897  1.0000
  H   H5754     1.0  0.89559  0.91679  0.49159  1.0000
  H   H5755     1.0  0.94648  0.75679  0.55697  1.0000
  H   H5756     1.0  0.88769  0.67375  0.47909  1.0000
  C   C3581     1.0  0.78981  0.97747  0.52677  1.0000
  C   C3582     1.0  0.79179  0.96639  0.53227  1.0000
  C   C3583     1.0  0.78359  0.96038  0.53511  1.0000
  C   C3584     1.0  0.77346  0.96537  0.53230  1.0000
  C   C3585     1.0  0.77174  0.97624  0.52627  1.0000
  H   H5757     1.0  0.94216  0.77744  0.50739  1.0000
  H   H5758     1.0  0.94552  0.88513  0.50019  1.0000
  C   C3586     1.0  0.87609  0.91222  0.49337  1.0000
  C   C3587     1.0  0.97781  0.68607  0.47142  1.0000
  H   H5759     1.0  0.95071  0.68451  0.52440  1.0000
  C   C3588     1.0  0.92861  0.79871  0.55471  1.0000
  C   C3589     1.0  0.93024  0.80275  0.56295  1.0000
  C   C3590     1.0  0.93852  0.80848  0.56064  1.0000
  C   C3591     1.0  0.94535  0.81005  0.55014  1.0000
  C   C3592     1.0  0.94391  0.80570  0.54200  1.0000
  C   C3593     1.0  0.93544  0.80021  0.54421  1.0000
  H   H5760     1.0  0.92500  0.80156  0.57110  1.0000
  H   H5761     1.0  0.93961  0.81175  0.56701  1.0000
  H   H5762     1.0  0.94944  0.80631  0.53409  1.0000
  H   H5763     1.0  0.93439  0.79686  0.53788  1.0000
  C   C3594     1.0  0.92669  0.79535  0.42494  1.0000
  C   C3595     1.0  0.93219  0.79277  0.43347  1.0000
  H   H5764     1.0  0.83656  0.87934  0.45495  1.0000
  H   H5765     1.0  0.90895  0.74323  0.55417  1.0000
  H   H5766     1.0  0.96432  0.76354  0.57095  1.0000
  H   H5767     1.0  0.87745  0.69321  0.47791  1.0000
  H   H5768     1.0  0.92984  0.78692  0.44098  1.0000
  H   H5769     1.0  0.97167  0.76445  0.55692  1.0000
  C   C3596     1.0  0.93512  0.90206  0.45199  1.0000
  C   C3597     1.0  0.87264  0.67805  0.50420  1.0000
  C   C3598     1.0  0.92291  0.77254  0.48529  1.0000
  C   C3599     1.0  0.92042  0.77035  0.49682  1.0000
  C   C3600     1.0  0.92143  0.77781  0.50231  1.0000
  C   C3601     1.0  0.92533  0.78724  0.49627  1.0000
  C   C3602     1.0  0.92819  0.78924  0.48475  1.0000
  C   C3603     1.0  0.92683  0.78197  0.47925  1.0000
  H   H5770     1.0  0.91743  0.76306  0.50150  1.0000
  H   H5771     1.0  0.91929  0.77618  0.51122  1.0000
  H   H5772     1.0  0.93127  0.79649  0.48006  1.0000
  H   H5773     1.0  0.92889  0.78360  0.47034  1.0000
  C   C3604     1.0  0.89296  0.74609  0.52069  1.0000
  C   C3605     1.0  0.88805  0.74431  0.53192  1.0000
  C   C3606     1.0  0.88625  0.75252  0.53779  1.0000
  C   C3607     1.0  0.88962  0.76244  0.53256  1.0000
  C   C3608     1.0  0.89494  0.76406  0.52142  1.0000
  C   C3609     1.0  0.89648  0.75595  0.51547  1.0000
  H   H5774     1.0  0.88525  0.73678  0.53601  1.0000
  H   H5775     1.0  0.88211  0.75122  0.54639  1.0000
  H   H5776     1.0  0.89758  0.77168  0.51731  1.0000
  H   H5777     1.0  0.90030  0.75738  0.50679  1.0000
  C   C3610     1.0  0.93348  0.69203  0.47629  1.0000
  C   C3611     1.0  0.92357  0.69258  0.48400  1.0000
  C   C3612     1.0  0.92329  0.69179  0.49510  1.0000
  C   C3613     1.0  0.93284  0.69086  0.49841  1.0000
  C   C3614     1.0  0.94269  0.69050  0.49066  1.0000
  C   C3615     1.0  0.94303  0.69099  0.47962  1.0000
  H   H5778     1.0  0.91616  0.69340  0.48150  1.0000
  H   H5779     1.0  0.91572  0.69175  0.50108  1.0000
  H   H5780     1.0  0.94997  0.69026  0.49315  1.0000
  H   H5781     1.0  0.95065  0.69083  0.47360  1.0000
  C   C3616     1.0  0.87972  0.73142  0.47194  1.0000
  C   C3617     1.0  0.86939  0.73819  0.47171  1.0000
  C   C3618     1.0  0.86802  0.74967  0.46891  1.0000
  C   C3619     1.0  0.87691  0.75450  0.46668  1.0000
  C   C3620     1.0  0.88727  0.74776  0.46714  1.0000
  C   C3621     1.0  0.88871  0.73621  0.46959  1.0000
  H   H5782     1.0  0.86242  0.73454  0.47356  1.0000
  H   H5783     1.0  0.85999  0.75482  0.46859  1.0000
  H   H5784     1.0  0.89415  0.75143  0.46564  1.0000
  H   H5785     1.0  0.89669  0.73099  0.46994  1.0000
  C   C3622     1.0  0.93060  0.72904  0.55726  1.0000
  C   C3623     1.0  0.92870  0.72821  0.54746  1.0000
  C   C3624     1.0  0.92191  0.72143  0.54777  1.0000
  C   C3625     1.0  0.91731  0.71515  0.55781  1.0000
  C   C3626     1.0  0.91937  0.71588  0.56759  1.0000
  C   C3627     1.0  0.86642  0.67729  0.48856  1.0000
  H   H5786     1.0  0.93211  0.73312  0.53967  1.0000
  H   H5787     1.0  0.92016  0.72122  0.54024  1.0000
  H   H5788     1.0  0.91588  0.71104  0.57540  1.0000
  H   H5789     1.0  0.91774  0.75273  0.55055  1.0000
  N   N361      1.0  0.84751  0.89007  0.44607  1.0000
  H   H5790     1.0  0.85868  0.89244  0.45410  1.0000
  C   C3628     1.0  0.92625  0.73365  0.41495  1.0000
  C   C3629     1.0  0.92294  0.72496  0.42331  1.0000
  C   C3630     1.0  0.92872  0.72002  0.43167  1.0000
  N   N362      1.0  0.90377  0.75570  0.56371  1.0000
  H   H5791     1.0  0.91207  0.76903  0.55916  1.0000
  H   H5792     1.0  0.92192  0.73740  0.40836  1.0000
  H   H5793     1.0  0.92652  0.71306  0.43791  1.0000
  H   H5794     1.0  0.86389  0.88319  0.43832  1.0000
  C   C3631     1.0  0.87010  0.92610  0.52616  1.0000
  C   C3632     1.0  0.86829  0.92568  0.53745  1.0000
  C   C3633     1.0  0.86178  0.93483  0.54182  1.0000
  C   C3634     1.0  0.85683  0.94425  0.53495  1.0000
  C   C3635     1.0  0.85859  0.94449  0.52373  1.0000
  C   C3636     1.0  0.86530  0.93556  0.51934  1.0000
  H   H5795     1.0  0.87161  0.91822  0.54286  1.0000
  H   H5796     1.0  0.86028  0.93448  0.55056  1.0000
  H   H5797     1.0  0.85462  0.95148  0.51840  1.0000
  H   H5798     1.0  0.86656  0.93593  0.51062  1.0000
  C   C3637     1.0  0.92974  0.90786  0.54165  1.0000
  C   C3638     1.0  0.93369  0.91102  0.54903  1.0000
  C   C3639     1.0  0.94205  0.91682  0.54517  1.0000
  C   C3640     1.0  0.94662  0.91945  0.53389  1.0000
  C   C3641     1.0  0.94272  0.91625  0.52645  1.0000
  C   C3642     1.0  0.93431  0.91041  0.53033  1.0000
  H   H5799     1.0  0.93019  0.90908  0.55778  1.0000
  H   H5800     1.0  0.94488  0.91942  0.55093  1.0000
  H   H5801     1.0  0.94612  0.91844  0.51769  1.0000
  H   H5802     1.0  0.93131  0.90799  0.52457  1.0000
  C   C3643     1.0  0.89291  0.85272  0.54062  1.0000
  C   C3644     1.0  0.89085  0.85615  0.52999  1.0000
  C   C3645     1.0  0.88859  0.84872  0.52524  1.0000
  C   C3646     1.0  0.88866  0.83778  0.53097  1.0000
  C   C3647     1.0  0.89048  0.83442  0.54167  1.0000
  C   C3648     1.0  0.89246  0.84192  0.54652  1.0000
  H   H5803     1.0  0.89107  0.86446  0.52540  1.0000
  H   H5804     1.0  0.88701  0.85139  0.51702  1.0000
  H   H5805     1.0  0.89039  0.82604  0.54620  1.0000
  H   H5806     1.0  0.89391  0.83924  0.55480  1.0000
  C   C3649     1.0  0.85340  0.91547  0.46042  1.0000
  C   C3650     1.0  0.84357  0.92079  0.46632  1.0000
  C   C3651     1.0  0.83620  0.92907  0.46078  1.0000
  H   H5807     1.0  0.86976  0.91166  0.48944  1.0000
  H   H5808     1.0  0.91530  0.83684  0.54388  1.0000
  C   C3652     1.0  0.85586  0.91854  0.44889  1.0000
  H   H5809     1.0  0.84157  0.91844  0.47524  1.0000
  H   H5810     1.0  0.82857  0.93294  0.46544  1.0000
  C   C3653     1.0  0.89061  0.82537  0.49522  1.0000
  H   H5811     1.0  0.86348  0.91459  0.44426  1.0000
  C   C3654     1.0  0.92168  0.89698  0.44144  1.0000
  C   C3655     1.0  0.91745  0.89983  0.45170  1.0000
  C   C3656     1.0  0.92413  0.90242  0.45694  1.0000
  H   H5812     1.0  0.89530  0.89004  0.48657  1.0000
  N   N363      1.0  0.90208  0.82596  0.49010  1.0000
  C   C3657     1.0  0.93257  0.89707  0.43628  1.0000
  H   H5813     1.0  0.90900  0.90027  0.45549  1.0000
  H   H5814     1.0  0.92081  0.90465  0.46487  1.0000
  H   H5815     1.0  0.88537  0.83369  0.49576  1.0000
  H   H5816     1.0  0.93583  0.89513  0.42821  1.0000
  C   C3658     1.0  0.88063  0.84766  0.44948  1.0000
  C   C3659     1.0  0.87973  0.84589  0.46081  1.0000
  C   C3660     1.0  0.88121  0.83518  0.46728  1.0000
  C   C3661     1.0  0.88411  0.82606  0.46244  1.0000
  C   C3662     1.0  0.88477  0.82774  0.45112  1.0000
  C   C3663     1.0  0.88293  0.83857  0.44465  1.0000
  H   H5817     1.0  0.87777  0.85278  0.46468  1.0000
  H   H5818     1.0  0.88026  0.83400  0.47606  1.0000
  H   H5819     1.0  0.88676  0.82074  0.44736  1.0000
  H   H5820     1.0  0.88353  0.83988  0.43588  1.0000
  C   C3664     1.0  0.90662  0.86711  0.48724  1.0000
  C   C3665     1.0  0.90663  0.86525  0.49840  1.0000
  C   C3666     1.0  0.91209  0.87110  0.50185  1.0000
  C   C3667     1.0  0.91771  0.87869  0.49414  1.0000
  C   C3668     1.0  0.91835  0.88000  0.48287  1.0000
  C   C3669     1.0  0.91271  0.87429  0.47941  1.0000
  H   H5821     1.0  0.90205  0.85962  0.50444  1.0000
  H   H5822     1.0  0.91183  0.86984  0.51053  1.0000
  H   H5823     1.0  0.92281  0.88577  0.47689  1.0000
  H   H5824     1.0  0.91288  0.87560  0.47074  1.0000
  Fe  Fe743     1.0  0.97793  0.88989  0.43397  1.0000
  H   H5825     1.0  0.76541  0.98155  0.57360  1.0000
  C   C3670     1.0  0.90743  0.66795  0.43600  1.0000
  C   C3671     1.0  0.89862  0.66584  0.44472  1.0000
  C   C3672     1.0  0.89355  0.65745  0.44520  1.0000
  S   S1481     1.0  0.98757  0.92659  0.51561  1.0000
  H   H5826     1.0  0.77912  0.97891  0.56566  1.0000
  H   H5827     1.0  0.91139  0.67439  0.43554  1.0000
  C   C3673     1.0  0.88379  0.66328  0.53113  1.0000
  C   C3674     1.0  0.77234  0.93425  0.50362  1.0000
  S   S1482     1.0  0.95155  0.73791  0.42411  1.0000
  S   S1483     1.0  0.98688  0.68940  0.44017  1.0000
  H   H5828     1.0  0.88589  0.94188  0.52895  1.0000
  C   C3675     1.0  0.88838  0.67259  0.52762  1.0000
  C   C3676     1.0  0.89644  0.67360  0.51791  1.0000
  C   C3677     1.0  0.89961  0.66554  0.51158  1.0000
  H   H5829     1.0  0.88579  0.89077  0.49941  1.0000
  Fe  Fe744     1.0  0.96291  0.71786  0.46049  1.0000
  H   H5830     1.0  0.90002  0.68075  0.51511  1.0000
  H   H5831     1.0  0.90561  0.66656  0.50394  1.0000
  H   H5832     1.0  0.94481  0.78211  0.56628  1.0000
  H   H5833     1.0  0.91116  0.83489  0.47551  1.0000
  N   N364      1.0  0.83622  0.92570  0.52417  1.0000
  C   C3678     1.0  0.83825  0.92901  0.53334  1.0000
  C   C3679     1.0  0.84478  0.92801  0.51418  1.0000
  C   C3680     1.0  0.82548  0.93200  0.52193  1.0000
  C   C3681     1.0  0.83639  0.91378  0.52721  1.0000
  H   H5834     1.0  0.83810  0.93798  0.53137  1.0000
  H   H5835     1.0  0.84637  0.92454  0.53514  1.0000
  H   H5836     1.0  0.83202  0.92732  0.54107  1.0000
  H   H5837     1.0  0.84328  0.92605  0.50696  1.0000
  H   H5838     1.0  0.84516  0.93687  0.51190  1.0000
  H   H5839     1.0  0.85295  0.92309  0.51544  1.0000
  H   H5840     1.0  0.82517  0.94100  0.51946  1.0000
  H   H5841     1.0  0.81881  0.93060  0.52932  1.0000
  H   H5842     1.0  0.82365  0.92970  0.51507  1.0000
  H   H5843     1.0  0.83496  0.91100  0.52043  1.0000
  H   H5844     1.0  0.83001  0.91173  0.53471  1.0000
  H   H5845     1.0  0.84439  0.90881  0.52900  1.0000
  H   H5846     1.0  0.89762  0.90693  0.47230  1.0000
  H   H5847     1.0  0.88334  0.91014  0.47234  1.0000
  H   H5848     1.0  0.90359  0.90335  0.48994  1.0000
  S   S1484     1.0  0.97270  0.78043  0.46553  1.0000
  H   H5849     1.0  0.88932  0.92005  0.47450  1.0000
  H   H5850     1.0  0.83036  0.89381  0.45312  1.0000
  S   S1485     1.0  0.74729  0.97433  0.51413  1.0000
  C   C3682     1.0  0.83867  0.96875  0.46473  1.0000
  C   C3683     1.0  0.89529  0.90797  0.49325  1.0000
  H   H5851     1.0  0.96495  0.77681  0.56184  1.0000
  H   H5852     1.0  0.95562  0.78328  0.54665  1.0000
  H   H5853     1.0  0.84491  0.90103  0.43065  1.0000
  C   C3684     1.0  0.98306  0.76745  0.52827  1.0000
  H   H5854     1.0  0.93727  0.68448  0.54776  1.0000
  H   H5855     1.0  0.86459  0.68313  0.50740  1.0000
  C   C3685     1.0  0.88943  0.91110  0.47634  1.0000
  C   C3686     1.0  0.93935  0.89941  0.44163  1.0000
  N   N365      1.0  0.77034  0.94039  0.51232  1.0000
  H   H5856     1.0  0.91484  0.83899  0.45282  1.0000
  C   C3687     1.0  0.89347  0.92251  0.54150  1.0000
  N   N366      1.0  0.96173  0.76741  0.42652  1.0000
  C   C3688     1.0  0.93027  0.80234  0.41496  1.0000
  H   H5857     1.0  0.95539  0.87573  0.55746  1.0000
  H   H5858     1.0  0.95032  0.69719  0.43797  1.0000
  H   H5859     1.0  0.92611  0.80427  0.40829  1.0000
  H   H5860     1.0  0.86569  0.66859  0.49222  1.0000
  Fe  Fe745     1.0  0.98154  0.91055  0.43788  1.0000
  H   H5861     1.0  0.97618  0.84175  0.42648  1.0000
  H   H5862     1.0  0.97543  0.75908  0.41594  1.0000
  H   H5863     1.0  0.89954  0.91493  0.54400  1.0000
  Fe  Fe746     1.0  0.74680  0.96608  0.53186  1.0000
  H   H5864     1.0  0.86813  0.67845  0.47941  1.0000
  N   N367      1.0  0.87002  0.76199  0.49875  1.0000
  C   C3689     1.0  0.86795  0.77416  0.49564  1.0000
  C   C3690     1.0  0.88116  0.75734  0.49314  1.0000
  C   C3691     1.0  0.86209  0.75817  0.49534  1.0000
  C   C3692     1.0  0.86889  0.75830  0.51083  1.0000
  H   H5865     1.0  0.85968  0.77797  0.49982  1.0000
  H   H5866     1.0  0.86860  0.77721  0.48657  1.0000
  H   H5867     1.0  0.87394  0.77730  0.49791  1.0000
  H   H5868     1.0  0.88738  0.75972  0.49581  1.0000
  H   H5869     1.0  0.88288  0.74818  0.49495  1.0000
  H   H5870     1.0  0.88242  0.76030  0.48405  1.0000
  H   H5871     1.0  0.86249  0.76117  0.48633  1.0000
  H   H5872     1.0  0.85361  0.76124  0.49965  1.0000
  H   H5873     1.0  0.86371  0.74900  0.49715  1.0000
  H   H5874     1.0  0.87085  0.74914  0.51341  1.0000
  H   H5875     1.0  0.86049  0.76135  0.51535  1.0000
  H   H5876     1.0  0.87449  0.76138  0.51372  1.0000
  H   H5877     1.0  0.84270  0.94757  0.46362  1.0000
  H   H5878     1.0  0.98365  0.69304  0.50608  1.0000
  H   H5879     1.0  0.94545  0.70421  0.54782  1.0000
  C   C3693     1.0  0.92680  0.66157  0.48739  1.0000
  Fe  Fe747     1.0  0.98027  0.72894  0.44446  1.0000
  H   H5880     1.0  0.97888  0.72865  0.47843  1.0000
  H   H5881     1.0  0.95292  0.69013  0.55019  1.0000
  H   H5882     1.0  0.97294  0.66750  0.47047  1.0000
  H   H5883     1.0  0.98490  0.90268  0.40109  1.0000
  H   H5884     1.0  0.76183  0.98399  0.54554  1.0000
  H   H5885     1.0  0.94521  0.71007  0.41530  1.0000
  C   C3694     1.0  0.88956  0.94231  0.53559  1.0000
  S   S1486     1.0  0.96981  0.88430  0.45154  1.0000
  S   S1487     1.0  0.96811  0.90727  0.43233  1.0000
  H   H5886     1.0  0.97045  0.87004  0.47627  1.0000
  H   H5887     1.0  0.90874  0.66489  0.54745  1.0000
  H   H5888     1.0  0.95374  0.67492  0.45484  1.0000
  N   N368      1.0  0.95427  0.76841  0.55906  1.0000
  C   C3695     1.0  0.96422  0.76831  0.56235  1.0000
  C   C3696     1.0  0.95447  0.77484  0.54762  1.0000
  C   C3697     1.0  0.94462  0.77350  0.56656  1.0000
  C   C3698     1.0  0.95375  0.75699  0.55968  1.0000
  C   C3699     1.0  0.88727  0.89460  0.49043  1.0000
  H   H5889     1.0  0.83406  0.88716  0.44170  1.0000
  H   H5890     1.0  0.89986  0.77058  0.56972  1.0000
  S   S1488     1.0  0.98578  0.82937  0.44528  1.0000
  H   H5891     1.0  0.89900  0.77266  0.55569  1.0000
  C   C3700     1.0  0.83663  0.88748  0.44909  1.0000
  H   H5892     1.0  0.87574  0.92109  0.49256  1.0000
  C   C3701     1.0  0.84726  0.90092  0.43832  1.0000
  H   H5893     1.0  0.84135  0.90762  0.44210  1.0000
  H   H5894     1.0  0.85353  0.88090  0.43319  1.0000
  C   C3702     1.0  0.90265  0.93311  0.54707  1.0000
  C   C3703     1.0  0.90368  0.76750  0.56201  1.0000
  H   H5895     1.0  0.87381  0.90852  0.50233  1.0000
  H   H5896     1.0  0.94390  0.67031  0.47458  1.0000
  H   H5897     1.0  0.89228  0.74529  0.56847  1.0000
  C   C3704     1.0  0.85557  0.88149  0.44077  1.0000
  H   H5898     1.0  0.85538  0.90308  0.43583  1.0000
  H   H5899     1.0  0.85612  0.87319  0.44643  1.0000
  H   H5900     1.0  0.84467  0.89674  0.46039  1.0000
  C   C3705     1.0  0.85058  0.89038  0.45611  1.0000
  H   H5901     1.0  0.88821  0.75679  0.57509  1.0000
  H   H5902     1.0  0.97705  0.69280  0.47557  1.0000
  C   C3706     1.0  0.96650  0.86949  0.48517  1.0000
  H   H5903     1.0  0.97297  0.86903  0.48943  1.0000
  H   H5904     1.0  0.96800  0.87082  0.54867  1.0000
  C   C3707     1.0  0.89248  0.75409  0.56724  1.0000
  H   H5905     1.0  0.90618  0.75187  0.58026  1.0000
  H   H5906     1.0  0.95825  0.86411  0.53346  1.0000
  Fe  Fe748     1.0  0.97377  0.91845  0.52579  1.0000
  C   C3708     1.0  0.94450  0.70559  0.52689  1.0000
  C   C3709     1.0  0.94993  0.77247  0.50359  1.0000
  C   C3710     1.0  0.98203  0.69723  0.52157  1.0000
  H   H5907     1.0  0.98239  0.66621  0.53451  1.0000
  H   H5908     1.0  0.95268  0.88010  0.47186  1.0000
  C   C3711     1.0  0.82992  0.95115  0.49530  1.0000
  C   C3712     1.0  0.94913  0.87948  0.48081  1.0000
  C   C3713     1.0  0.90984  0.74918  0.57233  1.0000
  H   H5909     1.0  0.90495  0.75694  0.54650  1.0000
  H   H5910     1.0  0.91847  0.74998  0.56982  1.0000
  N   N369      1.0  0.95737  0.87905  0.48682  1.0000
  H   H5911     1.0  0.94233  0.88685  0.48155  1.0000
  H   H5912     1.0  0.85839  0.96473  0.46865  1.0000
  C   C3714     1.0  0.90909  0.75199  0.55329  1.0000
  H   H5913     1.0  0.88765  0.75892  0.56094  1.0000
  C   C3715     1.0  0.95234  0.87795  0.49870  1.0000
  H   H5914     1.0  0.88543  0.66376  0.49180  1.0000
  H   H5915     1.0  0.90991  0.74027  0.57392  1.0000
  H   H5916     1.0  0.91337  0.74486  0.49358  1.0000
  H   H5917     1.0  0.95840  0.87738  0.50348  1.0000
  H   H5918     1.0  0.94890  0.87044  0.50206  1.0000
  H   H5919     1.0  0.92880  0.72884  0.47162  1.0000
  H   H5920     1.0  0.87882  0.68033  0.50704  1.0000
  H   H5921     1.0  0.93884  0.71251  0.53047  1.0000
  C   C3716     1.0  0.96149  0.88929  0.48260  1.0000
  C   C3717     1.0  0.77982  0.98232  0.52366  1.0000
  H   H5922     1.0  0.83940  0.93801  0.48713  1.0000
  C   C3718     1.0  0.92593  0.72289  0.56734  1.0000
  C   C3719     1.0  0.83868  0.93226  0.44927  1.0000
  H   H5923     1.0  0.95417  0.73621  0.47240  1.0000
  S   S1489     1.0  0.84870  0.97344  0.51078  1.0000
  H   H5924     1.0  0.86793  0.69726  0.48982  1.0000
  C   C3720     1.0  0.87569  0.69149  0.48709  1.0000
  S   S1490     1.0  0.97930  0.72238  0.43051  1.0000
  S   S1491     1.0  0.76284  0.95816  0.53716  1.0000
  C   C3721     1.0  0.84853  0.92695  0.44334  1.0000
  S   S1492     1.0  0.95482  0.81150  0.42077  1.0000
  H   H5925     1.0  0.98114  0.92029  0.41406  1.0000
  C   C3722     1.0  0.95059  0.86989  0.43913  1.0000
  H   H5926     1.0  0.94781  0.89920  0.43771  1.0000
  C   C3723     1.0  0.94525  0.66120  0.47703  1.0000
  H   H5927     1.0  0.95968  0.84976  0.44965  1.0000
  C   C3724     1.0  0.83134  0.94198  0.49093  1.0000
  H   H5928     1.0  0.95221  0.70830  0.52244  1.0000
  N   N370      1.0  0.74336  0.98792  0.48005  1.0000
  C   C3725     1.0  0.96603  0.68894  0.42212  1.0000
  H   H5929     1.0  0.90329  0.83539  0.45104  1.0000
  C   C3726     1.0  0.88561  0.67260  0.48824  1.0000
  H   H5930     1.0  0.74101  0.98296  0.40300  1.0000
  H   H5931     1.0  0.85837  0.68271  0.49114  1.0000
  S   S1493     1.0  0.95545  0.81758  0.54747  1.0000
  N   N371      1.0  0.87508  0.67986  0.49203  1.0000
  H   H5932     1.0  0.92175  0.74242  0.47388  1.0000
  H   H5933     1.0  0.91643  0.73343  0.50465  1.0000
  H   H5934     1.0  0.79944  0.96260  0.53477  1.0000
  C   C3727     1.0  0.93904  0.80712  0.41368  1.0000
  C   C3728     1.0  0.91952  0.73725  0.49590  1.0000
  H   H5935     1.0  0.93616  0.72047  0.49419  1.0000
  H   H5936     1.0  0.92706  0.73986  0.49547  1.0000
  H   H5937     1.0  0.78499  0.95196  0.53977  1.0000
  H   H5938     1.0  0.91937  0.65829  0.48914  1.0000
  H   H5939     1.0  0.96182  0.68914  0.52569  1.0000
  H   H5940     1.0  0.87260  0.66925  0.50822  1.0000
  H   H5941     1.0  0.85054  0.92940  0.43443  1.0000
  H   H5942     1.0  0.77928  0.92698  0.52268  1.0000
  H   H5943     1.0  0.92744  0.72347  0.57494  1.0000
  H   H5944     1.0  0.95481  0.89672  0.48350  1.0000
  C   C3729     1.0  0.92252  0.66287  0.52789  1.0000
  H   H5945     1.0  0.91114  0.84336  0.43962  1.0000
  C   C3730     1.0  0.91171  0.83643  0.44697  1.0000
  H   H5946     1.0  0.92957  0.67086  0.46566  1.0000
  H   H5947     1.0  0.76586  0.93750  0.49877  1.0000
  H   H5948     1.0  0.92883  0.66720  0.52770  1.0000
  H   H5949     1.0  0.98727  0.66670  0.46558  1.0000
  C   C3731     1.0  0.92693  0.73448  0.47733  1.0000
  S   S1494     1.0  0.97791  0.90503  0.51657  1.0000
  N   N372      1.0  0.92157  0.72957  0.48859  1.0000
  H   H5950     1.0  0.95182  0.85090  0.46323  1.0000
  H   H5951     1.0  0.75330  0.98464  0.49177  1.0000
  C   C3732     1.0  0.93507  0.73762  0.41522  1.0000
  H   H5952     1.0  0.82334  0.93151  0.48708  1.0000
  H   H5953     1.0  0.92188  0.81905  0.46014  1.0000
  C   C3733     1.0  0.94095  0.79755  0.43220  1.0000
  H   H5954     1.0  0.92387  0.82358  0.54260  1.0000
  H   H5955     1.0  0.98727  0.80568  0.47746  1.0000
  S   S1495     1.0  0.82974  0.94297  0.44211  1.0000
  H   H5956     1.0  0.92977  0.85610  0.48851  1.0000
  C   C3734     1.0  0.82227  0.93820  0.49104  1.0000
  C   C3735     1.0  0.77899  0.93582  0.51868  1.0000
  S   S1496     1.0  0.98102  0.71252  0.45620  1.0000
  H   H5957     1.0  0.91054  0.81559  0.45775  1.0000
  C   C3736     1.0  0.95460  0.76472  0.43753  1.0000
  H   H5958     1.0  0.91232  0.82863  0.53641  1.0000
  C   C3737     1.0  0.93742  0.72406  0.43202  1.0000
  C   C3738     1.0  0.95496  0.85575  0.45491  1.0000
  C   C3739     1.0  0.92870  0.71908  0.49284  1.0000
  H   H5959     1.0  0.92454  0.71462  0.50087  1.0000
  S   S1497     1.0  0.93821  0.73831  0.55700  1.0000
  N   N373      1.0  0.95458  0.69414  0.42157  1.0000
  Fe  Fe749     1.0  0.97798  0.70643  0.44295  1.0000
  S   S1498     1.0  0.82525  0.98461  0.50405  1.0000
  H   H5960     1.0  0.93499  0.85264  0.45689  1.0000
  N   N374      1.0  0.94645  0.69547  0.53552  1.0000
  H   H5961     1.0  0.91250  0.72153  0.48298  1.0000
  H   H5962     1.0  0.76377  0.95587  0.50244  1.0000
  C   C3740     1.0  0.91901  0.83112  0.53813  1.0000
  H   H5963     1.0  0.96917  0.69312  0.42665  1.0000
  C   C3741     1.0  0.81946  0.95634  0.50007  1.0000
  H   H5964     1.0  0.81829  0.96356  0.50326  1.0000
  H   H5965     1.0  0.94157  0.72039  0.43871  1.0000
  H   H5966     1.0  0.96079  0.86010  0.45578  1.0000
  H   H5967     1.0  0.93475  0.73628  0.47728  1.0000
  C   C3742     1.0  0.93609  0.69202  0.54111  1.0000
  C   C3743     1.0  0.94696  0.82827  0.48162  1.0000
  S   S1499     1.0  0.94747  0.84901  0.49956  1.0000
  H   H5968     1.0  0.93198  0.84428  0.53650  1.0000
  C   C3744     1.0  0.91885  0.81713  0.45383  1.0000
  H   H5969     1.0  0.94525  0.79532  0.43873  1.0000
  C   C3745     1.0  0.95456  0.78718  0.48805  1.0000
  N   N375      1.0  0.91875  0.82616  0.44388  1.0000
  H   H5970     1.0  0.93883  0.88371  0.55021  1.0000
  C   C3746     1.0  0.91118  0.72742  0.48831  1.0000
  H   H5971     1.0  0.91417  0.82991  0.42827  1.0000
  C   C3747     1.0  0.94277  0.87963  0.54312  1.0000
  C   C3748     1.0  0.81177  0.94366  0.49542  1.0000
  C   C3749     1.0  0.94427  0.80490  0.42237  1.0000
  C   C3750     1.0  0.96989  0.75739  0.42417  1.0000
  C   C3751     1.0  0.77030  0.95212  0.50718  1.0000
  H   H5972     1.0  0.86458  0.95353  0.46162  1.0000
  C   C3752     1.0  0.95904  0.87173  0.55028  1.0000
  H   H5973     1.0  0.76894  0.95697  0.51351  1.0000
  H   H5974     1.0  0.96200  0.77966  0.51268  1.0000
  H   H5975     1.0  0.98651  0.75956  0.51469  1.0000
  H   H5976     1.0  0.94000  0.84305  0.52299  1.0000
  C   C3753     1.0  0.93458  0.84836  0.48655  1.0000
  H   H5977     1.0  0.98119  0.67890  0.54627  1.0000
  H   H5978     1.0  0.93758  0.74440  0.40879  1.0000
  H   H5979     1.0  0.94500  0.87648  0.45806  1.0000
  H   H5980     1.0  0.91981  0.81563  0.43320  1.0000
  H   H5981     1.0  0.96638  0.88855  0.53561  1.0000
  H   H5982     1.0  0.90557  0.73516  0.48514  1.0000
  H   H5983     1.0  0.93135  0.71349  0.48698  1.0000
  H   H5984     1.0  0.94164  0.81270  0.40601  1.0000
  H   H5985     1.0  0.80229  0.95711  0.50314  1.0000
  H   H5986     1.0  0.93552  0.82016  0.43669  1.0000
  H   H5987     1.0  0.92446  0.84779  0.47624  1.0000
  S   S1500     1.0  0.98283  0.75526  0.53852  1.0000
  C   C3754     1.0  0.91455  0.82323  0.43583  1.0000
  H   H5988     1.0  0.94041  0.87154  0.54535  1.0000
  H   H5989     1.0  0.92319  0.82722  0.51755  1.0000
  C   C3755     1.0  0.93492  0.83882  0.53049  1.0000
  C   C3756     1.0  0.93159  0.84363  0.47964  1.0000
  H   H5990     1.0  0.94300  0.85157  0.44338  1.0000
  H   H5991     1.0  0.93326  0.83020  0.44466  1.0000
  C   C3757     1.0  0.94061  0.73286  0.42381  1.0000
  H   H5992     1.0  0.95611  0.87717  0.52387  1.0000
  S   S1501     1.0  0.79907  0.94787  0.46022  1.0000
  N   N376      1.0  0.92575  0.83631  0.52785  1.0000
  Fe  Fe750     1.0  0.97351  0.81998  0.44574  1.0000
  C   C3758     1.0  0.94378  0.84307  0.49094  1.0000
  H   H5993     1.0  0.91485  0.66918  0.52722  1.0000
  H   H5994     1.0  0.95631  0.71042  0.42068  1.0000
  C   C3759     1.0  0.92992  0.82781  0.43888  1.0000
  H   H5995     1.0  0.97144  0.68932  0.41376  1.0000
  N   N377      1.0  0.94601  0.86359  0.45008  1.0000
  C   C3760     1.0  0.93862  0.85747  0.44881  1.0000
  Fe  Fe751     1.0  0.81517  0.95278  0.45221  1.0000
  S   S1502     1.0  0.96415  0.84054  0.52193  1.0000
  C   C3761     1.0  0.92992  0.82870  0.52023  1.0000
  Fe  Fe752     1.0  0.96408  0.82271  0.52981  1.0000
  H   H5996     1.0  0.94027  0.83119  0.53420  1.0000
  H   H5997     1.0  0.91579  0.85261  0.52804  1.0000
  S   S1503     1.0  0.94347  0.90466  0.45903  1.0000
  S   S1504     1.0  0.95878  0.81962  0.51615  1.0000
  Fe  Fe753     1.0  0.96032  0.83685  0.50772  1.0000
  C   C3762     1.0  0.93985  0.87126  0.45741  1.0000
  H   H5998     1.0  0.93275  0.87696  0.45425  1.0000
  H   H5999     1.0  0.90688  0.72381  0.49669  1.0000
  H   H6000     1.0  0.92423  0.80930  0.45181  1.0000
  H   H6001     1.0  0.95893  0.70693  0.40756  1.0000
  H   H6002     1.0  0.78026  0.93490  0.49772  1.0000
  H   H6003     1.0  0.77821  0.95313  0.50139  1.0000
  H   H6004     1.0  0.93552  0.83209  0.51264  1.0000
  C   C3763     1.0  0.98308  0.68997  0.51485  1.0000
  C   C3764     1.0  0.95960  0.87265  0.53121  1.0000
  C   C3765     1.0  0.91913  0.84663  0.52254  1.0000
  C   C3766     1.0  0.93797  0.83371  0.47692  1.0000
  H   H6005     1.0  0.90623  0.82166  0.43939  1.0000
  C   C3767     1.0  0.74884  0.97732  0.47677  1.0000
  H   H6006     1.0  0.85364  0.94816  0.45164  1.0000
  Fe  Fe754     1.0  0.80897  0.97281  0.46267  1.0000
  H   H6007     1.0  0.91211  0.84505  0.52045  1.0000
  C   C3768     1.0  0.94989  0.83294  0.48861  1.0000
  S   S1505     1.0  0.80057  0.94128  0.49235  1.0000
  H   H6008     1.0  0.93441  0.82057  0.52416  1.0000
  H   H6009     1.0  0.96033  0.70945  0.49987  1.0000
  S   S1506     1.0  0.77586  0.97645  0.45134  1.0000
  H   H6010     1.0  0.92404  0.85070  0.51472  1.0000
  H   H6011     1.0  0.97231  0.77308  0.43273  1.0000
  C   C3769     1.0  0.96232  0.67309  0.45109  1.0000
  H   H6012     1.0  0.97491  0.77681  0.48942  1.0000
  H   H6013     1.0  0.93022  0.83436  0.43118  1.0000
  C   C3770     1.0  0.95744  0.88926  0.53733  1.0000
  H   H6014     1.0  0.93915  0.88482  0.53603  1.0000
  Fe  Fe755     1.0  0.80146  0.95156  0.47522  1.0000
  S   S1507     1.0  0.81780  0.95543  0.46748  1.0000
  S   S1508     1.0  0.96627  0.81216  0.46303  1.0000
  H   H6015     1.0  0.93243  0.69024  0.53520  1.0000
  Fe  Fe756     1.0  0.95333  0.73655  0.54367  1.0000
  N   N378      1.0  0.95471  0.87831  0.54048  1.0000
  C   C3771     1.0  0.97941  0.67901  0.44387  1.0000
  H   H6016     1.0  0.74382  0.97477  0.47268  1.0000
  C   C3772     1.0  0.97622  0.75201  0.45655  1.0000
  H   H6017     1.0  0.91339  0.75037  0.43492  1.0000
  S   S1509     1.0  0.98403  0.66992  0.51107  1.0000
  H   H6018     1.0  0.93665  0.86677  0.46588  1.0000
  C   C3773     1.0  0.98525  0.92183  0.40517  1.0000
  H   H6019     1.0  0.95366  0.89392  0.54400  1.0000
  H   H6020     1.0  0.73969  0.97765  0.44723  1.0000
  H   H6021     1.0  0.95463  0.89434  0.52975  1.0000
  H   H6022     1.0  0.93179  0.86317  0.44516  1.0000
  C   C3774     1.0  0.75971  0.93939  0.51984  1.0000
  H   H6023     1.0  0.76300  0.94731  0.44423  1.0000
  H   H6024     1.0  0.87756  0.66244  0.53865  1.0000
  H   H6025     1.0  0.95615  0.87473  0.43969  1.0000
  H   H6026     1.0  0.77765  0.94035  0.52529  1.0000
  S   S1510     1.0  0.96910  0.73009  0.54907  1.0000
  H   H6027     1.0  0.77685  0.95472  0.44801  1.0000
  H   H6028     1.0  0.78713  0.93648  0.51330  1.0000
  H   H6029     1.0  0.92515  0.65947  0.52034  1.0000
  H   H6030     1.0  0.89402  0.75742  0.41678  1.0000
  H   H6031     1.0  0.95888  0.70039  0.53971  1.0000
  H   H6032     1.0  0.90766  0.75696  0.41748  1.0000
  H   H6033     1.0  0.90409  0.74586  0.44748  1.0000
  C   C3775     1.0  0.90072  0.75276  0.42110  1.0000
  H   H6034     1.0  0.90342  0.74445  0.41915  1.0000
  S   S1511     1.0  0.95745  0.82769  0.44103  1.0000
  Fe  Fe757     1.0  0.79171  0.96613  0.45592  1.0000
  S   S1512     1.0  0.79895  0.98589  0.52496  1.0000
  C   C3776     1.0  0.90640  0.74622  0.43846  1.0000
  N   N379      1.0  0.89713  0.75200  0.43314  1.0000
  H   H6035     1.0  0.95692  0.82872  0.49212  1.0000
  H   H6036     1.0  0.90628  0.94047  0.54478  1.0000
  H   H6037     1.0  0.91343  0.92396  0.52966  1.0000
  H   H6038     1.0  0.95533  0.86434  0.43343  1.0000
  C   C3777     1.0  0.76088  0.95554  0.44575  1.0000
  C   C3778     1.0  0.77149  0.98536  0.56680  1.0000
  Fe  Fe758     1.0  0.95032  0.81897  0.45795  1.0000
  H   H6039     1.0  0.90936  0.73758  0.43740  1.0000
  C   C3779     1.0  0.88838  0.74577  0.43763  1.0000
  H   H6040     1.0  0.88125  0.74986  0.43380  1.0000
  S   S1513     1.0  0.80765  0.97078  0.44648  1.0000
  C   C3780     1.0  0.76874  0.95972  0.44786  1.0000
  H   H6041     1.0  0.89127  0.73724  0.43613  1.0000
  N   N380      1.0  0.89816  0.93239  0.53806  1.0000
  C   C3781     1.0  0.95372  0.70590  0.41603  1.0000
  H   H6042     1.0  0.74750  0.97112  0.41187  1.0000
  H   H6043     1.0  0.96151  0.78368  0.42788  1.0000
  C   C3782     1.0  0.98148  0.69321  0.53289  1.0000
  H   H6044     1.0  0.97162  0.76595  0.50117  1.0000
  S   S1514     1.0  0.95880  0.75075  0.53096  1.0000
  H   H6045     1.0  0.75939  0.93064  0.52374  1.0000
  H   H6046     1.0  0.96854  0.87206  0.52861  1.0000
  H   H6047     1.0  0.95935  0.76150  0.44411  1.0000
  C   C3783     1.0  0.75033  0.96196  0.44550  1.0000
  S   S1515     1.0  0.98199  0.81678  0.52337  1.0000
  H   H6048     1.0  0.96455  0.68863  0.45170  1.0000
  C   C3784     1.0  0.98527  0.77715  0.50906  1.0000
  H   H6049     1.0  0.95280  0.76586  0.51039  1.0000
  C   C3785     1.0  0.76616  0.97049  0.44941  1.0000
  C   C3786     1.0  0.98232  0.67484  0.53087  1.0000
  C   C3787     1.0  0.74809  0.97962  0.40703  1.0000
  H   H6050     1.0  0.77253  0.92534  0.50718  1.0000
  C   C3788     1.0  0.95922  0.78536  0.50531  1.0000
  H   H6051     1.0  0.95610  0.74919  0.48216  1.0000
  C   C3789     1.0  0.84624  0.95319  0.45606  1.0000
  H   H6052     1.0  0.94880  0.77913  0.41959  1.0000
  H   H6053     1.0  0.94406  0.87575  0.43518  1.0000
  H   H6054     1.0  0.75759  0.97336  0.42416  1.0000
  S   S1516     1.0  0.79277  0.96917  0.47180  1.0000
  H   H6055     1.0  0.75294  0.94295  0.51541  1.0000
  H   H6056     1.0  0.94817  0.76843  0.49793  1.0000
  S   S1517     1.0  0.74105  0.95694  0.44161  1.0000
  H   H6057     1.0  0.89281  0.94994  0.53283  1.0000
  Fe  Fe759     1.0  0.96760  0.79770  0.45611  1.0000
  S   S1518     1.0  0.95591  0.71282  0.47848  1.0000
  H   H6058     1.0  0.94801  0.68442  0.43722  1.0000
  H   H6059     1.0  0.75904  0.97679  0.55963  1.0000
  C   C3790     1.0  0.95721  0.74051  0.48595  1.0000
  H   H6060     1.0  0.93904  0.69711  0.43275  1.0000
  C   C3791     1.0  0.98338  0.84344  0.43882  1.0000
  C   C3792     1.0  0.95111  0.69764  0.54367  1.0000
  H   H6061     1.0  0.97293  0.77805  0.41818  1.0000
  H   H6062     1.0  0.96540  0.89026  0.47370  1.0000
  C   C3793     1.0  0.74770  0.97260  0.44743  1.0000
  S   S1519     1.0  0.97760  0.83175  0.49914  1.0000
  C   C3794     1.0  0.95945  0.71812  0.49600  1.0000
  C   C3795     1.0  0.98124  0.77747  0.53134  1.0000
  Fe  Fe760     1.0  0.97659  0.81472  0.50920  1.0000
  H   H6063     1.0  0.89064  0.92130  0.53466  1.0000
  C   C3796     1.0  0.89302  0.76321  0.43532  1.0000
  S   S1520     1.0  0.98273  0.79956  0.50204  1.0000
  H   H6064     1.0  0.89626  0.93365  0.55476  1.0000
  H   H6065     1.0  0.75805  0.94376  0.52662  1.0000
  H   H6066     1.0  0.96775  0.88929  0.48691  1.0000
  Fe  Fe761     1.0  0.97502  0.74343  0.53532  1.0000
  C   C3797     1.0  0.98705  0.85858  0.53551  1.0000
  Fe  Fe762     1.0  0.96100  0.90188  0.45030  1.0000
  S   S1521     1.0  0.95735  0.72552  0.53184  1.0000
  H   H6067     1.0  0.96304  0.72243  0.50934  1.0000
  C   C3798     1.0  0.97822  0.66079  0.44299  1.0000
  C   C3799     1.0  0.97858  0.84739  0.42966  1.0000
  C   C3800     1.0  0.90697  0.93153  0.52810  1.0000
  H   H6068     1.0  0.96787  0.76719  0.48848  1.0000
  Fe  Fe763     1.0  0.98149  0.83429  0.51397  1.0000
  Fe  Fe764     1.0  0.97368  0.72003  0.53623  1.0000
  H   H6069     1.0  0.85365  0.95217  0.47356  1.0000
  H   H6070     1.0  0.97223  0.66686  0.49484  1.0000
  H   H6071     1.0  0.98188  0.70587  0.51799  1.0000
  C   C3801     1.0  0.96861  0.77198  0.49407  1.0000
  H   H6072     1.0  0.89944  0.76813  0.43203  1.0000
  H   H6073     1.0  0.96374  0.86159  0.48836  1.0000
  H   H6074     1.0  0.95075  0.76530  0.41803  1.0000
  C   C3802     1.0  0.96086  0.72546  0.50140  1.0000
  H   H6075     1.0  0.94093  0.70427  0.52063  1.0000
  S   S1522     1.0  0.95079  0.80369  0.45285  1.0000
  C   C3803     1.0  0.89490  0.65630  0.51502  1.0000
  C   C3804     1.0  0.97695  0.77014  0.45790  1.0000
  S   S1523     1.0  0.98052  0.70192  0.54153  1.0000
  C   C3805     1.0  0.95726  0.72197  0.48543  1.0000
  H   H6076     1.0  0.96090  0.79186  0.48310  1.0000
  H   H6077     1.0  0.95155  0.82034  0.48006  1.0000
  H   H6078     1.0  0.95022  0.75833  0.43794  1.0000
  C   C3806     1.0  0.85325  0.96977  0.44857  1.0000
  S   S1524     1.0  0.73814  0.95623  0.50143  1.0000
  S   S1525     1.0  0.97329  0.90689  0.45573  1.0000
  S   S1526     1.0  0.93503  0.82850  0.46720  1.0000
  H   H6079     1.0  0.94712  0.79337  0.49045  1.0000
  H   H6080     1.0  0.96520  0.79066  0.50111  1.0000
  H   H6081     1.0  0.86082  0.96528  0.44382  1.0000
  S   S1527     1.0  0.95982  0.71093  0.44793  1.0000
  Fe  Fe765     1.0  0.95933  0.81173  0.43624  1.0000
  H   H6082     1.0  0.98548  0.84337  0.53287  1.0000
  H   H6083     1.0  0.88545  0.74501  0.44669  1.0000
  H   H6084     1.0  0.97502  0.75399  0.43040  1.0000
  H   H6085     1.0  0.96595  0.75077  0.42428  1.0000
  N   N381      1.0  0.95807  0.77926  0.49776  1.0000
  H   H6086     1.0  0.85521  0.97683  0.45038  1.0000
  H   H6087     1.0  0.95134  0.79087  0.50827  1.0000
  H   H6088     1.0  0.97257  0.74493  0.45973  1.0000
  C   C3807     1.0  0.95980  0.73665  0.49632  1.0000
  S   S1528     1.0  0.96251  0.74586  0.50226  1.0000
  Fe  Fe766     1.0  0.96127  0.72737  0.43663  1.0000
  H   H6089     1.0  0.96698  0.68009  0.42643  1.0000
  H   H6090     1.0  0.92246  0.66389  0.54827  1.0000
  H   H6091     1.0  0.88598  0.76782  0.43149  1.0000
  S   S1529     1.0  0.82808  0.98462  0.52865  1.0000
  H   H6092     1.0  0.88646  0.92309  0.54868  1.0000
  H   H6093     1.0  0.90918  0.92571  0.54907  1.0000
  H   H6094     1.0  0.88280  0.94325  0.54296  1.0000
  H   H6095     1.0  0.90387  0.93113  0.52107  1.0000
  S   S1530     1.0  0.96232  0.73485  0.44984  1.0000
  H   H6096     1.0  0.91093  0.93869  0.52542  1.0000
  H   H6097     1.0  0.97924  0.79505  0.52586  1.0000
  C   C3808     1.0  0.75565  0.97692  0.44913  1.0000
  C   C3809     1.0  0.95609  0.73316  0.48044  1.0000
  C   C3810     1.0  0.95508  0.77158  0.41808  1.0000
  H   H6098     1.0  0.84733  0.97328  0.44309  1.0000
  C   C3811     1.0  0.94771  0.69319  0.43286  1.0000
  H   H6099     1.0  0.94552  0.87206  0.48406  1.0000
  C   C3812     1.0  0.96845  0.68097  0.44921  1.0000
  H   H6100     1.0  0.97906  0.92286  0.40037  1.0000
  C   C3813     1.0  0.95083  0.68851  0.41530  1.0000
  C   C3814     1.0  0.98309  0.78722  0.51218  1.0000
  H   H6101     1.0  0.95144  0.67959  0.41928  1.0000
  C   C3815     1.0  0.98097  0.78736  0.52335  1.0000
  H   H6102     1.0  0.95621  0.67894  0.53662  1.0000
  C   C3816     1.0  0.91681  0.65913  0.54775  1.0000
  C   C3817     1.0  0.96736  0.77592  0.42632  1.0000
  N   N382      1.0  0.84874  0.96243  0.45882  1.0000
  H   H6103     1.0  0.75364  0.98530  0.45016  1.0000
  H   H6104     1.0  0.76403  0.98009  0.52399  1.0000
  H   H6105     1.0  0.98383  0.85654  0.54430  1.0000
  H   H6106     1.0  0.75682  0.97781  0.47093  1.0000
  S   S1531     1.0  0.97628  0.80480  0.43919  1.0000
  H   H6107     1.0  0.95285  0.78294  0.48252  1.0000
  C   C3818     1.0  0.97205  0.76108  0.46157  1.0000
  C   C3819     1.0  0.96711  0.66307  0.44782  1.0000
  H   H6108     1.0  0.94217  0.69219  0.41482  1.0000
  S   S1532     1.0  0.98741  0.92646  0.43065  1.0000
  C   C3820     1.0  0.97073  0.67469  0.48870  1.0000
  H   H6109     1.0  0.93006  0.69856  0.54499  1.0000
  C   C3821     1.0  0.76515  0.98086  0.55314  1.0000
  H   H6110     1.0  0.83247  0.97214  0.45959  1.0000
  Fe  Fe767     1.0  0.98282  0.88965  0.45543  1.0000
  S   S1533     1.0  0.98136  0.73273  0.52290  1.0000
  Fe  Fe768     1.0  0.96458  0.73905  0.51959  1.0000
  C   C3822     1.0  0.91117  0.66163  0.42787  1.0000
  C   C3823     1.0  0.93121  0.66170  0.46799  1.0000
  S   S1534     1.0  0.98296  0.90858  0.53892  1.0000
  H   H6111     1.0  0.98230  0.81822  0.48233  1.0000
  H   H6112     1.0  0.94837  0.77210  0.43960  1.0000
  C   C3824     1.0  0.85673  0.95802  0.46594  1.0000
  C   C3825     1.0  0.98163  0.68202  0.53751  1.0000
  H   H6113     1.0  0.95577  0.68908  0.40671  1.0000
  C   C3826     1.0  0.95412  0.68660  0.53035  1.0000
  C   C3827     1.0  0.98051  0.86591  0.42836  1.0000
  H   H6114     1.0  0.96514  0.76102  0.46847  1.0000
  H   H6115     1.0  0.75563  0.97892  0.40042  1.0000
  C   C3828     1.0  0.98762  0.81454  0.47533  1.0000
  H   H6116     1.0  0.83498  0.96355  0.47255  1.0000
  H   H6117     1.0  0.97385  0.86159  0.41708  1.0000
  H   H6118     1.0  0.75043  0.97056  0.48402  1.0000
  H   H6119     1.0  0.96959  0.68143  0.49298  1.0000
  H   H6120     1.0  0.98243  0.72829  0.49658  1.0000
  H   H6121     1.0  0.91797  0.66330  0.42113  1.0000
  H   H6122     1.0  0.84024  0.95619  0.45066  1.0000
  H   H6123     1.0  0.96296  0.67534  0.48645  1.0000
  C   C3829     1.0  0.97733  0.85859  0.42431  1.0000
  H   H6124     1.0  0.97013  0.68771  0.46861  1.0000
  C   C3830     1.0  0.98318  0.67877  0.51952  1.0000
  C   C3831     1.0  0.75767  0.98195  0.41938  1.0000
  H   H6125     1.0  0.97998  0.74572  0.48211  1.0000
  H   H6126     1.0  0.84015  0.97582  0.46697  1.0000
  H   H6127     1.0  0.98712  0.77698  0.50042  1.0000
  H   H6128     1.0  0.98397  0.81860  0.46801  1.0000
  H   H6129     1.0  0.92440  0.67072  0.48539  1.0000
  S   S1535     1.0  0.81318  0.98640  0.46730  1.0000
  H   H6130     1.0  0.94820  0.65855  0.48483  1.0000
  H   H6131     1.0  0.97988  0.77764  0.53994  1.0000
  C   C3832     1.0  0.98545  0.75191  0.44793  1.0000
  H   H6132     1.0  0.96017  0.77371  0.40966  1.0000
  C   C3833     1.0  0.98496  0.76730  0.51711  1.0000
  H   H6133     1.0  0.92982  0.65920  0.49513  1.0000
  C   C3834     1.0  0.98507  0.86199  0.43765  1.0000
  H   H6134     1.0  0.98451  0.68674  0.46393  1.0000
  C   C3835     1.0  0.98435  0.66879  0.44098  1.0000
  C   C3836     1.0  0.98060  0.66647  0.47313  1.0000
  H   H6135     1.0  0.92356  0.65917  0.46875  1.0000
  C   C3837     1.0  0.98595  0.77022  0.44903  1.0000
  H   H6136     1.0  0.75779  0.98686  0.42517  1.0000
  N   N383      1.0  0.74818  0.98670  0.41420  1.0000
  H   H6137     1.0  0.76547  0.98167  0.41311  1.0000
  C   C3838     1.0  0.98664  0.85077  0.44276  1.0000
  H   H6138     1.0  0.98222  0.65810  0.47854  1.0000
  C   C3839     1.0  0.98782  0.72698  0.47516  1.0000
  H   H6139     1.0  0.98716  0.90026  0.41464  1.0000
  H   H6140     1.0  0.93728  0.65866  0.46096  1.0000
  S   S1536     1.0  0.96004  0.65627  0.52841  1.0000
  H   H6141     1.0  0.78360  0.98855  0.54620  1.0000
  N   N384      1.0  0.93523  0.65743  0.47832  1.0000
  H   H6142     1.0  0.95195  0.65780  0.47063  1.0000
  C   C3840     1.0  0.73806  0.98727  0.42285  1.0000
  H   H6143     1.0  0.98768  0.86755  0.44074  1.0000
  H   H6144     1.0  0.98773  0.92982  0.40331  1.0000
