data_image0
_chemical_formula_structural       FeS2FeS2FeSFeS2HSFeS2FeS2FeSFeS3FeS2HCHSHCFeS2FeS2FeSFeS3HCHCSH5CSFeS2FeSFeSHSH4CSH5SH2NC3SH5C2H4FeSCH2FeHC7H4CHCSHCHSHSC6H4C6H3CHC4H5C6H4C6H4C6H5CFeHNSC7H4C6H4CHC2HCSCH2NC4H13CFeSH3C4H7SHNH2CH3SHNHCH2CHC2HC3H2CHCHNCNCHCHC3H2FeHCHNH2SH4CHFeH2CH4NC3H8C2H4C2H2CHCH6SC2HCSHFeH2SC2H2C4H4NH2NC2HNSC3H3CHCH2SFeHSH3NH2SC2HFeH2SHCHFeHCHCHSNC2H2CHCH2CH4CH3NCHCNCHC2H5C2H6FeH2CHCHCH5CH2NH2CH2CH2CHCNH5CHCH6S3HSCH2CH3CHCHSCFeS3HFeCFeS3FeS2FeSFeCFeS2FeSHFeSFeS3FeHSFeNS2C2S2C2H2SFe2S2FeS2FeHFeS3CHSH2CHCH2C3NCH3NCHCHCH3CSH6SCH2CHC6H4CHCH7C6H4C6H4C6H4C6H3C6H4C6H4CHC5H3C6H5CS2FeNHCHCHC4H2CH2NSCNC4H12NC4H13FeSFeHCSCH4NH2FeHC2HC2H6C3H3NCH7CNC4H10SH3FeH2NFe2HCHS2H3C2HCHC3H2SCFeCH2C2SH3S2HFeH2SHCSH2CH3CH2CHNSCSH4C2HSH5C2H11CH8CH2SH3C2H2CSHC2H2CHSH2NC2HCH2C4HCH3CHCH3S2H2CHCH2CHCHCHFeSHFeS2FeSFeHS2FeS2FeS2HSFeS3FeS2FeS2FeHFeCS2FeCFeS2FeSHFeSFeCS2CSCFeHS2C3SFeS2H2CHFeSHSCH3C6H4SNH2SNC3HSHC8H5SCHFeH2CHNH5CHNHC6H4SHCSHC4H2C3H4C6H6C3H2C3HC2HFeCHSH2C2HNSHCH3FeCH2CH4CH2C4HSCH2SCHNCNHCSFeH2NH3SC2H3CHCSC3HSHC2H2SHCH2CFeHCH3CHCH4C2H2C3SH2CH3C2H4CHC2H3NH3CSH4SH2C3FeHC2H2CH2CHCHCSHCH2N2SFeH2C2FeHCH5C2H4NH3CH3CH3CH4CH3SHSH3C2SHCFeH9CFeH3NH2CH10CH3C2H3CFeS2FeS2FeSFeS3FeS2FeS2FeSFeS3FeS2FeS2FeSFeS3FeS2FeS2FeSFeS3HCSH8FeHSHSH2CFeS2FeS2FeHFeS3CFeS2FeSFeSFeS3HNH4CH10CH2C6H5C3HCH2CH4NSHC2H5C3HC3H4C2HC7H3C6H4C6H4C6H4C6H4C6H4C6H4C6H6C2HCH4CHC3H7NC4H12NCHC2H4NH7FeHCSH2CHNHC2H5NC4H12CNHC2HSH2SCHCSCH6SHSNC2H7CH6CHC2HCH2NCHCHCHCHCNHC2H7NC2H3CH3NHCNCH6CHC3H2C3HCHC2H4CH3CHCSNHCH3C2HFeH3CH3FeCH3SHC3HC2HC2H2CHNCH2NH2CHCHCHCH3CSH2CH5C2H3C3H4FeH3CH5FeH2CH2CH2CH3FeS2FeS2FeSFeS3FeSCFeS2FeSFeS3FeS2FeS2FeSFeS3FeS2FeS2FeSFeS3CHC2SCHSHCH6CH2FeS2FeSFeSFeS3HFeS2FeS2FeSFeS3HC2H5CS2HC2HCSH3C2H3CH2SHC6H4C2NH4CHFeH2N2H2C5H3CHC6H4C2HCH3CS2C2HC6H4C6H4C6H4C6H4C6H4C6H6C5NH3FeHFeSCHC2H2NC4H12NC2H8CFeSHCHC2HC2H3CFeH2CSC2HCHCH3NC4H12NH8C2H2CSH5CH2C3H3CSH3CHCNC3HSHCNC4H14CHC2HNHCHCHCH3C3H4CHCH3CH2CH2CHC2H5NH7CH2C2HCH4NHNCHNCH2CH8CHCHCH3CH9C4H5C2HFeHFeHSH2FeS3FeS2CHSHFeCS2H2FeSFe2SFeSHCFeHSFeHSH3S3C6H4C2SC3NH3C6FeH3C6FeH3C6H7CH3SCHCHCSHCH11SCH2NCSNHSC3H3SCH2CH4CHFe2HSFeNSH2C2NHCHCH2CHS2H2CHNCHSH8C2H6FeH6SCH3CH6C2H3FeS2FeS2FeSFeCS2Fe2SFeHCFeH3S2HCHFeCHFeS2FeSH2SHCFeNHSHFeH2CFe2SC7H4C6H2FeH5FeSHFeSH2SC3HSHC2HC3H4C6H4C2HCH3SHCH4NHC2HNH2S3HFeHSHSH2CHSFeH5CSC2H3SH5CHCHC5NCSHCH3NH4SC2HFeHSH2CH2CH9C2SCHSHCH2SNC2H5NCHFeS2FeS2FeHCHSHC2HFeS2FeS2FeHFeHS2FeS2FeS2FeHFeS3HSHS2FeHFeSHC7H4C6H5CH3CH4CHCH6C4H3CHC6H4CHC2SC2H2CHNH5CS2H4CHCHC4SHSHCHSC2HCH4CH2CSC3H7NCNH3CSHCHFeH3CHCHC3SCH2CH3CNH2C2H3NHC2HCSH2FeHNH3C2HCFeC2HSH3CH2C2H4CHFeH2CHCH2FeHNC2HCH2SHC2HSH5CH3C3H2CH3C2HCH5CNCH3CS2HNC2FeHFeSH2SFe2HFeSH2FeS4CFeSFeS4HNSC2HFeSH2FeCSFeS2HCFeS3FeS2HSC6H4C6H4C6H4CHC2HC7H5CHCSH2SH2SH4NC4H12NC2SCHSCSFeH2CSFeH5SH7SHCHFeC2HCH3CHCH4FeH2CHNSC2H2CS2FeSFeH2C2HCFeHCHFe2H2CHC3H3SC2H2CHC3H2CH2CSH4N2H7FeH3C2H6NH2CHC3S2NSCH2NCHCH6CFeS2FeS2FeSFeS3C2H2FeSHFeS2FeSCFeSFeS3H2C5HSCHC6H5CH2FeCHC9H5C3H4FeH2FeC3SH3SCHCH2SC2HCH2SCHCHSHC8H4C6H5C2H2CFeSH2CSHSNFeH4CHSCNCH2CH3SH4CHCNC4H4CH2SHCNHSHNC4H16CH6C2SH3FeCH5CHC3H4C3H6SCH2CFeH2C2H2NCNC2H2SH2SHC3NC3H5CHCH6CH2CFeCH6CHSH3SH2C2H7FeSCFeSCFeSFeS3FeS2FeS2FeSFeHS2FeS2FeS2FeSFeS2H3FeS2FeS2C2FeSHSCH5C2H2CHC2HCH3C2HCH2C2HCH2CHC4NCH3C4HCH4C6H4C6H4C6H8C2H3FeCHSH6NC3H6SH3FeHNFeH3C2H8C2H2CNH2C3HCH2SHNC3SCHSC2HCHS2CH2C3HNH3CHCH2CHCH3SCH2CH2CH4CH4NCH2NSH7CH3C2NCH3NH3CHCH3CHSHC2H5CHSH2CHCNHCH2CH5CHCH4CH9CHSFe2S2FeS2FeS2FeSFeS3HSCFeSFeSFeS2FeSHFeSFeS3HCSHSC2H7FeSC6H5CH2C2HSH2C2HCHCH2CHCHC6H4C6H4C5H4NHC6H8CN2C9H4CH3CHCSCHC3H2CHSCHCHNH2C2H2CHSHNFeH2C2HCH6C3SH6CH3SH4FeCHCHCH2C3HSC2HC2SHSCNH3CNH2C2NC2FeC2H3CHC2H4NH2C2HCH4CH5NCH2CH3C2H4CHC2H2NH4SH6FeHCH5SHC2H2CH3SHCHC2H2CH2CSHFeSCFeS2FeSCS2FeS2FeH3CH5SFeHSFeS2HFeHS2H4CSNH3CFeS2FeS2FeSFeHS2FeC6H5C2H4NH4CH3SH4CSCH2C2HCH3CSC5H4CHCHCH2C6H4C6H7CHC2H2C2H3SH2C2H6CHCHFeSCH2C2SH2NH2CSC2H2FeSCH3SHCHCHNC4H5FeH2C2HCH4CHC2H3CHCH3NCH6C2NH4CHC2HSH3S3H4CSFeS3CHC2SC2SHCHFeS2FeSFeSFeHFeNH3CNSCH6SH4C4H6CHC2HC2HSCHSH2CHC2HC2H2FeHNFeHCSH2FeH2C6H4C6H3C5H3NHC2H2CHC6H4SFeCHC2HS2HFeSH2C2SCH6SH2FeH5SC2H2CH3Fe2HSCHSH2C2FeH2C3HCSH5CHCFeH2CSCHNC3HCHCSCNH3CH2CH2CH2SC2NH2NHSH3SHCHCHNH8CHC3SH2FeH2FeH2CSHFeS2FeS2H2FeCS2CNSH4SCH2SHCFeS2FeSHFeSFeS3HFeS2C6H5CFeSHCSHC2H3CH3FeSNH2C6H4C8H4CH2CHC2HCH2SH2SH3CH2C3H3SNHC2HCH3CSHCH3CHCHCFeH2CH3FeH2NHFeHC2SHFeHCH2NH2CH2SC2SCHSC3HFeCSHC2HC2HC2HCH3CH3FeCHSH3SH2CNHCH6NFeSFeSCFeS3HCH2CH3CNHC2FeS2FeS2FeSFeS3FeS2FeS2FeSFeS3HFeSHFeS2FeSFeS3H3CH3C2HC3H5CHCHNHC9H6NH2CS2H2C6H6C6H5C3H5CHC2H4C6H5C3HC3HCSC2H6CH5CH4NH3CH2CHCHCH4C3NH3C3H4C2HCSH2CH4CHCH5C2H2CNH2CHC2H4CHCHNH5C2HC3HNFeN2C2H7CH2C2H9SCH3CHCH3CHCSHFeS2FeSFeS3HS2CH2FeS2HSHFeSFeS3FeHSFeH4CHS2HNSHCHC3H2C2HCFeH2CHCSHCH3CH2C7H4C6H6FeH4S3HC2FeCHCHSC7H4C3HFeC6H2CHSCHSHNCSHSH2CHFeH3NC4H15CH3Fe2H5FeS2FeS2FeSFeS3FeSCFeSHFeSCSCFeS2FeS2FeSFeS3FeS2FeSHFeCFeS3FeCSNHNH4CH3NHCH3FeC6H4C6H4C2H2CHCH4C2H2SH3C6H4C6H4C2H3C3HCSH2CFeH2SH2CH3C2H3CHCH2C2H2NC4H8CH3NC4H12NC4H10CHNC3H8NH3C2HNSNC4H12SH3C4S2FeHSC2HSCHCHSC2FeNC2FeCFeS2CH2NC2H2SC2FeHCHCH2CHS2CH4NHCH2CH2C2HC2HSH3SHCHC2H3SH2CSCH4CH2CH4CH2C2H4CH10C2HSH2CH3NH5CHFeSCFeS2FeSFeS3FeS2FeS2FeSFeS3FeS2FeS2FeHFeCS2HCH2C2H2CHCHNCH3FeCSFeC2H2SH4NHCH2CFeHSH2CH4C2H3CNSH2C6H7CH4CHC2HC3H2CHC6H4CH6NHFeC6H4C6H5CHSC3SH2NCH4CH2C2H2SHC3H2CH3SCH4CHNHSHCHCH6CH2CHFe2NC4H4CH2CH3SCH2SFeHCNHCH2CH2CHSHNCH2CSH2CH3C2SH5CSH4CHCHCHCH2FeSHFeS2FeCFeS3FeS2FeS2FeSFeS3CHSCHFeS2FeSHFeSFeS3FeS2FeH2SCH2S2CH2C2HC2FeCH2C6H4CH3CNH4C6H4C6H4CHCH2C6H4CSHCHCH3CHFeHC2H2CNHCH2CHSH4CSHS2H5CNCNC4H12C2H4CH4CHC2H4CH2CHCH2NH4FeHC2H3CHSH2C2FeSH4FeH5SCHC2H2CH3CSH3SCHSCNHCHNC5H8C2HC4H3CHSCNCHCFeH6NC2H2C2HSCH3SH4CHCHCH2CHCHC2HCHCH2NHCHCH3SH6SHFeSHFeS2FeSFeS3FeS2FeS2FeHFeS3FeS2FeS2FeCFeS3FeS2FeS2FeHFeS3CHCH2C6H5CHC3H3C7H4C2H2C2HC6H4C6H4SH7CH6CSH3SH2SH2CHC3HCH3SHCH2NCH6NC4H10CHNC5HCH2CH2CH2C2HSCH3C2H3CNC2HCNC4H12C2H2CHC2H3C8H2CHCHCNH5CH4C4HC3HCH3CH5CH6NCHCHNCHNH6C3H10CH6CSCH2NH4CHC2H6CH3N2H2NC2H2CHNCH2CH3NC2H3C2H5CHCSCSHNH2C3H3SCHC2HSH2FeH3CSHFeS2FeS2FeSFeS3FeSHFeS2FeSFeS3FeS2FeS2FeSFeCS2FeS2FeS2FeSFeS3FeS2FeS2FeSFeCS2FeS2FeNSFeCFeCS2HC2HSH5CH2CFeHCNC3SH2C6H4CH3SHCH2FeC6H2CHCHCSC3H2C6H4CH3CH4C7H4C6H4C6H4C6H4C6H4C6H4CH2C2HS2H2C3H5CSHSH2CHCH2NCH3NC4H12SH2CH2CH6CHCHCH3SC2H3NC4H14NHSH8S2CH7C3NH6SH2CH4NHCH3C2NH5CH3FeCH4C2NCH3CFeCNH4FeH2CHC2H3C2HFeHCNH4CHC2HCH2CHCHC2HS2H2CH3C2HFeH3C2H2CHCHFeCHNH4SHFeCH8C2SHC2HC3HFe2S2FeS2FeSFeS3FeSCFeS2FeSFeS3FeS2FeS2FeSFeS3FeS2FeS2FeHFeS3FeSFe2S2FeSFeS3FeS2FeS2FeHFeS3H4NHFeH2C6H4C6H4C6H4C6H4C6H4C6H4C6H4C6H7CSH2N2CHCHCHCH6C2HCH10CHCHCHC3HC6H6CHCHCHCH4CHSCH3CFeCHNH2NC4H19SHCHNC2SCHCHNHFeCNC4H13NHCSH2CH2CH2CH3C2NCHCH2CSH2CH9C2H2CHSHNH2C2H5NSH3CHFeH11FeHSFeCS2H3SCH2CHCH3CH5C2H3CH3CH2NFeCHCH3CH4FeHC3NCSCHCSH3C4H3CHSHCH2SCHNH2SC3H4SCSHCH4CH2NHSCHS3CH2SHSCFeS2FeS2HCFeH2SFeSHFeSC3FeHCSNSCSH2FeS3FeCHSCH2FeH5SH5FeCSCSH3SCHSH2SC6H4CH2SH4C2SCH5FeSH2CHC5H3C6SH3CHC6H5S2HC6HCHCH6SHNC6H7CFeCHC2HCH2FeHC2FeSCNFeHFeSHC2H5FeHNH3FeHSH2SH5S2CH2CH3FeH2NSHCHFeCHSC3H2SHCH2FeHFeH2CHCHSCHNSFeH2CSH8CN2CHFeH6C2H5NCH2C2HCH3CHFeS2FeS2FeSFeHS2CSFeS2FeSFeS3FeS2FeS2FeSFeS3HFeHNFeS2H2SH2SNCH2CH2S2HSHSCH3CH2C3HSH3C2HFeSCFeS2FeSFeS4HC2SH2C7NH4CHCHCH5C2NH4CH3C2H2CHSHSCH3NC6H4C6H3C6H4C6H4CH2C6H4C6H4C6H6FeHCH2FeHCH2NC4HCH4NC4H13SHC2S2CHNC4H12NSH3C3H3CHC3SNC4H12CH4C4H9CSHCHCHFeH2C2H2CH6CHFeH2C2HC2S2CFeH3CH2FeCHFeH3CSH5SNHC3HCSH2SHCH5CSCH5CH3FeCNCH6CHCHCH4C2H5CNHFeCHCHSCH3NH3C3H2C2HSCFeS2FeS2FeS3FeS2FeS2FeSFeS3NS2H2FeS2FeS2FeSFeS2FeS2H4SC3HFeHCNH2SFeCSFeHSH2FeCS2H4FeCSH3CH2SC2H2C5H4CHCH9C2SCH2C2H4CH2CHNSCHC3H4C6H4CH2CHNH3C7H3Fe2HC6H4C6H4C6H4C2H2C2HSH2C6H5C2H6NC4H4CH2CH5C2HC2SHFeN2H2CNCSHSFeH2SC2SHC3H6CS3HCH2CH3C3FeCHSNH3SHCS2CHC2H2C2H5C2H4C2FeCH4CH2SHCHCH4SHNHC2H3CH2FeCHC2NCFeC2H4NHSCH9CHCHC2H5NH3CH3SH3C4HCH5CH2C2H3C3HCHSH2SHSNHC2H2SH3CHFeH5C2FeH2CHNHCH2C2H2CH3CH2CHCH
_chemical_formula_sum              "Fe576 S1152 H4608 C2880 N288"
_cell_length_a       106.882
_cell_length_b       106.333
_cell_length_c       106.253
_cell_angle_alpha    73.7231
_cell_angle_beta     73.6804
_cell_angle_gamma    73.6995

_space_group_name_H-M_alt    "P 1"
_space_group_IT_number       1

loop_
  _space_group_symop_operation_xyz
  'x, y, z'

loop_
  _atom_site_type_symbol
  _atom_site_label
  _atom_site_symmetry_multiplicity
  _atom_site_fract_x
  _atom_site_fract_y
  _atom_site_fract_z
  _atom_site_occupancy
  Fe  Fe1       1.0  0.11164  0.03480  0.43723  1.0000
  S   S1        1.0  0.10054  0.03857  0.42100  1.0000
  S   S2        1.0  0.10398  0.04079  0.45709  1.0000
  Fe  Fe2       1.0  0.13816  0.02240  0.42138  1.0000
  S   S3        1.0  0.12989  0.02560  0.40324  1.0000
  S   S4        1.0  0.15763  0.00892  0.42587  1.0000
  Fe  Fe3       1.0  0.11855  0.04577  0.40757  1.0000
  S   S5        1.0  0.11613  0.06455  0.39138  1.0000
  Fe  Fe4       1.0  0.11238  0.01819  0.41772  1.0000
  S   S6        1.0  0.12890  0.04355  0.42392  1.0000
  S   S7        1.0  0.12130  0.01356  0.43560  1.0000
  H   H1        1.0  0.21171  0.00687  0.47995  1.0000
  S   S8        1.0  0.11135  0.04882  0.53202  1.0000
  Fe  Fe5       1.0  0.01732  0.12397  0.41429  1.0000
  S   S9        1.0  0.02473  0.13334  0.42650  1.0000
  S   S10       1.0  0.03220  0.10785  0.52792  1.0000
  Fe  Fe6       1.0  0.04564  0.11118  0.40132  1.0000
  S   S11       1.0  0.05541  0.11975  0.41210  1.0000
  S   S12       1.0  0.05783  0.09829  0.38658  1.0000
  Fe  Fe7       1.0  0.03936  0.11367  0.42979  1.0000
  S   S13       1.0  0.04314  0.10377  0.45028  1.0000
  Fe  Fe8       1.0  0.03998  0.13881  0.40782  1.0000
  S   S14       1.0  0.04350  0.15997  0.40036  1.0000
  S   S15       1.0  0.03062  0.10364  0.41945  1.0000
  S   S16       1.0  0.03159  0.13084  0.39517  1.0000
  Fe  Fe9       1.0  0.07581  0.12340  0.51499  1.0000
  S   S17       1.0  0.07194  0.14477  0.50311  1.0000
  S   S18       1.0  0.09690  0.11240  0.51670  1.0000
  H   H2        1.0  0.15707  0.06849  0.51912  1.0000
  C   C1        1.0  0.14790  0.07608  0.52220  1.0000
  H   H3        1.0  0.21560  0.02313  0.47593  1.0000
  S   S19       1.0  0.10616  0.00389  0.40977  1.0000
  H   H4        1.0  0.17958  0.06967  0.42593  1.0000
  C   C2        1.0  0.04861  0.27545  0.39185  1.0000
  Fe  Fe10      1.0  0.05141  0.24112  0.42823  1.0000
  S   S20       1.0  0.03302  0.25640  0.42449  1.0000
  S   S21       1.0  0.07006  0.24812  0.42622  1.0000
  Fe  Fe11      1.0  0.03775  0.21759  0.43446  1.0000
  S   S22       1.0  0.01800  0.23130  0.43166  1.0000
  S   S23       1.0  0.03992  0.19503  0.44147  1.0000
  Fe  Fe12      1.0  0.03047  0.24247  0.41354  1.0000
  S   S24       1.0  0.02612  0.25115  0.39299  1.0000
  Fe  Fe13      1.0  0.02252  0.24394  0.44284  1.0000
  S   S25       1.0  0.00791  0.25392  0.45883  1.0000
  S   S26       1.0  0.04996  0.22801  0.41560  1.0000
  S   S27       1.0  0.04116  0.22928  0.44746  1.0000
  H   H5        1.0  0.15052  0.08610  0.51862  1.0000
  C   C3        1.0  0.17007  0.06041  0.45216  1.0000
  H   H6        1.0  0.16236  0.06547  0.54107  1.0000
  C   C4        1.0  0.13052  0.08326  0.54053  1.0000
  S   S28       1.0  0.03991  0.24288  0.50332  1.0000
  H   H7        1.0  0.03755  0.16874  0.37439  1.0000
  H   H8        1.0  0.02304  0.28060  0.40676  1.0000
  H   H9        1.0  0.03257  0.12140  0.50033  1.0000
  H   H10       1.0  0.08823  0.01965  0.38743  1.0000
  H   H11       1.0  0.16042  0.05868  0.45167  1.0000
  C   C5        1.0  0.05041  0.18026  0.52146  1.0000
  S   S29       1.0  0.04260  0.23720  0.53475  1.0000
  Fe  Fe14      1.0  0.04418  0.26298  0.50057  1.0000
  S   S30       1.0  0.06191  0.25495  0.51020  1.0000
  S   S31       1.0  0.04266  0.27787  0.48107  1.0000
  Fe  Fe15      1.0  0.05620  0.23498  0.51468  1.0000
  S   S32       1.0  0.07042  0.21608  0.50955  1.0000
  Fe  Fe16      1.0  0.04680  0.25791  0.52935  1.0000
  S   S33       1.0  0.04622  0.26829  0.54540  1.0000
  H   H12       1.0  0.18865  0.05374  0.42209  1.0000
  S   S34       1.0  0.02966  0.26751  0.51916  1.0000
  H   H13       1.0  0.07375  0.08039  0.43022  1.0000
  H   H14       1.0  0.08465  0.07476  0.46178  1.0000
  H   H15       1.0  0.05897  0.24045  0.45512  1.0000
  H   H16       1.0  0.05880  0.25754  0.45410  1.0000
  C   C6        1.0  0.00824  0.17447  0.54840  1.0000
  S   S35       1.0  0.14568  0.02451  0.53671  1.0000
  H   H17       1.0  0.01907  0.16058  0.39225  1.0000
  H   H18       1.0  0.00534  0.14927  0.48048  1.0000
  H   H19       1.0  0.00662  0.17891  0.36110  1.0000
  H   H20       1.0  0.08278  0.02959  0.40730  1.0000
  H   H21       1.0  0.09480  0.99815  0.43846  1.0000
  S   S36       1.0  0.04095  0.14203  0.50782  1.0000
  H   H22       1.0  0.02991  0.29793  0.51670  1.0000
  H   H23       1.0  0.21844  0.99739  0.51429  1.0000
  N   N1        1.0  0.01065  0.15707  0.45917  1.0000
  C   C7        1.0  0.20902  0.99275  0.39776  1.0000
  C   C8        1.0  0.00552  0.22566  0.38095  1.0000
  C   C9        1.0  0.99379  0.31885  0.41620  1.0000
  S   S37       1.0  0.07028  0.31000  0.40290  1.0000
  H   H24       1.0  0.08149  0.22604  0.47919  1.0000
  H   H25       1.0  0.01722  0.12455  0.48555  1.0000
  H   H26       1.0  0.04390  0.26667  0.39462  1.0000
  H   H27       1.0  0.12251  0.08330  0.53569  1.0000
  H   H28       1.0  0.18570  0.04178  0.40309  1.0000
  C   C10       1.0  0.00289  0.11494  0.50109  1.0000
  C   C11       1.0  0.20177  0.03638  0.52946  1.0000
  H   H29       1.0  0.03408  0.20358  0.46733  1.0000
  H   H30       1.0  0.02780  0.14644  0.44707  1.0000
  H   H31       1.0  0.00680  0.10060  0.53317  1.0000
  H   H32       1.0  0.05753  0.19122  0.45989  1.0000
  Fe  Fe17      1.0  0.05292  0.14770  0.51878  1.0000
  S   S38       1.0  0.06577  0.11589  0.50362  1.0000
  C   C12       1.0  0.04316  0.19266  0.52450  1.0000
  H   H33       1.0  0.04958  0.30373  0.48141  1.0000
  H   H34       1.0  0.06483  0.17678  0.47131  1.0000
  Fe  Fe18      1.0  0.02676  0.24670  0.52290  1.0000
  H   H35       1.0  0.22584  0.99114  0.37380  1.0000
  C   C13       1.0  0.07852  0.07822  0.45404  1.0000
  C   C14       1.0  0.05504  0.28105  0.54194  1.0000
  C   C15       1.0  0.06738  0.28085  0.53277  1.0000
  C   C16       1.0  0.07380  0.29157  0.52985  1.0000
  C   C17       1.0  0.06787  0.30250  0.53606  1.0000
  C   C18       1.0  0.05578  0.30246  0.54550  1.0000
  C   C19       1.0  0.04945  0.29173  0.54852  1.0000
  H   H36       1.0  0.07195  0.27246  0.52793  1.0000
  H   H37       1.0  0.08325  0.29148  0.52265  1.0000
  H   H38       1.0  0.06104  0.31120  0.48471  1.0000
  H   H39       1.0  0.04006  0.29181  0.55583  1.0000
  C   C20       1.0  0.05565  0.29037  0.50501  1.0000
  H   H40       1.0  0.01697  0.09468  0.45868  1.0000
  C   C21       1.0  0.00489  0.22451  0.39452  1.0000
  S   S39       1.0  0.00573  0.24405  0.52922  1.0000
  H   H41       1.0  0.03023  0.16733  0.36173  1.0000
  C   C22       1.0  0.00334  0.23462  0.51936  1.0000
  H   H42       1.0  0.23802  0.01275  0.48210  1.0000
  S   S40       1.0  0.23937  0.00355  0.42901  1.0000
  H   H43       1.0  0.08310  0.09299  0.42074  1.0000
  S   S41       1.0  0.21497  0.02064  0.44873  1.0000
  C   C23       1.0  0.06959  0.26546  0.42021  1.0000
  C   C24       1.0  0.05863  0.27527  0.42474  1.0000
  C   C25       1.0  0.05887  0.28904  0.41997  1.0000
  C   C26       1.0  0.06992  0.29297  0.41037  1.0000
  C   C27       1.0  0.08072  0.28312  0.40579  1.0000
  C   C28       1.0  0.08066  0.26946  0.41087  1.0000
  H   H44       1.0  0.05008  0.27225  0.43203  1.0000
  H   H45       1.0  0.05043  0.29658  0.42350  1.0000
  H   H46       1.0  0.08925  0.28605  0.39834  1.0000
  H   H47       1.0  0.08918  0.26197  0.40736  1.0000
  C   C29       1.0  0.01634  0.26219  0.46485  1.0000
  C   C30       1.0  0.02558  0.26947  0.45595  1.0000
  C   C31       1.0  0.03307  0.27516  0.46089  1.0000
  C   C32       1.0  0.03143  0.27342  0.47475  1.0000
  C   C33       1.0  0.02162  0.26688  0.48360  1.0000
  C   C34       1.0  0.01414  0.26120  0.47867  1.0000
  H   H48       1.0  0.02705  0.27059  0.44526  1.0000
  H   H49       1.0  0.04055  0.28036  0.45401  1.0000
  H   H50       1.0  0.02004  0.26579  0.49432  1.0000
  C   C35       1.0  0.01908  0.24050  0.38843  1.0000
  H   H51       1.0  0.14954  0.07068  0.55483  1.0000
  C   C36       1.0  0.06382  0.17895  0.51464  1.0000
  C   C37       1.0  0.06995  0.18995  0.51100  1.0000
  C   C38       1.0  0.06270  0.20231  0.51417  1.0000
  C   C39       1.0  0.04930  0.20361  0.52090  1.0000
  H   H52       1.0  0.15199  0.02670  0.45433  1.0000
  H   H53       1.0  0.06955  0.16940  0.51239  1.0000
  H   H54       1.0  0.08037  0.18884  0.50589  1.0000
  H   H55       1.0  0.01132  0.28480  0.54425  1.0000
  H   H56       1.0  0.08140  0.24966  0.47755  1.0000
  C   C40       1.0  0.04295  0.16959  0.41175  1.0000
  C   C41       1.0  0.04409  0.16352  0.42499  1.0000
  C   C42       1.0  0.04360  0.17139  0.43386  1.0000
  C   C43       1.0  0.04156  0.18543  0.42970  1.0000
  C   C44       1.0  0.04055  0.19150  0.41642  1.0000
  C   C45       1.0  0.04145  0.18359  0.40744  1.0000
  H   H57       1.0  0.04564  0.15273  0.42824  1.0000
  H   H58       1.0  0.04482  0.16661  0.44399  1.0000
  H   H59       1.0  0.03911  0.20230  0.41305  1.0000
  H   H60       1.0  0.04092  0.18838  0.39713  1.0000
  C   C46       1.0  0.04878  0.11474  0.45587  1.0000
  C   C47       1.0  0.04834  0.11270  0.46952  1.0000
  C   C48       1.0  0.05222  0.12181  0.47414  1.0000
  C   C49       1.0  0.05669  0.13287  0.46517  1.0000
  C   C50       1.0  0.05748  0.13470  0.45145  1.0000
  C   C51       1.0  0.05342  0.12570  0.44680  1.0000
  H   H61       1.0  0.04466  0.10431  0.47660  1.0000
  H   H62       1.0  0.05152  0.12040  0.48468  1.0000
  H   H63       1.0  0.06107  0.14319  0.44444  1.0000
  H   H64       1.0  0.05381  0.12735  0.43623  1.0000
  C   C52       1.0  0.10715  0.06649  0.52719  1.0000
  C   C53       1.0  0.09622  0.07363  0.53517  1.0000
  C   C54       1.0  0.09264  0.08772  0.53165  1.0000
  C   C55       1.0  0.10017  0.09476  0.52027  1.0000
  C   C56       1.0  0.11117  0.08763  0.51234  1.0000
  C   C57       1.0  0.11453  0.07352  0.51567  1.0000
  H   H65       1.0  0.09069  0.06824  0.54426  1.0000
  H   H66       1.0  0.08439  0.09319  0.53801  1.0000
  H   H67       1.0  0.11706  0.09306  0.50356  1.0000
  H   H68       1.0  0.12279  0.06812  0.50930  1.0000
  H   H69       1.0  0.13126  0.02754  0.44830  1.0000
  C   C58       1.0  0.99999  0.10817  0.51456  1.0000
  Fe  Fe19      1.0  0.13199  0.03772  0.52315  1.0000
  H   H70       1.0  0.04372  0.21303  0.52356  1.0000
  N   N2        1.0  0.18147  0.05341  0.44319  1.0000
  S   S42       1.0  0.15686  0.03424  0.47587  1.0000
  C   C59       1.0  0.09968  0.03977  0.38548  1.0000
  C   C60       1.0  0.09986  0.07427  0.39077  1.0000
  C   C61       1.0  0.08919  0.07356  0.40204  1.0000
  C   C62       1.0  0.07628  0.08131  0.40099  1.0000
  C   C63       1.0  0.07402  0.08961  0.38865  1.0000
  C   C64       1.0  0.08467  0.09014  0.37743  1.0000
  C   C65       1.0  0.09755  0.08267  0.37853  1.0000
  H   H71       1.0  0.09089  0.06715  0.41153  1.0000
  H   H72       1.0  0.06797  0.08062  0.40957  1.0000
  H   H73       1.0  0.08295  0.09642  0.36784  1.0000
  H   H74       1.0  0.10572  0.08327  0.36979  1.0000
  C   C66       1.0  0.17173  0.01571  0.42271  1.0000
  C   C67       1.0  0.18226  0.00845  0.42909  1.0000
  C   C68       1.0  0.19391  0.01330  0.42631  1.0000
  C   C69       1.0  0.19524  0.02526  0.41683  1.0000
  C   C70       1.0  0.18471  0.03253  0.41046  1.0000
  C   C71       1.0  0.17290  0.02787  0.41352  1.0000
  H   H75       1.0  0.18143  0.99900  0.43615  1.0000
  H   H76       1.0  0.20195  0.00764  0.43131  1.0000
  H   H77       1.0  0.01081  0.23126  0.40874  1.0000
  H   H78       1.0  0.16485  0.03348  0.40851  1.0000
  C   C72       1.0  0.11840  0.03860  0.46302  1.0000
  H   H79       1.0  0.23425  0.06851  0.48966  1.0000
  C   C73       1.0  0.12968  0.04230  0.47815  1.0000
  C   C74       1.0  0.11786  0.04358  0.47409  1.0000
  H   H80       1.0  0.00531  0.08733  0.44573  1.0000
  C   C75       1.0  0.01169  0.23191  0.39825  1.0000
  S   S43       1.0  0.14765  0.04821  0.50887  1.0000
  C   C76       1.0  0.14253  0.03149  0.45985  1.0000
  H   H81       1.0  0.14039  0.07614  0.51675  1.0000
  H   H82       1.0  0.99826  0.08311  0.47059  1.0000
  N   N3        1.0  0.05988  0.07162  0.52923  1.0000
  C   C77       1.0  0.06467  0.08151  0.51719  1.0000
  C   C78       1.0  0.04706  0.06954  0.52837  1.0000
  C   C79       1.0  0.05783  0.07677  0.54138  1.0000
  C   C80       1.0  0.06989  0.05876  0.52994  1.0000
  H   H83       1.0  0.07410  0.08373  0.51767  1.0000
  H   H84       1.0  0.05711  0.09116  0.51619  1.0000
  H   H85       1.0  0.06664  0.07787  0.50783  1.0000
  H   H86       1.0  0.04815  0.06582  0.51923  1.0000
  H   H87       1.0  0.04312  0.06213  0.53728  1.0000
  H   H88       1.0  0.03928  0.07909  0.52788  1.0000
  H   H89       1.0  0.06723  0.07862  0.54231  1.0000
  H   H90       1.0  0.05420  0.06960  0.55069  1.0000
  H   H91       1.0  0.05034  0.08649  0.54113  1.0000
  H   H92       1.0  0.07152  0.05450  0.52101  1.0000
  H   H93       1.0  0.06677  0.05113  0.53906  1.0000
  H   H94       1.0  0.07978  0.06003  0.53028  1.0000
  H   H95       1.0  0.00167  0.17722  0.45011  1.0000
  C   C81       1.0  0.02009  0.24128  0.37483  1.0000
  Fe  Fe20      1.0  0.04718  0.12105  0.51917  1.0000
  S   S44       1.0  0.16769  0.01828  0.50928  1.0000
  H   H96       1.0  0.00855  0.10826  0.46696  1.0000
  H   H97       1.0  0.10111  0.04759  0.38967  1.0000
  H   H98       1.0  0.13523  0.05708  0.55220  1.0000
  C   C82       1.0  0.03108  0.28955  0.38073  1.0000
  C   C83       1.0  0.13947  0.05962  0.54120  1.0000
  C   C84       1.0  0.18003  0.05868  0.42911  1.0000
  C   C85       1.0  0.02903  0.28836  0.40419  1.0000
  H   H99       1.0  0.19560  0.05154  0.45495  1.0000
  H   H100      1.0  0.10835  0.04841  0.47950  1.0000
  H   H101      1.0  0.05589  0.27497  0.38210  1.0000
  H   H102      1.0  0.13251  0.09356  0.53723  1.0000
  H   H103      1.0  0.14851  0.05163  0.53891  1.0000
  H   H104      1.0  0.03504  0.17867  0.49955  1.0000
  H   H105      1.0  0.04327  0.19962  0.49363  1.0000
  S   S45       1.0  0.17615  0.04300  0.52589  1.0000
  H   H106      1.0  0.13506  0.00637  0.47518  1.0000
  N   N4        1.0  0.14272  0.07303  0.53692  1.0000
  H   H107      1.0  0.03113  0.29641  0.49997  1.0000
  H   H108      1.0  0.07323  0.03003  0.38238  1.0000
  C   C86       1.0  0.08354  0.24265  0.45445  1.0000
  H   H109      1.0  0.01014  0.19465  0.36081  1.0000
  H   H110      1.0  0.07156  0.26298  0.46722  1.0000
  H   H111      1.0  0.08918  0.03031  0.37088  1.0000
  S   S46       1.0  0.23792  0.03544  0.42682  1.0000
  H   H112      1.0  0.02599  0.31270  0.50409  1.0000
  N   N5        1.0  0.22081  0.99883  0.39172  1.0000
  H   H113      1.0  0.07259  0.22198  0.46932  1.0000
  C   C87       1.0  0.99888  0.21857  0.50491  1.0000
  H   H114      1.0  0.09313  0.23959  0.45782  1.0000
  H   H115      1.0  0.01541  0.26682  0.54692  1.0000
  C   C88       1.0  0.21806  0.02270  0.50035  1.0000
  H   H116      1.0  0.23391  0.99675  0.48480  1.0000
  C   C89       1.0  0.01663  0.31416  0.54269  1.0000
  C   C90       1.0  0.08392  0.02969  0.38161  1.0000
  H   H117      1.0  0.04601  0.30800  0.52118  1.0000
  C   C91       1.0  0.09594  0.98939  0.43462  1.0000
  C   C92       1.0  0.23710  0.06047  0.48433  1.0000
  C   C93       1.0  0.02270  0.31777  0.47052  1.0000
  H   H118      1.0  0.08371  0.23543  0.44853  1.0000
  H   H119      1.0  0.01355  0.11150  0.44898  1.0000
  C   C94       1.0  0.15302  0.07309  0.54370  1.0000
  H   H120      1.0  0.10522  0.04120  0.37480  1.0000
  C   C95       1.0  0.14202  0.03642  0.47086  1.0000
  H   H121      1.0  0.15574  0.08304  0.54074  1.0000
  N   N6        1.0  0.01669  0.17814  0.37633  1.0000
  C   C96       1.0  0.22916  0.06002  0.47602  1.0000
  N   N7        1.0  0.15228  0.99014  0.47703  1.0000
  C   C97       1.0  0.01229  0.16601  0.38525  1.0000
  H   H122      1.0  0.22251  0.03058  0.49244  1.0000
  C   C98       1.0  0.00903  0.10592  0.52279  1.0000
  H   H123      1.0  0.22222  0.03114  0.53167  1.0000
  C   C99       1.0  0.02358  0.11763  0.50428  1.0000
  C   C100      1.0  0.01716  0.18708  0.38454  1.0000
  C   C101      1.0  0.01162  0.21668  0.50718  1.0000
  H   H124      1.0  0.05182  0.20555  0.47670  1.0000
  H   H125      1.0  0.99994  0.27004  0.53179  1.0000
  Fe  Fe21      1.0  0.15046  0.00990  0.52333  1.0000
  H   H126      1.0  0.15376  0.00080  0.45637  1.0000
  C   C102      1.0  0.00059  0.27344  0.37063  1.0000
  H   H127      1.0  0.01126  0.16771  0.52546  1.0000
  N   N8        1.0  0.99431  0.27560  0.55086  1.0000
  H   H128      1.0  0.02865  0.18819  0.47177  1.0000
  H   H129      1.0  0.00957  0.27462  0.56098  1.0000
  S   S47       1.0  0.05761  0.12687  0.53165  1.0000
  H   H130      1.0  0.16508  0.00341  0.46460  1.0000
  H   H131      1.0  0.08050  0.06224  0.38257  1.0000
  H   H132      1.0  0.06007  0.19128  0.48747  1.0000
  H   H133      1.0  0.02366  0.13773  0.46418  1.0000
  C   C103      1.0  0.21391  0.01363  0.53681  1.0000
  H   H134      1.0  0.13201  0.05906  0.53602  1.0000
  Fe  Fe22      1.0  0.06029  0.13746  0.49318  1.0000
  H   H135      1.0  0.05063  0.29903  0.39510  1.0000
  H   H136      1.0  0.20280  0.99825  0.54145  1.0000
  C   C104      1.0  0.05052  0.30997  0.48779  1.0000
  H   H137      1.0  0.08447  0.05520  0.36810  1.0000
  H   H138      1.0  0.05204  0.17015  0.49459  1.0000
  H   H139      1.0  0.03786  0.28953  0.37065  1.0000
  H   H140      1.0  0.02477  0.19822  0.48403  1.0000
  N   N9        1.0  0.08610  0.08433  0.44087  1.0000
  C   C105      1.0  0.09015  0.09603  0.44216  1.0000
  C   C106      1.0  0.09809  0.07429  0.43632  1.0000
  C   C107      1.0  0.07757  0.08881  0.43095  1.0000
  H   H141      1.0  0.09667  0.09304  0.44952  1.0000
  H   H142      1.0  0.08129  0.10374  0.44568  1.0000
  H   H143      1.0  0.09576  0.10099  0.43236  1.0000
  H   H144      1.0  0.07540  0.06928  0.45345  1.0000
  H   H145      1.0  0.09534  0.06530  0.43537  1.0000
  H   H146      1.0  0.10476  0.07063  0.44359  1.0000
  H   H147      1.0  0.10403  0.07848  0.42634  1.0000
  H   H148      1.0  0.06873  0.09681  0.43376  1.0000
  C   C108      1.0  0.18173  0.03889  0.44699  1.0000
  C   C109      1.0  0.19408  0.05559  0.44448  1.0000
  H   H149      1.0  0.17095  0.05669  0.46285  1.0000
  H   H150      1.0  0.17235  0.03684  0.44620  1.0000
  H   H151      1.0  0.19014  0.03335  0.44039  1.0000
  H   H152      1.0  0.18290  0.03453  0.45753  1.0000
  C   C110      1.0  0.01184  0.31236  0.45622  1.0000
  C   C111      1.0  0.23295  0.00512  0.48963  1.0000
  H   H153      1.0  0.00734  0.29988  0.48240  1.0000
  H   H154      1.0  0.23098  0.98806  0.40771  1.0000
  C   C112      1.0  0.00620  0.15897  0.47313  1.0000
  H   H155      1.0  0.00132  0.18286  0.51744  1.0000
  C   C113      1.0  0.03263  0.19465  0.47561  1.0000
  H   H156      1.0  0.01643  0.18329  0.52136  1.0000
  H   H157      1.0  0.20232  0.00488  0.51030  1.0000
  H   H158      1.0  0.19424  0.06644  0.44186  1.0000
  H   H159      1.0  0.08325  0.25265  0.44736  1.0000
  H   H160      1.0  0.06758  0.03964  0.40243  1.0000
  H   H161      1.0  0.00711  0.25550  0.48564  1.0000
  S   S48       1.0  0.13538  0.02222  0.51113  1.0000
  C   C114      1.0  0.02082  0.11073  0.51767  1.0000
  C   C115      1.0  0.03287  0.30267  0.50585  1.0000
  H   H162      1.0  0.03281  0.19379  0.52980  1.0000
  C   C116      1.0  0.16016  0.99579  0.46382  1.0000
  S   S49       1.0  0.99520  0.20686  0.49855  1.0000
  H   H163      1.0  0.07904  0.04758  0.40518  1.0000
  Fe  Fe23      1.0  0.22403  0.02303  0.42678  1.0000
  H   H164      1.0  0.12926  0.04604  0.48677  1.0000
  H   H165      1.0  0.01956  0.20861  0.50397  1.0000
  S   S50       1.0  0.00267  0.31138  0.52617  1.0000
  C   C117      1.0  0.01385  0.22478  0.51435  1.0000
  C   C118      1.0  0.01157  0.17015  0.44971  1.0000
  H   H166      1.0  0.02595  0.24778  0.36719  1.0000
  H   H167      1.0  0.03784  0.30940  0.38656  1.0000
  C   C119      1.0  0.00189  0.31052  0.47984  1.0000
  C   C120      1.0  0.04517  0.29959  0.38739  1.0000
  C   C121      1.0  0.21350  0.02740  0.53255  1.0000
  C   C122      1.0  0.07216  0.25262  0.47357  1.0000
  H   H168      1.0  0.13134  0.99582  0.51848  1.0000
  H   H169      1.0  0.10454  0.02986  0.39097  1.0000
  H   H170      1.0  0.06861  0.05491  0.37977  1.0000
  H   H171      1.0  0.00388  0.15003  0.44571  1.0000
  N   N10       1.0  0.07192  0.24305  0.46595  1.0000
  H   H172      1.0  0.99778  0.25415  0.55411  1.0000
  H   H173      1.0  0.01839  0.17509  0.45190  1.0000
  N   N11       1.0  0.04694  0.30385  0.50223  1.0000
  C   C123      1.0  0.13073  0.03218  0.45625  1.0000
  C   C124      1.0  0.20255  0.00888  0.53798  1.0000
  H   H174      1.0  0.06619  0.29093  0.50373  1.0000
  N   N12       1.0  0.08535  0.04064  0.38676  1.0000
  S   S51       1.0  0.22218  0.04854  0.45972  1.0000
  C   C125      1.0  0.07947  0.05379  0.37895  1.0000
  C   C126      1.0  0.01479  0.11951  0.49596  1.0000
  C   C127      1.0  0.07838  0.03930  0.40106  1.0000
  H   H175      1.0  0.02078  0.19618  0.37817  1.0000
  H   H176      1.0  0.99065  0.20145  0.52987  1.0000
  H   H177      1.0  0.12639  0.08136  0.55157  1.0000
  C   C128      1.0  0.05946  0.24742  0.46094  1.0000
  H   H178      1.0  0.21180  0.01350  0.37639  1.0000
  C   C129      1.0  0.00082  0.31938  0.40287  1.0000
  H   H179      1.0  0.02354  0.22301  0.51653  1.0000
  H   H180      1.0  0.06929  0.08548  0.45769  1.0000
  S   S52       1.0  0.04233  0.16673  0.52627  1.0000
  Fe  Fe24      1.0  0.23118  0.00220  0.45115  1.0000
  H   H181      1.0  0.20150  0.04703  0.52620  1.0000
  S   S53       1.0  0.07523  0.31647  0.53161  1.0000
  H   H182      1.0  0.03140  0.15172  0.46004  1.0000
  H   H183      1.0  0.02327  0.29904  0.37996  1.0000
  H   H184      1.0  0.17080  0.05685  0.42770  1.0000
  N   N13       1.0  0.03849  0.28824  0.39103  1.0000
  H   H185      1.0  0.03432  0.28654  0.41240  1.0000
  H   H186      1.0  0.16942  0.07143  0.44952  1.0000
  S   S54       1.0  0.06064  0.14473  0.47116  1.0000
  C   C130      1.0  0.04282  0.17562  0.49083  1.0000
  C   C131      1.0  0.03016  0.17415  0.36801  1.0000
  H   H187      1.0  0.03950  0.16837  0.48740  1.0000
  Fe  Fe25      1.0  0.16162  0.03395  0.52146  1.0000
  H   H188      1.0  0.18225  0.01408  0.53537  1.0000
  H   H189      1.0  0.02180  0.29816  0.40418  1.0000
  S   S55       1.0  0.22860  0.00209  0.54023  1.0000
  H   H190      1.0  0.00022  0.14130  0.46308  1.0000
  C   C132      1.0  0.05529  0.18266  0.46838  1.0000
  H   H191      1.0  0.05170  0.17599  0.46438  1.0000
  Fe  Fe26      1.0  0.15225  0.03164  0.49812  1.0000
  H   H192      1.0  0.20905  0.01888  0.39168  1.0000
  C   C133      1.0  0.00940  0.10435  0.45800  1.0000
  H   H193      1.0  0.05136  0.31069  0.55055  1.0000
  C   C134      1.0  0.19094  0.01782  0.53454  1.0000
  H   H194      1.0  0.05439  0.27410  0.39954  1.0000
  S   S56       1.0  0.21005  0.03120  0.41249  1.0000
  N   N14       1.0  0.04526  0.18734  0.47985  1.0000
  C   C135      1.0  0.05032  0.19637  0.48461  1.0000
  C   C136      1.0  0.23273  0.04954  0.46925  1.0000
  H   H195      1.0  0.06351  0.25309  0.48228  1.0000
  H   H196      1.0  0.20292  0.05053  0.43776  1.0000
  C   C137      1.0  0.19052  0.03160  0.53033  1.0000
  H   H197      1.0  0.03382  0.18306  0.36121  1.0000
  C   C138      1.0  0.21298  0.00079  0.50596  1.0000
  H   H198      1.0  0.99221  0.26052  0.56920  1.0000
  H   H199      1.0  0.13549  0.99718  0.49201  1.0000
  C   C139      1.0  0.07244  0.22952  0.47483  1.0000
  H   H200      1.0  0.20066  0.01996  0.48800  1.0000
  H   H201      1.0  0.22353  0.01975  0.50855  1.0000
  H   H202      1.0  0.05257  0.29970  0.37764  1.0000
  H   H203      1.0  0.22507  0.01795  0.38039  1.0000
  C   C140      1.0  0.02393  0.14784  0.45755  1.0000
  H   H204      1.0  0.02594  0.28110  0.38323  1.0000
  H   H205      1.0  0.00172  0.10163  0.41377  1.0000
  H   H206      1.0  0.00662  0.26836  0.37836  1.0000
  N   N15       1.0  0.99996  0.18133  0.53836  1.0000
  C   C141      1.0  0.00823  0.27547  0.55074  1.0000
  H   H207      1.0  0.06363  0.22941  0.48343  1.0000
  C   C142      1.0  0.10151  0.98947  0.42103  1.0000
  N   N16       1.0  0.21883  0.01101  0.49505  1.0000
  C   C143      1.0  0.04868  0.31236  0.51022  1.0000
  H   H208      1.0  0.01110  0.16342  0.54915  1.0000
  C   C144      1.0  0.23040  0.99118  0.38200  1.0000
  C   C145      1.0  0.01340  0.23378  0.37109  1.0000
  H   H209      1.0  0.01336  0.16319  0.47570  1.0000
  H   H210      1.0  0.02387  0.18189  0.39159  1.0000
  H   H211      1.0  0.22018  0.06771  0.47496  1.0000
  H   H212      1.0  0.14626  0.00863  0.48382  1.0000
  H   H213      1.0  0.00218  0.31246  0.45410  1.0000
  C   C146      1.0  0.21651  0.01289  0.38470  1.0000
  C   C147      1.0  0.00756  0.17867  0.52507  1.0000
  H   H214      1.0  0.01211  0.15886  0.37943  1.0000
  H   H215      1.0  0.13291  0.99267  0.41719  1.0000
  H   H216      1.0  0.05559  0.28422  0.49814  1.0000
  H   H217      1.0  0.01401  0.23457  0.36056  1.0000
  H   H218      1.0  0.00565  0.20010  0.53497  1.0000
  H   H219      1.0  0.22028  0.00386  0.41011  1.0000
  Fe  Fe27      1.0  0.22995  0.03151  0.44905  1.0000
  H   H220      1.0  0.02468  0.30670  0.53849  1.0000
  H   H221      1.0  0.01540  0.16898  0.43911  1.0000
  C   C148      1.0  0.21134  0.01541  0.48425  1.0000
  H   H222      1.0  0.05044  0.24793  0.46932  1.0000
  C   C149      1.0  0.00097  0.15129  0.45627  1.0000
  H   H223      1.0  0.05221  0.28484  0.51542  1.0000
  C   C150      1.0  0.00443  0.31791  0.53880  1.0000
  H   H224      1.0  0.20754  0.02745  0.50446  1.0000
  H   H225      1.0  0.05921  0.31347  0.50782  1.0000
  H   H226      1.0  0.00716  0.19059  0.39071  1.0000
  H   H227      1.0  0.23864  0.00091  0.49770  1.0000
  H   H228      1.0  0.01761  0.30179  0.45788  1.0000
  C   C151      1.0  0.22732  0.99852  0.40241  1.0000
  H   H229      1.0  0.01774  0.17801  0.54562  1.0000
  H   H230      1.0  0.00289  0.17629  0.55856  1.0000
  N   N17       1.0  0.00968  0.31827  0.46791  1.0000
  H   H231      1.0  0.99472  0.28763  0.53085  1.0000
  H   H232      1.0  0.01741  0.31811  0.44697  1.0000
  C   C152      1.0  0.14182  0.00105  0.48222  1.0000
  H   H233      1.0  0.20394  0.99264  0.38999  1.0000
  H   H234      1.0  0.02870  0.30728  0.47239  1.0000
  C   C153      1.0  0.00721  0.18532  0.36750  1.0000
  H   H235      1.0  0.00208  0.16855  0.39152  1.0000
  H   H236      1.0  0.99694  0.18848  0.37343  1.0000
  C   C154      1.0  0.99279  0.27778  0.53696  1.0000
  H   H237      1.0  0.00216  0.10416  0.43595  1.0000
  C   C155      1.0  0.99107  0.26260  0.55867  1.0000
  N   N18       1.0  0.99640  0.10261  0.45725  1.0000
  H   H238      1.0  0.99625  0.16594  0.47473  1.0000
  H   H239      1.0  0.00494  0.26836  0.36203  1.0000
  H   H240      1.0  0.00187  0.28399  0.36709  1.0000
  H   H241      1.0  0.99971  0.31490  0.48880  1.0000
  H   H242      1.0  0.99911  0.21800  0.40216  1.0000
  C   C156      1.0  0.99654  0.19595  0.53765  1.0000
  H   H243      1.0  0.20155  0.99834  0.40508  1.0000
  C   C157      1.0  0.99817  0.09725  0.44530  1.0000
  H   H244      1.0  0.21359  0.99180  0.50222  1.0000
  H   H245      1.0  0.23603  0.00339  0.39830  1.0000
  H   H246      1.0  0.04396  0.32004  0.48529  1.0000
  H   H247      1.0  0.15493  0.98840  0.40194  1.0000
  H   H248      1.0  0.23945  0.99546  0.37733  1.0000
  H   H249      1.0  0.16602  0.99096  0.48804  1.0000
  S   S57       1.0  0.99653  0.31150  0.39281  1.0000
  S   S58       1.0  0.99484  0.12959  0.41672  1.0000
  S   S59       1.0  0.99595  0.21767  0.37612  1.0000
  H   H250      1.0  0.99210  0.31050  0.47810  1.0000
  S   S60       1.0  0.99198  0.11774  0.49035  1.0000
  C   C158      1.0  0.99072  0.23673  0.51678  1.0000
  H   H251      1.0  0.99071  0.25299  0.38826  1.0000
  H   H252      1.0  0.14075  0.98820  0.43119  1.0000
  C   C159      1.0  0.99126  0.09312  0.46949  1.0000
  H   H253      1.0  0.02826  0.31814  0.55413  1.0000
  H   H254      1.0  0.99049  0.19841  0.54739  1.0000
  H   H255      1.0  0.99090  0.10453  0.51863  1.0000
  C   C160      1.0  0.01865  0.32058  0.55156  1.0000
  H   H256      1.0  0.99039  0.12307  0.44695  1.0000
  C   C161      1.0  0.99132  0.10585  0.41351  1.0000
  H   H257      1.0  0.99080  0.15794  0.45761  1.0000
  S   S61       1.0  0.15987  0.50121  0.05248  1.0000
  C   C162      1.0  0.01349  0.44951  0.29522  1.0000
  Fe  Fe28      1.0  0.14096  0.41455  0.02658  1.0000
  S   S62       1.0  0.14481  0.43473  0.02447  1.0000
  S   S63       1.0  0.13470  0.40425  0.04816  1.0000
  S   S64       1.0  0.00851  0.47165  0.20545  1.0000
  H   H258      1.0  0.17600  0.54860  0.07068  1.0000
  Fe  Fe29      1.0  0.16197  0.42971  0.00775  1.0000
  C   C163      1.0  0.17894  0.54182  0.04729  1.0000
  Fe  Fe30      1.0  0.13221  0.44155  0.00923  1.0000
  S   S65       1.0  0.11763  0.46131  0.00976  1.0000
  S   S66       1.0  0.15966  0.40864  0.01124  1.0000
  S   S67       1.0  0.12719  0.42166  0.01225  1.0000
  Fe  Fe31      1.0  0.07318  0.52917  0.10646  1.0000
  S   S68       1.0  0.08702  0.51157  0.11632  1.0000
  S   S69       1.0  0.08045  0.54212  0.08637  1.0000
  Fe  Fe32      1.0  0.07247  0.49985  0.11679  1.0000
  S   S70       1.0  0.08028  0.47945  0.11204  1.0000
  Fe  Fe33      1.0  0.07351  0.51615  0.13569  1.0000
  C   C164      1.0  0.23078  0.47596  0.99968  1.0000
  Fe  Fe34      1.0  0.05984  0.41876  0.08182  1.0000
  S   S71       1.0  0.06877  0.43280  0.08671  1.0000
  S   S72       1.0  0.07279  0.40534  0.06787  1.0000
  Fe  Fe35      1.0  0.03223  0.42947  0.09748  1.0000
  S   S73       1.0  0.03900  0.44477  0.10342  1.0000
  H   H259      1.0  0.00340  0.51127  0.30649  1.0000
  Fe  Fe36      1.0  0.05074  0.44821  0.08213  1.0000
  S   S74       1.0  0.05481  0.46830  0.07067  1.0000
  Fe  Fe37      1.0  0.05656  0.42813  0.10756  1.0000
  S   S75       1.0  0.06818  0.42641  0.12292  1.0000
  S   S76       1.0  0.04237  0.43455  0.07565  1.0000
  S   S77       1.0  0.04912  0.41237  0.10321  1.0000
  Fe  Fe38      1.0  0.05995  0.53069  0.24847  1.0000
  H   H260      1.0  0.05292  0.47672  0.25390  1.0000
  S   S78       1.0  0.06685  0.54546  0.25517  1.0000
  Fe  Fe39      1.0  0.05302  0.52750  0.22370  1.0000
  N   N19       1.0  0.08395  0.44723  0.03855  1.0000
  S   S79       1.0  0.04739  0.53651  0.20362  1.0000
  S   S80       1.0  0.05947  0.51706  0.10555  1.0000
  C   C165      1.0  0.09410  0.40242  0.10653  1.0000
  C   C166      1.0  0.02876  0.58320  0.27936  1.0000
  S   S81       1.0  0.04095  0.53704  0.24100  1.0000
  S   S82       1.0  0.07246  0.52290  0.23010  1.0000
  C   C167      1.0  0.17758  0.46224  0.04321  1.0000
  C   C168      1.0  0.08768  0.48047  0.28987  1.0000
  H   H261      1.0  0.04017  0.55709  0.28850  1.0000
  H   H262      1.0  0.16362  0.45241  0.02352  1.0000
  S   S83       1.0  0.14269  0.53421  0.06119  1.0000
  Fe  Fe40      1.0  0.05656  0.43773  0.30414  1.0000
  Fe  Fe41      1.0  0.04439  0.43253  0.19665  1.0000
  S   S84       1.0  0.04454  0.45436  0.18875  1.0000
  S   S85       1.0  0.04040  0.42036  0.18448  1.0000
  Fe  Fe42      1.0  0.04216  0.43401  0.22560  1.0000
  S   S86       1.0  0.04151  0.45608  0.22015  1.0000
  S   S87       1.0  0.03782  0.42304  0.24717  1.0000
  Fe  Fe43      1.0  0.02814  0.45741  0.20677  1.0000
  H   H263      1.0  0.01042  0.44609  0.08086  1.0000
  Fe  Fe44      1.0  0.05801  0.45087  0.20274  1.0000
  S   S88       1.0  0.07428  0.46227  0.19544  1.0000
  S   S89       1.0  0.02708  0.43593  0.21389  1.0000
  S   S90       1.0  0.05970  0.42849  0.20904  1.0000
  C   C169      1.0  0.09658  0.43709  0.03639  1.0000
  H   H264      1.0  0.10464  0.44158  0.02893  1.0000
  S   S91       1.0  0.02597  0.52316  0.13377  1.0000
  H   H265      1.0  0.21066  0.39614  0.99045  1.0000
  H   H266      1.0  0.19033  0.43664  0.04330  1.0000
  C   C170      1.0  0.05286  0.57658  0.27475  1.0000
  H   H267      1.0  0.08778  0.45867  0.01822  1.0000
  C   C171      1.0  0.03970  0.56452  0.29429  1.0000
  H   H268      1.0  0.18417  0.41627  0.98869  1.0000
  H   H269      1.0  0.07048  0.46132  0.02684  1.0000
  C   C172      1.0  0.01004  0.51356  0.24887  1.0000
  C   C173      1.0  0.02971  0.47466  0.27218  1.0000
  C   C174      1.0  0.00182  0.44164  0.08359  1.0000
  N   N20       1.0  0.03161  0.50231  0.19717  1.0000
  C   C175      1.0  0.09952  0.37846  0.11506  1.0000
  H   H270      1.0  0.03453  0.44924  0.26982  1.0000
  H   H271      1.0  0.05732  0.53183  0.15711  1.0000
  H   H272      1.0  0.03117  0.52160  0.18355  1.0000
  N   N21       1.0  0.23756  0.48205  0.00604  1.0000
  C   C176      1.0  0.20628  0.51801  0.02562  1.0000
  H   H273      1.0  0.04167  0.59719  0.28713  1.0000
  C   C177      1.0  0.01379  0.40652  0.21055  1.0000
  H   H274      1.0  0.08167  0.48374  0.17118  1.0000
  C   C178      1.0  0.20682  0.43400  0.00150  1.0000
  H   H275      1.0  0.09332  0.38660  0.09087  1.0000
  H   H276      1.0  0.09537  0.42885  0.03257  1.0000
  H   H277      1.0  0.07704  0.39655  0.09595  1.0000
  C   C179      1.0  0.04095  0.58703  0.29346  1.0000
  S   S92       1.0  0.16710  0.49685  0.02188  1.0000
  H   H278      1.0  0.16019  0.43879  0.04628  1.0000
  H   H279      1.0  0.08902  0.45314  0.05394  1.0000
  H   H280      1.0  0.21368  0.53610  0.01610  1.0000
  H   H281      1.0  0.09705  0.40451  0.11487  1.0000
  H   H282      1.0  0.99303  0.56132  0.25382  1.0000
  H   H283      1.0  0.01564  0.51988  0.19535  1.0000
  S   S93       1.0  0.99136  0.50136  0.10877  1.0000
  C   C180      1.0  0.20879  0.50503  0.03357  1.0000
  H   H284      1.0  0.99567  0.53423  0.11546  1.0000
  H   H285      1.0  0.19286  0.44611  0.02624  1.0000
  C   C181      1.0  0.21561  0.52612  0.02237  1.0000
  H   H286      1.0  0.00501  0.56389  0.11840  1.0000
  C   C182      1.0  0.04733  0.42507  0.25724  1.0000
  C   C183      1.0  0.05843  0.43087  0.25146  1.0000
  C   C184      1.0  0.06535  0.43324  0.25973  1.0000
  C   C185      1.0  0.06090  0.43031  0.27373  1.0000
  C   C186      1.0  0.04995  0.42427  0.27950  1.0000
  C   C187      1.0  0.04330  0.42149  0.27126  1.0000
  H   H287      1.0  0.06170  0.43352  0.24065  1.0000
  H   H288      1.0  0.07401  0.43758  0.25527  1.0000
  H   H289      1.0  0.04666  0.42164  0.29028  1.0000
  H   H290      1.0  0.03480  0.41685  0.27575  1.0000
  C   C188      1.0  0.20247  0.39320  0.98810  1.0000
  H   H291      1.0  0.04967  0.58313  0.29834  1.0000
  C   C189      1.0  0.00018  0.43137  0.09512  1.0000
  H   H292      1.0  0.09597  0.36891  0.11835  1.0000
  H   H293      1.0  0.08000  0.39320  0.13093  1.0000
  H   H294      1.0  0.02826  0.48557  0.21361  1.0000
  H   H295      1.0  0.18228  0.45736  0.05199  1.0000
  H   H296      1.0  0.07850  0.44606  0.02099  1.0000
  H   H297      1.0  0.05029  0.48802  0.19837  1.0000
  H   H298      1.0  0.03425  0.45284  0.25239  1.0000
  C   C190      1.0  0.07012  0.54256  0.27122  1.0000
  C   C191      1.0  0.06247  0.53586  0.28285  1.0000
  C   C192      1.0  0.06379  0.53609  0.29565  1.0000
  C   C193      1.0  0.07283  0.54289  0.29676  1.0000
  C   C194      1.0  0.08103  0.54873  0.28511  1.0000
  C   C195      1.0  0.07955  0.54874  0.27243  1.0000
  H   H299      1.0  0.05515  0.53108  0.28199  1.0000
  H   H300      1.0  0.05766  0.53122  0.30462  1.0000
  H   H301      1.0  0.08815  0.55384  0.28587  1.0000
  H   H302      1.0  0.08550  0.55390  0.26350  1.0000
  C   C196      1.0  0.07918  0.47677  0.22992  1.0000
  C   C197      1.0  0.07957  0.46319  0.23138  1.0000
  C   C198      1.0  0.07783  0.45871  0.22088  1.0000
  C   C199      1.0  0.07643  0.46771  0.20866  1.0000
  C   C200      1.0  0.07660  0.48119  0.20701  1.0000
  C   C201      1.0  0.07765  0.48578  0.21774  1.0000
  H   H303      1.0  0.08091  0.45622  0.24074  1.0000
  H   H304      1.0  0.07783  0.44825  0.22216  1.0000
  H   H305      1.0  0.07567  0.48816  0.19753  1.0000
  H   H306      1.0  0.01239  0.42330  0.18644  1.0000
  C   C202      1.0  0.05963  0.42590  0.13972  1.0000
  C   C203      1.0  0.04771  0.42142  0.14477  1.0000
  C   C204      1.0  0.04172  0.41998  0.15852  1.0000
  C   C205      1.0  0.04743  0.42339  0.16716  1.0000
  C   C206      1.0  0.05897  0.42853  0.16196  1.0000
  C   C207      1.0  0.06516  0.42961  0.14828  1.0000
  H   H307      1.0  0.04339  0.41857  0.13820  1.0000
  H   H308      1.0  0.03278  0.41602  0.16252  1.0000
  H   H309      1.0  0.06344  0.43111  0.16859  1.0000
  H   H310      1.0  0.07438  0.43311  0.14437  1.0000
  C   C208      1.0  0.07281  0.51934  0.16726  1.0000
  C   C209      1.0  0.07714  0.51528  0.17937  1.0000
  C   C210      1.0  0.06940  0.52047  0.19062  1.0000
  C   C211      1.0  0.05740  0.52990  0.18972  1.0000
  C   C212      1.0  0.05308  0.53397  0.17760  1.0000
  C   C213      1.0  0.06068  0.52858  0.16643  1.0000
  H   H311      1.0  0.08654  0.50817  0.18005  1.0000
  H   H312      1.0  0.07283  0.51738  0.19990  1.0000
  H   H313      1.0  0.04385  0.54135  0.17683  1.0000
  C   C214      1.0  0.07382  0.47727  0.09952  1.0000
  C   C215      1.0  0.07983  0.46612  0.09375  1.0000
  C   C216      1.0  0.07453  0.46392  0.08411  1.0000
  C   C217      1.0  0.06299  0.47265  0.08045  1.0000
  C   C218      1.0  0.05719  0.48401  0.08592  1.0000
  C   C219      1.0  0.06262  0.48630  0.09543  1.0000
  H   H314      1.0  0.08851  0.45908  0.09683  1.0000
  H   H315      1.0  0.07932  0.45537  0.07961  1.0000
  H   H316      1.0  0.04816  0.49069  0.08326  1.0000
  H   H317      1.0  0.05768  0.49471  0.10000  1.0000
  C   C220      1.0  0.11740  0.40516  0.05324  1.0000
  C   C221      1.0  0.11073  0.40154  0.04566  1.0000
  C   C222      1.0  0.09703  0.40162  0.05023  1.0000
  C   C223      1.0  0.08985  0.40576  0.06215  1.0000
  C   C224      1.0  0.09645  0.40982  0.06947  1.0000
  C   C225      1.0  0.11024  0.40926  0.06518  1.0000
  H   H318      1.0  0.11623  0.39824  0.03649  1.0000
  H   H319      1.0  0.09201  0.39841  0.04453  1.0000
  H   H320      1.0  0.09103  0.41304  0.07861  1.0000
  H   H321      1.0  0.11537  0.41212  0.07104  1.0000
  C   C226      1.0  0.19569  0.42815  0.00597  1.0000
  H   H322      1.0  0.05161  0.50330  0.18588  1.0000
  C   C227      1.0  0.21931  0.42646  0.00384  1.0000
  C   C228      1.0  0.22075  0.41304  0.01073  1.0000
  C   C229      1.0  0.20967  0.40707  0.01492  1.0000
  C   C230      1.0  0.19711  0.41463  0.01258  1.0000
  C   C231      1.0  0.00644  0.41542  0.18964  1.0000
  H   H323      1.0  0.01935  0.58432  0.28723  1.0000
  H   H324      1.0  0.21077  0.39666  0.02023  1.0000
  H   H325      1.0  0.18854  0.41006  0.01609  1.0000
  C   C232      1.0  0.12545  0.53564  0.06822  1.0000
  C   C233      1.0  0.12076  0.53369  0.08220  1.0000
  C   C234      1.0  0.10698  0.53524  0.08791  1.0000
  C   C235      1.0  0.09782  0.53923  0.07962  1.0000
  C   C236      1.0  0.10252  0.54118  0.06564  1.0000
  C   C237      1.0  0.11631  0.53914  0.05996  1.0000
  H   H326      1.0  0.12777  0.53106  0.08864  1.0000
  H   H327      1.0  0.10343  0.53386  0.09869  1.0000
  H   H328      1.0  0.09547  0.54437  0.05918  1.0000
  H   H329      1.0  0.11983  0.54082  0.04916  1.0000
  H   H330      1.0  0.08047  0.37880  0.10259  1.0000
  C   C238      1.0  0.08477  0.38788  0.09962  1.0000
  S   S94       1.0  0.08276  0.51274  0.15333  1.0000
  S   S95       1.0  0.01125  0.42614  0.10609  1.0000
  Fe  Fe45      1.0  0.03812  0.51634  0.25166  1.0000
  N   N22       1.0  0.04056  0.57786  0.28545  1.0000
  H   H331      1.0  0.13317  0.49370  0.02316  1.0000
  C   C239      1.0  0.07732  0.39128  0.12234  1.0000
  H   H332      1.0  0.22077  0.49845  0.00908  1.0000
  C   C240      1.0  0.14809  0.50931  0.99140  1.0000
  H   H333      1.0  0.10017  0.43244  0.04585  1.0000
  C   C241      1.0  0.12192  0.45984  0.03434  1.0000
  C   C242      1.0  0.12130  0.46776  0.02147  1.0000
  C   C243      1.0  0.12489  0.48020  0.01764  1.0000
  C   C244      1.0  0.12994  0.48430  0.02634  1.0000
  H   H334      1.0  0.11911  0.45024  0.03742  1.0000
  H   H335      1.0  0.12424  0.48641  0.00776  1.0000
  C   C245      1.0  0.07998  0.45360  0.02557  1.0000
  H   H336      1.0  0.16281  0.46294  0.98987  1.0000
  H   H337      1.0  0.10844  0.37726  0.10664  1.0000
  N   N23       1.0  0.08565  0.47060  0.28364  1.0000
  S   S96       1.0  0.03740  0.43136  0.31468  1.0000
  C   C246      1.0  0.16750  0.45936  0.02681  1.0000
  N   N24       1.0  0.03760  0.46877  0.13202  1.0000
  C   C247      1.0  0.03536  0.46123  0.14616  1.0000
  C   C248      1.0  0.04861  0.46060  0.12375  1.0000
  C   C249      1.0  0.04121  0.48147  0.13116  1.0000
  C   C250      1.0  0.02529  0.47179  0.12697  1.0000
  H   H338      1.0  0.02712  0.46707  0.15274  1.0000
  H   H339      1.0  0.04451  0.45870  0.15022  1.0000
  H   H340      1.0  0.03264  0.45156  0.14716  1.0000
  H   H341      1.0  0.05829  0.45874  0.12671  1.0000
  H   H342      1.0  0.04658  0.45064  0.12480  1.0000
  H   H343      1.0  0.05009  0.46556  0.11290  1.0000
  H   H344      1.0  0.04259  0.48755  0.12069  1.0000
  H   H345      1.0  0.05073  0.47957  0.13439  1.0000
  H   H346      1.0  0.03330  0.48780  0.13754  1.0000
  H   H347      1.0  0.02667  0.47743  0.11628  1.0000
  H   H348      1.0  0.01678  0.47807  0.13288  1.0000
  H   H349      1.0  0.02227  0.46243  0.12743  1.0000
  N   N25       1.0  0.10215  0.50004  0.07074  1.0000
  C   C251      1.0  0.11305  0.50136  0.07596  1.0000
  C   C252      1.0  0.10246  0.48566  0.07260  1.0000
  C   C253      1.0  0.10394  0.50652  0.05628  1.0000
  C   C254      1.0  0.08915  0.50660  0.07814  1.0000
  H   H350      1.0  0.12302  0.49653  0.07057  1.0000
  H   H351      1.0  0.11198  0.49667  0.08687  1.0000
  H   H352      1.0  0.11311  0.51208  0.07471  1.0000
  H   H353      1.0  0.09423  0.48426  0.06897  1.0000
  H   H354      1.0  0.11206  0.48041  0.06703  1.0000
  H   H355      1.0  0.10133  0.48048  0.08340  1.0000
  H   H356      1.0  0.10382  0.51738  0.05455  1.0000
  H   H357      1.0  0.09589  0.50573  0.05199  1.0000
  H   H358      1.0  0.11367  0.50179  0.05041  1.0000
  H   H359      1.0  0.08842  0.51754  0.07673  1.0000
  H   H360      1.0  0.08764  0.50220  0.08912  1.0000
  H   H361      1.0  0.08065  0.50552  0.07472  1.0000
  H   H362      1.0  0.05357  0.46304  0.24679  1.0000
  Fe  Fe46      1.0  0.04824  0.52078  0.12582  1.0000
  S   S97       1.0  0.13899  0.51809  0.03262  1.0000
  Fe  Fe47      1.0  0.14614  0.41759  0.99658  1.0000
  H   H363      1.0  0.22007  0.47667  0.00481  1.0000
  C   C255      1.0  0.22760  0.52122  0.02685  1.0000
  S   S98       1.0  0.06031  0.50257  0.13705  1.0000
  C   C256      1.0  0.04621  0.49907  0.19614  1.0000
  H   H364      1.0  0.05382  0.58640  0.26775  1.0000
  H   H365      1.0  0.16883  0.47022  0.04633  1.0000
  H   H366      1.0  0.01083  0.40380  0.22172  1.0000
  H   H367      1.0  0.03292  0.48408  0.27108  1.0000
  N   N26       1.0  0.03469  0.46966  0.25962  1.0000
  H   H368      1.0  0.03218  0.48537  0.18961  1.0000
  H   H369      1.0  0.99481  0.58917  0.30135  1.0000
  Fe  Fe48      1.0  0.15763  0.51876  0.01611  1.0000
  H   H370      1.0  0.07317  0.38209  0.12600  1.0000
  C   C257      1.0  0.00289  0.55638  0.11425  1.0000
  C   C258      1.0  0.00348  0.45285  0.17951  1.0000
  H   H371      1.0  0.01997  0.45601  0.18499  1.0000
  C   C259      1.0  0.08588  0.45760  0.04420  1.0000
  C   C260      1.0  0.07340  0.44065  0.04801  1.0000
  H   H372      1.0  0.07646  0.46531  0.04614  1.0000
  H   H373      1.0  0.09363  0.46291  0.03720  1.0000
  H   H374      1.0  0.06379  0.44805  0.05019  1.0000
  H   H375      1.0  0.07150  0.43288  0.04404  1.0000
  H   H376      1.0  0.07629  0.43547  0.05775  1.0000
  H   H377      1.0  0.22260  0.49027  0.04458  1.0000
  C   C261      1.0  0.03054  0.45700  0.26161  1.0000
  C   C262      1.0  0.13102  0.47609  0.03899  1.0000
  C   C263      1.0  0.02909  0.47967  0.24869  1.0000
  H   H378      1.0  0.10294  0.40181  0.09798  1.0000
  H   H379      1.0  0.01948  0.45843  0.26429  1.0000
  H   H380      1.0  0.15453  0.45380  0.05265  1.0000
  N   N27       1.0  0.08892  0.39001  0.11088  1.0000
  C   C264      1.0  0.12667  0.46405  0.04313  1.0000
  H   H381      1.0  0.19735  0.52169  0.02165  1.0000
  H   H382      1.0  0.06913  0.39986  0.11950  1.0000
  H   H383      1.0  0.07217  0.48477  0.27206  1.0000
  H   H384      1.0  0.01860  0.47686  0.27515  1.0000
  H   H385      1.0  0.03304  0.47638  0.23900  1.0000
  H   H386      1.0  0.08638  0.41132  0.10324  1.0000
  H   H387      1.0  0.07418  0.47249  0.16737  1.0000
  C   C265      1.0  0.08610  0.45749  0.29330  1.0000
  N   N28       1.0  0.09457  0.47233  0.15678  1.0000
  C   C266      1.0  0.09342  0.46678  0.14596  1.0000
  C   C267      1.0  0.10349  0.48190  0.15109  1.0000
  C   C268      1.0  0.10010  0.46133  0.16714  1.0000
  C   C269      1.0  0.08120  0.47937  0.16298  1.0000
  H   H388      1.0  0.08675  0.45952  0.14991  1.0000
  H   H389      1.0  0.10333  0.46146  0.14098  1.0000
  H   H390      1.0  0.08919  0.47486  0.13803  1.0000
  H   H391      1.0  0.10402  0.48681  0.15887  1.0000
  H   H392      1.0  0.11382  0.47687  0.14678  1.0000
  H   H393      1.0  0.09983  0.49010  0.14293  1.0000
  H   H394      1.0  0.10082  0.46524  0.17557  1.0000
  H   H395      1.0  0.11025  0.45584  0.16294  1.0000
  H   H396      1.0  0.09360  0.45393  0.17165  1.0000
  H   H397      1.0  0.07678  0.48779  0.15552  1.0000
  S   S99       1.0  0.16830  0.52558  0.02764  1.0000
  H   H398      1.0  0.08711  0.49057  0.28296  1.0000
  H   H399      1.0  0.10631  0.46526  0.27376  1.0000
  H   H400      1.0  0.08483  0.44973  0.28886  1.0000
  Fe  Fe49      1.0  0.02938  0.45251  0.31721  1.0000
  H   H401      1.0  0.02813  0.57635  0.27342  1.0000
  H   H402      1.0  0.09576  0.45373  0.29655  1.0000
  N   N29       1.0  0.17350  0.45241  0.03858  1.0000
  Fe  Fe50      1.0  0.17660  0.50364  0.03442  1.0000
  Fe  Fe51      1.0  0.06698  0.50343  0.24207  1.0000
  H   H403      1.0  0.00164  0.51402  0.14508  1.0000
  C   C270      1.0  0.99209  0.44641  0.07575  1.0000
  H   H404      1.0  0.07803  0.45820  0.30251  1.0000
  S   S100      1.0  0.04884  0.50726  0.23394  1.0000
  S   S101      1.0  0.05591  0.51077  0.26088  1.0000
  H   H405      1.0  0.03163  0.48948  0.24722  1.0000
  H   H406      1.0  0.03021  0.56492  0.30201  1.0000
  H   H407      1.0  0.02201  0.52694  0.23483  1.0000
  C   C271      1.0  0.07250  0.47535  0.27996  1.0000
  C   C272      1.0  0.17443  0.53848  0.07141  1.0000
  H   H408      1.0  0.02405  0.44776  0.29467  1.0000
  C   C273      1.0  0.23006  0.50828  0.03488  1.0000
  H   H409      1.0  0.20011  0.52504  0.06819  1.0000
  C   C274      1.0  0.99739  0.50766  0.12948  1.0000
  C   C275      1.0  0.22063  0.50026  0.03832  1.0000
  C   C276      1.0  0.09624  0.46909  0.27141  1.0000
  H   H410      1.0  0.04799  0.56059  0.29972  1.0000
  H   H411      1.0  0.05399  0.46003  0.26414  1.0000
  S   S102      1.0  0.06058  0.53484  0.12586  1.0000
  C   C277      1.0  0.18531  0.44187  0.03478  1.0000
  Fe  Fe52      1.0  0.15063  0.52265  0.04476  1.0000
  C   C278      1.0  0.02487  0.49667  0.21097  1.0000
  H   H412      1.0  0.17489  0.46357  0.01810  1.0000
  H   H413      1.0  0.03344  0.50062  0.17701  1.0000
  C   C279      1.0  0.02861  0.49649  0.18755  1.0000
  C   C280      1.0  0.04942  0.46727  0.25595  1.0000
  S   S103      1.0  0.13851  0.48019  0.04954  1.0000
  H   H414      1.0  0.12746  0.45769  0.05292  1.0000
  H   H415      1.0  0.19926  0.54159  0.05753  1.0000
  H   H416      1.0  0.16356  0.53958  0.07216  1.0000
  S   S104      1.0  0.07968  0.48260  0.24363  1.0000
  S   S105      1.0  0.19772  0.49429  0.03707  1.0000
  H   H417      1.0  0.22788  0.43100  0.00014  1.0000
  Fe  Fe53      1.0  0.14942  0.49677  0.03934  1.0000
  H   H418      1.0  0.09758  0.47732  0.29263  1.0000
  H   H419      1.0  0.02024  0.39741  0.20700  1.0000
  S   S106      1.0  0.06882  0.43491  0.28369  1.0000
  H   H420      1.0  0.02327  0.48501  0.31444  1.0000
  C   C281      1.0  0.02230  0.51258  0.11443  1.0000
  S   S107      1.0  0.15890  0.52872  0.99420  1.0000
  H   H421      1.0  0.07750  0.49626  0.21654  1.0000
  H   H422      1.0  0.01764  0.49864  0.18823  1.0000
  C   C282      1.0  0.00894  0.44257  0.28861  1.0000
  H   H423      1.0  0.19429  0.39266  0.99731  1.0000
  H   H424      1.0  0.01800  0.48145  0.25099  1.0000
  H   H425      1.0  0.16777  0.44077  0.05853  1.0000
  C   C283      1.0  0.01446  0.50777  0.10897  1.0000
  H   H426      1.0  0.04880  0.50333  0.20329  1.0000
  H   H427      1.0  0.18699  0.46034  0.98542  1.0000
  C   C284      1.0  0.00928  0.45808  0.18665  1.0000
  H   H428      1.0  0.20584  0.44440  0.99621  1.0000
  N   N30       1.0  0.18266  0.53284  0.05971  1.0000
  S   S108      1.0  0.04790  0.45920  0.30520  1.0000
  C   C285      1.0  0.16358  0.44616  0.04951  1.0000
  S   S109      1.0  0.01837  0.51081  0.26175  1.0000
  H   H429      1.0  0.07994  0.48164  0.29928  1.0000
  H   H430      1.0  0.02934  0.52183  0.20077  1.0000
  H   H431      1.0  0.99656  0.50063  0.26040  1.0000
  H   H432      1.0  0.03173  0.51481  0.10842  1.0000
  C   C286      1.0  0.02671  0.51704  0.19407  1.0000
  C   C287      1.0  0.19698  0.53163  0.05893  1.0000
  H   H433      1.0  0.99959  0.39244  0.20469  1.0000
  S   S110      1.0  0.18018  0.43822  0.00326  1.0000
  H   H434      1.0  0.07031  0.46778  0.27593  1.0000
  H   H435      1.0  0.03182  0.58820  0.30164  1.0000
  H   H436      1.0  0.15895  0.46778  0.02913  1.0000
  H   H437      1.0  0.99939  0.49495  0.31299  1.0000
  H   H438      1.0  0.02909  0.59322  0.27253  1.0000
  C   C288      1.0  0.18024  0.51943  0.06121  1.0000
  C   C289      1.0  0.23159  0.49657  0.00424  1.0000
  H   H439      1.0  0.17682  0.53189  0.08099  1.0000
  H   H440      1.0  0.06192  0.57266  0.27907  1.0000
  H   H441      1.0  0.10286  0.37973  0.12357  1.0000
  H   H442      1.0  0.18503  0.53795  0.03824  1.0000
  H   H443      1.0  0.06435  0.47748  0.28876  1.0000
  H   H444      1.0  0.23122  0.48105  0.98892  1.0000
  H   H445      1.0  0.18046  0.55209  0.04593  1.0000
  H   H446      1.0  0.01383  0.49889  0.21204  1.0000
  H   H447      1.0  0.99780  0.41940  0.18468  1.0000
  H   H448      1.0  0.18493  0.46730  0.03515  1.0000
  H   H449      1.0  0.16947  0.51991  0.06230  1.0000
  C   C290      1.0  0.01399  0.52197  0.23647  1.0000
  H   H450      1.0  0.20640  0.38293  0.98611  1.0000
  H   H451      1.0  0.02686  0.50093  0.21848  1.0000
  H   H452      1.0  0.20344  0.52717  0.05033  1.0000
  H   H453      1.0  0.18248  0.43411  0.03162  1.0000
  H   H454      1.0  0.14693  0.50561  0.00214  1.0000
  H   H455      1.0  0.18337  0.51223  0.07020  1.0000
  H   H456      1.0  0.01798  0.50619  0.09881  1.0000
  H   H457      1.0  0.16823  0.54280  0.04749  1.0000
  C   C291      1.0  0.01754  0.51519  0.12734  1.0000
  H   H458      1.0  0.18583  0.51509  0.05232  1.0000
  H   H459      1.0  0.05304  0.56951  0.26865  1.0000
  S   S111      1.0  0.00980  0.46518  0.31294  1.0000
  H   H460      1.0  0.09627  0.47884  0.26395  1.0000
  H   H461      1.0  0.01017  0.53124  0.21675  1.0000
  H   H462      1.0  0.03356  0.46721  0.28068  1.0000
  C   C292      1.0  0.99307  0.50941  0.24039  1.0000
  C   C293      1.0  0.00437  0.45835  0.30281  1.0000
  H   H463      1.0  0.00978  0.44678  0.17249  1.0000
  H   H464      1.0  0.02015  0.41395  0.20785  1.0000
  C   C294      1.0  0.99463  0.57863  0.30494  1.0000
  S   S112      1.0  0.14971  0.43831  0.99213  1.0000
  H   H465      1.0  0.00072  0.53701  0.26215  1.0000
  C   C295      1.0  0.99955  0.50728  0.25086  1.0000
  C   C296      1.0  0.00527  0.51230  0.13499  1.0000
  H   H466      1.0  0.01291  0.40658  0.18562  1.0000
  H   H467      1.0  0.09470  0.46198  0.26629  1.0000
  C   C297      1.0  0.99073  0.46085  0.30315  1.0000
  H   H468      1.0  0.22517  0.47725  0.02580  1.0000
  S   S113      1.0  0.07359  0.54528  0.31229  1.0000
  H   H469      1.0  0.99188  0.54534  0.24128  1.0000
  H   H470      1.0  0.01110  0.54723  0.11543  1.0000
  N   N31       1.0  0.00200  0.41194  0.20443  1.0000
  C   C298      1.0  0.00178  0.50574  0.11631  1.0000
  C   C299      1.0  0.00734  0.52434  0.22615  1.0000
  H   H471      1.0  0.99845  0.44496  0.23733  1.0000
  C   C300      1.0  0.00145  0.57072  0.31493  1.0000
  H   H472      1.0  0.99765  0.53874  0.13724  1.0000
  H   H473      1.0  0.02685  0.50148  0.30804  1.0000
  C   C301      1.0  0.00033  0.50390  0.31587  1.0000
  C   C302      1.0  0.23589  0.47573  0.02053  1.0000
  C   C303      1.0  0.00125  0.46583  0.19589  1.0000
  C   C304      1.0  0.99684  0.51813  0.22811  1.0000
  H   H474      1.0  0.99331  0.45444  0.06692  1.0000
  C   C305      1.0  0.15341  0.52068  0.98505  1.0000
  H   H475      1.0  0.01595  0.43533  0.28318  1.0000
  H   H476      1.0  0.99983  0.43196  0.20671  1.0000
  H   H477      1.0  0.00353  0.56044  0.10328  1.0000
  C   C306      1.0  0.99376  0.55149  0.31456  1.0000
  H   H478      1.0  0.23242  0.50153  0.99341  1.0000
  C   C307      1.0  0.99526  0.44442  0.28969  1.0000
  H   H479      1.0  0.23555  0.46521  0.99995  1.0000
  H   H480      1.0  0.99465  0.44774  0.25405  1.0000
  H   H481      1.0  0.99068  0.55516  0.14050  1.0000
  S   S114      1.0  0.23922  0.53152  0.02234  1.0000
  S   S115      1.0  0.23627  0.40368  0.01426  1.0000
  H   H482      1.0  0.13995  0.49405  0.98879  1.0000
  H   H483      1.0  0.23656  0.50168  0.00864  1.0000
  C   C308      1.0  0.99386  0.40173  0.20829  1.0000
  H   H484      1.0  0.99499  0.43574  0.13529  1.0000
  C   C309      1.0  0.99391  0.42412  0.20925  1.0000
  H   H485      1.0  0.23918  0.50448  0.03856  1.0000
  H   H486      1.0  0.99342  0.43220  0.25172  1.0000
  C   C310      1.0  0.99161  0.44322  0.24741  1.0000
  H   H487      1.0  0.99038  0.39885  0.21941  1.0000
  C   C311      1.0  0.99032  0.53666  0.26792  1.0000
  H   H488      1.0  0.01049  0.42831  0.31796  1.0000
  C   C312      1.0  0.02331  0.49427  0.31735  1.0000
  H   H489      1.0  0.99009  0.42178  0.22033  1.0000
  Fe  Fe54      1.0  0.03876  0.42131  0.62215  1.0000
  S   S116      1.0  0.04863  0.40129  0.63287  1.0000
  H   H490      1.0  0.06169  0.39874  0.55897  1.0000
  Fe  Fe55      1.0  0.06486  0.42810  0.60496  1.0000
  S   S117      1.0  0.07713  0.40830  0.61360  1.0000
  S   S118      1.0  0.07265  0.44498  0.58927  1.0000
  Fe  Fe56      1.0  0.06092  0.39932  0.61210  1.0000
  S   S119      1.0  0.06318  0.37954  0.60651  1.0000
  Fe  Fe57      1.0  0.06385  0.41195  0.63338  1.0000
  H   H491      1.0  0.10172  0.36393  0.52414  1.0000
  S   S120      1.0  0.05004  0.41886  0.60143  1.0000
  S   S121      1.0  0.05250  0.43223  0.62472  1.0000
  Fe  Fe58      1.0  0.06469  0.49782  0.62474  1.0000
  S   S122      1.0  0.05231  0.48442  0.64015  1.0000
  S   S123      1.0  0.08301  0.49076  0.60983  1.0000
  Fe  Fe59      1.0  0.04522  0.52343  0.63079  1.0000
  S   S124      1.0  0.03104  0.51231  0.64698  1.0000
  S   S125      1.0  0.04155  0.54608  0.62555  1.0000
  H   H492      1.0  0.02548  0.65420  0.51986  1.0000
  S   S126      1.0  0.07210  0.63863  0.41417  1.0000
  Fe  Fe60      1.0  0.03509  0.49903  0.63260  1.0000
  S   S127      1.0  0.01918  0.49187  0.62858  1.0000
  S   S128      1.0  0.06350  0.51098  0.63846  1.0000
  S   S129      1.0  0.04766  0.51121  0.61586  1.0000
  Fe  Fe61      1.0  0.04145  0.62030  0.53293  1.0000
  S   S130      1.0  0.03105  0.63528  0.54589  1.0000
  S   S131      1.0  0.04552  0.63002  0.51074  1.0000
  Fe  Fe62      1.0  0.04030  0.59655  0.55726  1.0000
  S   S132      1.0  0.02964  0.60978  0.57187  1.0000
  S   S133      1.0  0.04317  0.57398  0.56410  1.0000
  Fe  Fe63      1.0  0.01766  0.62103  0.55643  1.0000
  H   H493      1.0  0.10688  0.33940  0.36552  1.0000
  Fe  Fe64      1.0  0.04422  0.62271  0.55978  1.0000
  C   C313      1.0  0.00066  0.42632  0.32401  1.0000
  S   S134      1.0  0.02697  0.60688  0.54264  1.0000
  S   S135      1.0  0.05597  0.60863  0.54613  1.0000
  Fe  Fe65      1.0  0.03177  0.34583  0.55001  1.0000
  C   C314      1.0  0.06710  0.61385  0.37948  1.0000
  Fe  Fe66      1.0  0.05165  0.60034  0.42017  1.0000
  S   S136      1.0  0.03364  0.60076  0.43715  1.0000
  S   S137      1.0  0.06086  0.58330  0.40910  1.0000
  Fe  Fe67      1.0  0.05663  0.62606  0.42327  1.0000
  S   S138      1.0  0.03898  0.62891  0.44044  1.0000
  H   H494      1.0  0.01761  0.50960  0.33538  1.0000
  Fe  Fe68      1.0  0.04529  0.60677  0.44822  1.0000
  S   S139      1.0  0.04337  0.59713  0.47031  1.0000
  Fe  Fe69      1.0  0.02853  0.62281  0.42835  1.0000
  C   C315      1.0  0.05788  0.49369  0.33183  1.0000
  S   S140      1.0  0.06401  0.60428  0.43208  1.0000
  S   S141      1.0  0.04552  0.62205  0.41025  1.0000
  C   C316      1.0  0.00512  0.37810  0.57367  1.0000
  S   S142      1.0  0.03231  0.36711  0.53950  1.0000
  C   C317      1.0  0.99912  0.43222  0.61080  1.0000
  Fe  Fe70      1.0  0.04430  0.42771  0.33379  1.0000
  H   H495      1.0  0.07732  0.51897  0.60876  1.0000
  S   S143      1.0  0.03800  0.40920  0.34811  1.0000
  S   S144      1.0  0.02822  0.51413  0.35685  1.0000
  C   C318      1.0  0.07338  0.34751  0.37774  1.0000
  C   C319      1.0  0.05213  0.34313  0.47019  1.0000
  C   C320      1.0  0.03543  0.48878  0.35199  1.0000
  S   S145      1.0  0.03465  0.44864  0.33710  1.0000
  Fe  Fe71      1.0  0.03093  0.34233  0.42440  1.0000
  S   S146      1.0  0.03871  0.35638  0.43105  1.0000
  S   S147      1.0  0.00908  0.34287  0.42830  1.0000
  H   H496      1.0  0.03084  0.49148  0.32363  1.0000
  H   H497      1.0  0.09912  0.36359  0.36625  1.0000
  C   C321      1.0  0.06171  0.37925  0.59044  1.0000
  H   H498      1.0  0.01232  0.40173  0.34889  1.0000
  Fe  Fe72      1.0  0.05378  0.35638  0.41140  1.0000
  S   S148      1.0  0.06204  0.37437  0.39848  1.0000
  H   H499      1.0  0.99326  0.44091  0.61478  1.0000
  S   S149      1.0  0.04471  0.34393  0.40404  1.0000
  C   C322      1.0  0.09115  0.34546  0.38854  1.0000
  H   H500      1.0  0.99774  0.37156  0.57794  1.0000
  H   H501      1.0  0.01562  0.43029  0.33843  1.0000
  H   H502      1.0  0.00934  0.63918  0.53417  1.0000
  C   C323      1.0  0.04485  0.39982  0.36208  1.0000
  C   C324      1.0  0.03969  0.38871  0.37019  1.0000
  C   C325      1.0  0.04478  0.38094  0.38147  1.0000
  C   C326      1.0  0.05511  0.38423  0.38468  1.0000
  C   C327      1.0  0.06034  0.39529  0.37653  1.0000
  C   C328      1.0  0.05521  0.40310  0.36525  1.0000
  H   H503      1.0  0.03167  0.38613  0.36778  1.0000
  H   H504      1.0  0.04065  0.37249  0.38771  1.0000
  H   H505      1.0  0.06831  0.39790  0.37900  1.0000
  H   H506      1.0  0.05922  0.41167  0.35907  1.0000
  S   S150      1.0  0.06848  0.33863  0.42001  1.0000
  N   N32       1.0  0.01570  0.37416  0.58138  1.0000
  H   H507      1.0  0.02689  0.45471  0.61879  1.0000
  H   H508      1.0  0.04223  0.63825  0.48355  1.0000
  S   S151      1.0  0.06453  0.46877  0.32612  1.0000
  N   N33       1.0  0.99459  0.58424  0.57211  1.0000
  C   C329      1.0  0.00602  0.60558  0.40833  1.0000
  C   C330      1.0  0.01042  0.61382  0.41362  1.0000
  C   C331      1.0  0.00147  0.62097  0.42296  1.0000
  H   H509      1.0  0.08677  0.33672  0.55975  1.0000
  S   S152      1.0  0.01064  0.57786  0.32115  1.0000
  H   H510      1.0  0.04963  0.47443  0.59322  1.0000
  C   C332      1.0  0.01360  0.33375  0.40536  1.0000
  C   C333      1.0  0.07237  0.64294  0.46965  1.0000
  C   C334      1.0  0.04406  0.62093  0.49988  1.0000
  C   C335      1.0  0.04448  0.60715  0.50403  1.0000
  C   C336      1.0  0.04411  0.59997  0.49491  1.0000
  C   C337      1.0  0.04324  0.60653  0.48165  1.0000
  C   C338      1.0  0.04229  0.62039  0.47768  1.0000
  C   C339      1.0  0.04284  0.62756  0.48672  1.0000
  H   H511      1.0  0.04543  0.60195  0.51416  1.0000
  H   H512      1.0  0.04473  0.58925  0.49809  1.0000
  H   H513      1.0  0.04112  0.62558  0.46765  1.0000
  H   H514      1.0  0.00297  0.59400  0.36062  1.0000
  H   H515      1.0  0.01327  0.57717  0.39518  1.0000
  S   S153      1.0  0.05357  0.63208  0.57027  1.0000
  C   C340      1.0  0.99775  0.63967  0.52044  1.0000
  H   H516      1.0  0.04727  0.46327  0.60938  1.0000
  Fe  Fe73      1.0  0.03954  0.55885  0.35358  1.0000
  H   H517      1.0  0.08409  0.36616  0.53095  1.0000
  H   H518      1.0  0.08144  0.58877  0.38610  1.0000
  C   C341      1.0  0.05386  0.58100  0.39690  1.0000
  H   H519      1.0  0.03642  0.35557  0.46030  1.0000
  N   N34       1.0  0.01414  0.55949  0.41115  1.0000
  H   H520      1.0  0.99291  0.33329  0.46192  1.0000
  H   H521      1.0  0.00093  0.59003  0.48238  1.0000
  H   H522      1.0  0.05079  0.64808  0.58862  1.0000
  H   H523      1.0  0.03086  0.35680  0.58691  1.0000
  H   H524      1.0  0.99384  0.56526  0.56915  1.0000
  C   C342      1.0  0.09363  0.35846  0.52972  1.0000
  H   H525      1.0  0.00635  0.55101  0.32745  1.0000
  N   N35       1.0  0.09616  0.35021  0.54286  1.0000
  H   H526      1.0  0.02080  0.40179  0.59562  1.0000
  C   C343      1.0  0.04074  0.55426  0.60875  1.0000
  C   C344      1.0  0.04295  0.56733  0.60377  1.0000
  C   C345      1.0  0.04330  0.57367  0.59017  1.0000
  C   C346      1.0  0.04146  0.56695  0.58146  1.0000
  C   C347      1.0  0.03887  0.55403  0.58653  1.0000
  C   C348      1.0  0.03841  0.54776  0.60014  1.0000
  H   H527      1.0  0.04470  0.57247  0.61037  1.0000
  H   H528      1.0  0.04541  0.58359  0.58635  1.0000
  H   H529      1.0  0.03728  0.54883  0.57989  1.0000
  H   H530      1.0  0.03620  0.53791  0.60395  1.0000
  S   S154      1.0  0.05999  0.37758  0.54829  1.0000
  H   H531      1.0  0.07196  0.33728  0.38339  1.0000
  C   C349      1.0  0.02862  0.55761  0.41000  1.0000
  S   S155      1.0  0.01255  0.34161  0.56366  1.0000
  H   H532      1.0  0.00433  0.53979  0.61055  1.0000
  C   C350      1.0  0.99159  0.63167  0.54464  1.0000
  C   C351      1.0  0.08172  0.61036  0.39440  1.0000
  C   C352      1.0  0.07737  0.54451  0.58111  1.0000
  C   C353      1.0  0.99344  0.52791  0.60612  1.0000
  H   H533      1.0  0.02036  0.39374  0.57430  1.0000
  H   H534      1.0  0.03109  0.48233  0.58076  1.0000
  C   C354      1.0  0.99303  0.59934  0.48079  1.0000
  C   C355      1.0  0.00988  0.50566  0.61921  1.0000
  C   C356      1.0  0.01155  0.51861  0.61781  1.0000
  H   H535      1.0  0.01309  0.54017  0.42435  1.0000
  H   H536      1.0  0.01614  0.32729  0.38711  1.0000
  H   H537      1.0  0.01881  0.52014  0.62221  1.0000
  H   H538      1.0  0.09536  0.32844  0.37256  1.0000
  C   C357      1.0  0.07645  0.45702  0.59525  1.0000
  C   C358      1.0  0.08073  0.46810  0.58602  1.0000
  C   C359      1.0  0.08305  0.47828  0.59053  1.0000
  C   C360      1.0  0.08078  0.47759  0.60430  1.0000
  C   C361      1.0  0.07656  0.46651  0.61356  1.0000
  C   C362      1.0  0.07466  0.45611  0.60902  1.0000
  H   H539      1.0  0.08223  0.46882  0.57536  1.0000
  H   H540      1.0  0.08640  0.48677  0.58333  1.0000
  H   H541      1.0  0.07507  0.46578  0.62421  1.0000
  H   H542      1.0  0.07187  0.44739  0.61620  1.0000
  H   H543      1.0  0.01277  0.60053  0.40070  1.0000
  H   H544      1.0  0.08479  0.35269  0.39484  1.0000
  C   C363      1.0  0.00228  0.33240  0.46504  1.0000
  C   C364      1.0  0.01095  0.42496  0.61491  1.0000
  C   C365      1.0  0.01847  0.41375  0.60975  1.0000
  H   H545      1.0  0.01596  0.47620  0.58793  1.0000
  H   H546      1.0  0.02731  0.40776  0.61328  1.0000
  C   C366      1.0  0.00659  0.56698  0.42175  1.0000
  C   C367      1.0  0.05966  0.56982  0.39100  1.0000
  C   C368      1.0  0.04990  0.50382  0.33856  1.0000
  H   H547      1.0  0.05960  0.52883  0.58804  1.0000
  C   C369      1.0  0.99394  0.32728  0.54457  1.0000
  C   C370      1.0  0.00532  0.61213  0.48646  1.0000
  H   H548      1.0  0.10019  0.52769  0.58679  1.0000
  Fe  Fe74      1.0  0.05819  0.32611  0.41422  1.0000
  C   C371      1.0  0.99507  0.42844  0.60116  1.0000
  H   H549      1.0  0.01615  0.56175  0.38995  1.0000
  S   S156      1.0  0.02086  0.55309  0.35348  1.0000
  H   H550      1.0  0.06656  0.33268  0.48240  1.0000
  H   H551      1.0  0.09849  0.35316  0.56126  1.0000
  C   C372      1.0  0.00112  0.58517  0.35831  1.0000
  C   C373      1.0  0.99317  0.37212  0.54314  1.0000
  H   H552      1.0  0.07250  0.52421  0.57410  1.0000
  N   N36       1.0  0.08737  0.34859  0.37547  1.0000
  S   S157      1.0  0.03419  0.57362  0.36719  1.0000
  H   H553      1.0  0.00423  0.38599  0.59587  1.0000
  C   C374      1.0  0.05203  0.34823  0.49121  1.0000
  H   H554      1.0  0.08669  0.59535  0.36849  1.0000
  H   H555      1.0  0.08858  0.63767  0.43843  1.0000
  H   H556      1.0  0.00958  0.62125  0.48341  1.0000
  Fe  Fe75      1.0  0.05418  0.45361  0.32475  1.0000
  C   C375      1.0  0.00961  0.37548  0.59541  1.0000
  H   H557      1.0  0.04290  0.44754  0.59870  1.0000
  H   H558      1.0  0.03171  0.55150  0.41944  1.0000
  C   C376      1.0  0.07581  0.52956  0.60299  1.0000
  H   H559      1.0  0.01576  0.35312  0.58583  1.0000
  H   H560      1.0  0.09479  0.51240  0.58960  1.0000
  H   H561      1.0  0.05843  0.55876  0.37723  1.0000
  H   H562      1.0  0.02838  0.59494  0.38054  1.0000
  C   C377      1.0  0.04268  0.57654  0.37781  1.0000
  H   H563      1.0  0.99770  0.35265  0.52933  1.0000
  H   H564      1.0  0.01304  0.61983  0.45967  1.0000
  C   C378      1.0  0.04087  0.35356  0.46882  1.0000
  C   C379      1.0  0.02537  0.38295  0.57519  1.0000
  C   C380      1.0  0.99595  0.33352  0.55361  1.0000
  C   C381      1.0  0.03867  0.50138  0.34868  1.0000
  H   H565      1.0  0.06520  0.53448  0.60648  1.0000
  S   S158      1.0  0.05266  0.53868  0.35036  1.0000
  C   C382      1.0  0.03714  0.58790  0.38344  1.0000
  H   H566      1.0  0.07939  0.54553  0.57004  1.0000
  H   H567      1.0  0.02657  0.36943  0.47751  1.0000
  S   S159      1.0  0.03343  0.36810  0.50234  1.0000
  C   C383      1.0  0.00854  0.33069  0.55653  1.0000
  H   H568      1.0  0.06697  0.55018  0.58424  1.0000
  N   N37       1.0  0.00992  0.50010  0.32468  1.0000
  C   C384      1.0  0.04078  0.35864  0.48987  1.0000
  N   N38       1.0  0.08116  0.60990  0.38080  1.0000
  H   H569      1.0  0.06837  0.56273  0.39396  1.0000
  C   C385      1.0  0.08879  0.61931  0.37068  1.0000
  S   S160      1.0  0.01672  0.42994  0.62622  1.0000
  Fe  Fe76      1.0  0.05295  0.36179  0.54327  1.0000
  H   H570      1.0  0.06287  0.39985  0.58160  1.0000
  H   H571      1.0  0.09286  0.35220  0.52326  1.0000
  N   N39       1.0  0.03131  0.46748  0.59922  1.0000
  H   H572      1.0  0.99438  0.41920  0.64321  1.0000
  H   H573      1.0  0.99097  0.36095  0.41104  1.0000
  H   H574      1.0  0.03815  0.59879  0.39739  1.0000
  S   S161      1.0  0.99870  0.41310  0.58297  1.0000
  C   C386      1.0  0.08867  0.36241  0.36828  1.0000
  C   C387      1.0  0.01084  0.32670  0.39748  1.0000
  H   H575      1.0  0.01372  0.60327  0.48802  1.0000
  H   H576      1.0  0.00006  0.40463  0.63607  1.0000
  H   H577      1.0  0.99470  0.64975  0.40220  1.0000
  C   C388      1.0  0.02274  0.36007  0.58128  1.0000
  H   H578      1.0  0.06621  0.61328  0.36948  1.0000
  C   C389      1.0  0.99272  0.60438  0.41247  1.0000
  S   S162      1.0  0.06261  0.35545  0.52359  1.0000
  C   C390      1.0  0.06022  0.37799  0.56472  1.0000
  C   C391      1.0  0.01049  0.51213  0.32870  1.0000
  C   C392      1.0  0.99337  0.40871  0.64482  1.0000
  H   H579      1.0  0.00304  0.36971  0.54578  1.0000
  S   S163      1.0  0.05164  0.34099  0.55546  1.0000
  H   H580      1.0  0.01142  0.38294  0.52295  1.0000
  C   C393      1.0  0.01466  0.41022  0.59988  1.0000
  C   C394      1.0  0.01097  0.40669  0.33849  1.0000
  H   H581      1.0  0.99858  0.64710  0.59117  1.0000
  H   H582      1.0  0.99890  0.49382  0.61482  1.0000
  S   S164      1.0  0.00688  0.63177  0.42897  1.0000
  H   H583      1.0  0.07624  0.60323  0.40229  1.0000
  C   C395      1.0  0.04197  0.47158  0.60242  1.0000
  H   H584      1.0  0.08411  0.54965  0.58314  1.0000
  H   H585      1.0  0.10169  0.34602  0.38725  1.0000
  C   C396      1.0  0.00270  0.36119  0.52441  1.0000
  Fe  Fe77      1.0  0.03418  0.53401  0.34823  1.0000
  H   H586      1.0  0.01682  0.60184  0.46454  1.0000
  C   C397      1.0  0.08700  0.59611  0.37863  1.0000
  H   H587      1.0  0.07715  0.62056  0.39649  1.0000
  H   H588      1.0  0.99342  0.54103  0.31829  1.0000
  H   H589      1.0  0.99825  0.60048  0.55513  1.0000
  C   C398      1.0  0.06344  0.63947  0.45271  1.0000
  H   H590      1.0  0.00385  0.61044  0.45542  1.0000
  C   C399      1.0  0.00113  0.55713  0.31968  1.0000
  H   H591      1.0  0.06412  0.62863  0.45754  1.0000
  H   H592      1.0  0.03077  0.38162  0.56488  1.0000
  H   H593      1.0  0.09758  0.59273  0.37964  1.0000
  H   H594      1.0  0.06101  0.60714  0.38718  1.0000
  C   C400      1.0  0.02420  0.47893  0.59038  1.0000
  C   C401      1.0  0.03525  0.36136  0.47862  1.0000
  H   H595      1.0  0.00058  0.51672  0.33436  1.0000
  H   H596      1.0  0.09217  0.60764  0.39574  1.0000
  C   C402      1.0  0.00042  0.63705  0.53322  1.0000
  C   C403      1.0  0.00301  0.41758  0.59554  1.0000
  C   C404      1.0  0.05978  0.36665  0.57527  1.0000
  S   S165      1.0  0.04371  0.32347  0.43401  1.0000
  H   H597      1.0  0.05898  0.35738  0.57356  1.0000
  H   H598      1.0  0.09541  0.64038  0.45089  1.0000
  C   C405      1.0  0.03731  0.45619  0.59233  1.0000
  H   H599      1.0  0.99949  0.38865  0.57373  1.0000
  H   H600      1.0  0.01379  0.45961  0.60980  1.0000
  H   H601      1.0  0.00830  0.33872  0.45670  1.0000
  C   C406      1.0  0.00335  0.52975  0.61121  1.0000
  C   C407      1.0  0.10887  0.34016  0.54075  1.0000
  H   H602      1.0  0.10847  0.33331  0.53468  1.0000
  H   H603      1.0  0.02959  0.45258  0.58996  1.0000
  H   H604      1.0  0.09366  0.34103  0.35741  1.0000
  H   H605      1.0  0.01731  0.37264  0.60151  1.0000
  C   C408      1.0  0.02178  0.46315  0.61178  1.0000
  H   H606      1.0  0.09001  0.33521  0.39438  1.0000
  C   C409      1.0  0.08721  0.63677  0.44943  1.0000
  C   C410      1.0  0.04873  0.64956  0.56865  1.0000
  H   H607      1.0  0.01686  0.47146  0.61715  1.0000
  H   H608      1.0  0.04226  0.32264  0.50829  1.0000
  H   H609      1.0  0.06252  0.64880  0.47412  1.0000
  N   N40       1.0  0.00130  0.41975  0.33811  1.0000
  H   H610      1.0  0.00255  0.38633  0.51001  1.0000
  H   H611      1.0  0.07138  0.51305  0.59037  1.0000
  H   H612      1.0  0.08468  0.62978  0.37217  1.0000
  C   C411      1.0  0.99385  0.59146  0.55815  1.0000
  S   S166      1.0  0.07226  0.41262  0.65034  1.0000
  H   H613      1.0  0.09609  0.52357  0.57333  1.0000
  H   H614      1.0  0.04460  0.45901  0.58280  1.0000
  H   H615      1.0  0.00483  0.63986  0.57665  1.0000
  H   H616      1.0  0.00909  0.57699  0.41944  1.0000
  S   S167      1.0  0.99545  0.62760  0.56048  1.0000
  H   H617      1.0  0.06661  0.49562  0.32409  1.0000
  H   H618      1.0  0.00452  0.48106  0.33412  1.0000
  C   C412      1.0  0.07027  0.52382  0.58506  1.0000
  C   C413      1.0  0.09319  0.52320  0.58432  1.0000
  C   C414      1.0  0.00027  0.50380  0.61372  1.0000
  Fe  Fe78      1.0  0.04173  0.35892  0.52094  1.0000
  H   H619      1.0  0.99945  0.33691  0.47399  1.0000
  C   C415      1.0  0.01069  0.56713  0.39818  1.0000
  C   C416      1.0  0.99215  0.51493  0.60704  1.0000
  H   H620      1.0  0.01274  0.48665  0.34350  1.0000
  H   H621      1.0  0.02062  0.61498  0.41013  1.0000
  C   C417      1.0  0.00872  0.57974  0.57320  1.0000
  H   H622      1.0  0.08400  0.33673  0.54381  1.0000
  H   H623      1.0  0.02683  0.48681  0.35990  1.0000
  C   C418      1.0  0.05455  0.48114  0.33501  1.0000
  H   H624      1.0  0.00461  0.64381  0.51164  1.0000
  C   C419      1.0  0.00631  0.33351  0.41859  1.0000
  H   H625      1.0  0.99561  0.49427  0.34276  1.0000
  C   C420      1.0  0.08514  0.34322  0.54986  1.0000
  S   S168      1.0  0.03961  0.33802  0.53113  1.0000
  H   H626      1.0  0.06048  0.35845  0.59618  1.0000
  C   C421      1.0  0.04266  0.59012  0.39297  1.0000
  H   H627      1.0  0.08225  0.36989  0.37430  1.0000
  H   H628      1.0  0.08846  0.61934  0.36029  1.0000
  N   N41       1.0  0.99868  0.61147  0.47625  1.0000
  N   N42       1.0  0.07916  0.53028  0.58836  1.0000
  S   S169      1.0  0.05870  0.33219  0.45898  1.0000
  Fe  Fe79      1.0  0.05270  0.33765  0.43909  1.0000
  H   H629      1.0  0.08210  0.53459  0.60583  1.0000
  H   H630      1.0  0.01620  0.54036  0.40678  1.0000
  C   C422      1.0  0.06131  0.38993  0.56709  1.0000
  C   C423      1.0  0.06194  0.39061  0.57992  1.0000
  Fe  Fe80      1.0  0.05964  0.33501  0.53549  1.0000
  H   H631      1.0  0.03145  0.56741  0.40788  1.0000
  C   C424      1.0  0.06061  0.36728  0.58807  1.0000
  H   H632      1.0  0.07017  0.34971  0.36811  1.0000
  H   H633      1.0  0.02734  0.35869  0.57085  1.0000
  H   H634      1.0  0.11741  0.34505  0.53537  1.0000
  H   H635      1.0  0.03791  0.48030  0.60732  1.0000
  H   H636      1.0  0.00222  0.36903  0.60033  1.0000
  C   C425      1.0  0.05775  0.34060  0.48135  1.0000
  C   C426      1.0  0.09623  0.33894  0.36736  1.0000
  H   H637      1.0  0.03295  0.38090  0.58127  1.0000
  H   H638      1.0  0.99978  0.54734  0.41551  1.0000
  H   H639      1.0  0.99085  0.50198  0.64343  1.0000
  H   H640      1.0  0.09947  0.61658  0.37134  1.0000
  N   N43       1.0  0.07397  0.64451  0.45504  1.0000
  H   H641      1.0  0.08014  0.64665  0.47182  1.0000
  H   H642      1.0  0.01971  0.48766  0.59526  1.0000
  H   H643      1.0  0.06241  0.62428  0.38085  1.0000
  C   C427      1.0  0.05408  0.56756  0.38149  1.0000
  H   H644      1.0  0.99981  0.56892  0.39873  1.0000
  H   H645      1.0  0.05643  0.34612  0.49980  1.0000
  H   H646      1.0  0.04080  0.46899  0.34779  1.0000
  C   C428      1.0  0.04330  0.47871  0.34511  1.0000
  H   H647      1.0  0.02098  0.33979  0.40102  1.0000
  H   H648      1.0  0.03465  0.55254  0.40167  1.0000
  H   H649      1.0  0.08555  0.36529  0.35852  1.0000
  C   C429      1.0  0.99712  0.64795  0.58098  1.0000
  H   H650      1.0  0.00882  0.56148  0.43172  1.0000
  H   H651      1.0  0.07299  0.63225  0.47511  1.0000
  H   H652      1.0  0.00941  0.37740  0.56302  1.0000
  H   H653      1.0  0.06644  0.35479  0.38366  1.0000
  C   C430      1.0  0.00123  0.38490  0.52106  1.0000
  H   H654      1.0  0.10527  0.36429  0.54626  1.0000
  H   H655      1.0  0.07550  0.35055  0.55185  1.0000
  H   H656      1.0  0.99335  0.43615  0.32331  1.0000
  S   S170      1.0  0.04349  0.56825  0.33152  1.0000
  H   H657      1.0  0.06434  0.64050  0.44182  1.0000
  S   S171      1.0  0.03670  0.54219  0.32604  1.0000
  H   H658      1.0  0.00579  0.57611  0.36505  1.0000
  H   H659      1.0  0.99083  0.32577  0.43422  1.0000
  H   H660      1.0  0.05253  0.51348  0.33599  1.0000
  C   C431      1.0  0.00853  0.61087  0.46340  1.0000
  C   C432      1.0  0.00554  0.49008  0.33680  1.0000
  S   S172      1.0  0.06447  0.43235  0.32290  1.0000
  H   H661      1.0  0.08758  0.36682  0.55267  1.0000
  C   C433      1.0  0.09695  0.35897  0.55112  1.0000
  Fe  Fe81      1.0  0.02541  0.56181  0.33147  1.0000
  H   H662      1.0  0.11110  0.33380  0.55049  1.0000
  H   H663      1.0  0.01462  0.57292  0.56630  1.0000
  H   H664      1.0  0.99175  0.63287  0.47072  1.0000
  H   H665      1.0  0.00461  0.36228  0.51334  1.0000
  H   H666      1.0  0.99939  0.58494  0.55089  1.0000
  H   H667      1.0  0.99560  0.56887  0.42270  1.0000
  H   H668      1.0  0.05329  0.64511  0.45674  1.0000
  H   H669      1.0  0.02877  0.32374  0.46185  1.0000
  H   H670      1.0  0.99171  0.60227  0.57895  1.0000
  C   C434      1.0  0.00559  0.42846  0.34401  1.0000
  Fe  Fe82      1.0  0.05456  0.54775  0.32817  1.0000
  H   H671      1.0  0.00770  0.39969  0.33464  1.0000
  H   H672      1.0  0.02100  0.40794  0.33220  1.0000
  H   H673      1.0  0.01363  0.58837  0.57057  1.0000
  N   N44       1.0  0.99457  0.37371  0.52857  1.0000
  H   H674      1.0  0.01262  0.35831  0.52710  1.0000
  H   H675      1.0  0.08844  0.62589  0.45432  1.0000
  C   C435      1.0  0.01065  0.54624  0.41461  1.0000
  H   H676      1.0  0.04607  0.65432  0.54834  1.0000
  H   H677      1.0  0.00656  0.58473  0.34778  1.0000
  H   H678      1.0  0.00637  0.42378  0.35462  1.0000
  H   H679      1.0  0.00971  0.57418  0.58357  1.0000
  H   H680      1.0  0.99543  0.39453  0.52394  1.0000
  H   H681      1.0  0.99819  0.61252  0.49634  1.0000
  H   H682      1.0  0.99885  0.51221  0.64805  1.0000
  H   H683      1.0  0.99857  0.43845  0.34375  1.0000
  H   H684      1.0  0.00312  0.65425  0.55402  1.0000
  H   H685      1.0  0.99780  0.41993  0.31907  1.0000
  C   C436      1.0  0.99642  0.32605  0.42399  1.0000
  H   H686      1.0  0.01376  0.51993  0.31984  1.0000
  H   H687      1.0  0.99017  0.50849  0.32104  1.0000
  H   H688      1.0  0.02135  0.32201  0.47939  1.0000
  C   C437      1.0  0.99017  0.50732  0.65131  1.0000
  C   C438      1.0  0.07749  0.46144  0.66592  1.0000
  H   H689      1.0  0.01030  0.53305  0.67691  1.0000
  H   H690      1.0  0.07584  0.41325  0.67564  1.0000
  H   H691      1.0  0.11901  0.57881  0.91185  1.0000
  C   C439      1.0  0.05135  0.50281  0.70610  1.0000
  Fe  Fe83      1.0  0.05229  0.42795  0.84878  1.0000
  S   S173      1.0  0.03341  0.44354  0.84665  1.0000
  S   S174      1.0  0.05749  0.42852  0.86792  1.0000
  Fe  Fe84      1.0  0.05536  0.42281  0.82098  1.0000
  S   S175      1.0  0.03693  0.43825  0.81701  1.0000
  S   S176      1.0  0.06800  0.41522  0.80269  1.0000
  Fe  Fe85      1.0  0.04441  0.45069  0.82585  1.0000
  S   S177      1.0  0.04586  0.47210  0.81721  1.0000
  Fe  Fe86      1.0  0.02779  0.42936  0.83819  1.0000
  S   S178      1.0  0.00617  0.42786  0.84470  1.0000
  S   S179      1.0  0.06360  0.43602  0.82821  1.0000
  S   S180      1.0  0.04578  0.41289  0.84193  1.0000
  Fe  Fe87      1.0  0.04414  0.52345  0.86064  1.0000
  S   S181      1.0  0.05080  0.54284  0.85060  1.0000
  S   S182      1.0  0.02335  0.52058  0.87136  1.0000
  Fe  Fe88      1.0  0.07049  0.50649  0.84902  1.0000
  S   S183      1.0  0.07924  0.52425  0.83747  1.0000
  S   S184      1.0  0.08056  0.48491  0.84906  1.0000
  Fe  Fe89      1.0  0.07038  0.53186  0.85659  1.0000
  S   S185      1.0  0.08458  0.54124  0.86156  1.0000
  Fe  Fe90      1.0  0.05915  0.53366  0.83253  1.0000
  S   S186      1.0  0.05459  0.54488  0.81241  1.0000
  S   S187      1.0  0.06289  0.51325  0.86846  1.0000
  S   S188      1.0  0.05129  0.51508  0.84218  1.0000
  Fe  Fe91      1.0  0.12551  0.52173  0.91779  1.0000
  S   S189      1.0  0.13471  0.50055  0.92646  1.0000
  S   S190      1.0  0.10397  0.52584  0.91627  1.0000
  Fe  Fe92      1.0  0.15056  0.53106  0.91584  1.0000
  S   S191      1.0  0.16194  0.51056  0.92400  1.0000
  S   S192      1.0  0.15748  0.55030  0.91049  1.0000
  Fe  Fe93      1.0  0.15296  0.50416  0.91073  1.0000
  S   S193      1.0  0.16313  0.48783  0.89955  1.0000
  Fe  Fe94      1.0  0.14264  0.50888  0.93895  1.0000
  S   S194      1.0  0.14188  0.49830  0.96055  1.0000
  S   S195      1.0  0.14333  0.52483  0.90103  1.0000
  S   S196      1.0  0.13176  0.52989  0.93189  1.0000
  Fe  Fe95      1.0  0.14528  0.42278  0.90184  1.0000
  S   S197      1.0  0.13255  0.43806  0.91361  1.0000
  S   S198      1.0  0.16767  0.41829  0.89934  1.0000
  Fe  Fe96      1.0  0.12119  0.41895  0.89419  1.0000
  S   S199      1.0  0.10670  0.43393  0.90551  1.0000
  S   S200      1.0  0.11486  0.40844  0.88197  1.0000
  Fe  Fe97      1.0  0.12223  0.44616  0.89650  1.0000
  S   S201      1.0  0.11754  0.46827  0.88852  1.0000
  Fe  Fe98      1.0  0.11849  0.42420  0.92152  1.0000
  S   S202      1.0  0.10827  0.42104  0.94341  1.0000
  S   S203      1.0  0.13597  0.43206  0.88391  1.0000
  S   S204      1.0  0.13192  0.40806  0.91101  1.0000
  H   H692      1.0  0.07939  0.46607  0.67322  1.0000
  C   C440      1.0  0.03283  0.54255  0.66875  1.0000
  S   S205      1.0  0.21553  0.55338  0.91174  1.0000
  H   H693      1.0  0.11286  0.58342  0.89673  1.0000
  H   H694      1.0  0.00527  0.48567  0.70795  1.0000
  H   H695      1.0  0.19413  0.45196  0.91257  1.0000
  H   H696      1.0  0.03111  0.54927  0.65896  1.0000
  H   H697      1.0  0.18265  0.53695  0.96631  1.0000
  H   H698      1.0  0.00376  0.51988  0.80758  1.0000
  H   H699      1.0  0.00649  0.41371  0.76229  1.0000
  H   H700      1.0  0.09548  0.55517  0.90614  1.0000
  Fe  Fe99      1.0  0.21785  0.45790  0.94521  1.0000
  H   H701      1.0  0.99764  0.44490  0.80692  1.0000
  S   S206      1.0  0.04937  0.48921  0.67506  1.0000
  H   H702      1.0  0.02907  0.40212  0.67332  1.0000
  S   S207      1.0  0.20789  0.45909  0.92896  1.0000
  H   H703      1.0  0.01392  0.55299  0.71633  1.0000
  H   H704      1.0  0.02167  0.54424  0.73758  1.0000
  C   C441      1.0  0.00786  0.54005  0.83863  1.0000
  Fe  Fe100     1.0  0.04325  0.40168  0.72142  1.0000
  S   S208      1.0  0.03997  0.42309  0.70998  1.0000
  S   S209      1.0  0.04659  0.38631  0.70935  1.0000
  Fe  Fe101     1.0  0.03709  0.40932  0.74841  1.0000
  S   S210      1.0  0.03316  0.43124  0.73905  1.0000
  S   S211      1.0  0.03165  0.40393  0.77101  1.0000
  Fe  Fe102     1.0  0.02225  0.42638  0.72673  1.0000
  H   H705      1.0  0.01868  0.41733  0.65450  1.0000
  Fe  Fe103     1.0  0.05145  0.42575  0.72330  1.0000
  S   S212      1.0  0.06533  0.43989  0.71504  1.0000
  S   S213      1.0  0.02444  0.40480  0.73729  1.0000
  S   S214      1.0  0.05638  0.40400  0.73355  1.0000
  C   C442      1.0  0.01461  0.42510  0.66065  1.0000
  Fe  Fe104     1.0  0.05740  0.51028  0.75917  1.0000
  S   S215      1.0  0.03844  0.50354  0.77020  1.0000
  S   S216      1.0  0.07247  0.50676  0.77155  1.0000
  Fe  Fe105     1.0  0.05009  0.51709  0.73201  1.0000
  S   S217      1.0  0.03057  0.51069  0.74082  1.0000
  Fe  Fe106     1.0  0.02868  0.52155  0.75677  1.0000
  S   S218      1.0  0.00852  0.53366  0.76435  1.0000
  Fe  Fe107     1.0  0.04217  0.49336  0.75339  1.0000
  S   S219      1.0  0.03891  0.47245  0.75940  1.0000
  S   S220      1.0  0.04729  0.52945  0.74708  1.0000
  S   S221      1.0  0.06202  0.49856  0.74323  1.0000
  H   H706      1.0  0.22557  0.45041  0.97111  1.0000
  N   N45       1.0  0.17535  0.46799  0.97025  1.0000
  H   H707      1.0  0.00876  0.46966  0.79001  1.0000
  H   H708      1.0  0.01135  0.51557  0.82835  1.0000
  H   H709      1.0  0.17831  0.39807  0.98258  1.0000
  H   H710      1.0  0.18081  0.51557  0.95374  1.0000
  C   C443      1.0  0.05745  0.51926  0.68590  1.0000
  H   H711      1.0  0.00345  0.46415  0.77145  1.0000
  H   H712      1.0  0.02344  0.43294  0.68540  1.0000
  H   H713      1.0  0.04142  0.41744  0.65590  1.0000
  H   H714      1.0  0.05426  0.44520  0.68813  1.0000
  H   H715      1.0  0.04220  0.54387  0.67032  1.0000
  H   H716      1.0  0.19033  0.38875  0.97101  1.0000
  H   H717      1.0  0.01543  0.53787  0.70125  1.0000
  H   H718      1.0  0.20050  0.41985  0.98175  1.0000
  H   H719      1.0  0.02136  0.43276  0.80037  1.0000
  H   H720      1.0  0.12226  0.41958  0.98414  1.0000
  C   C444      1.0  0.00922  0.54361  0.67746  1.0000
  H   H721      1.0  0.02320  0.50045  0.82505  1.0000
  H   H722      1.0  0.08302  0.44360  0.68807  1.0000
  C   C445      1.0  0.06196  0.44842  0.72788  1.0000
  C   C446      1.0  0.06121  0.46224  0.72484  1.0000
  C   C447      1.0  0.05492  0.46959  0.73486  1.0000
  C   C448      1.0  0.04930  0.46312  0.74776  1.0000
  C   C449      1.0  0.05107  0.44917  0.75105  1.0000
  C   C450      1.0  0.05761  0.44182  0.74113  1.0000
  H   H723      1.0  0.06474  0.46736  0.71462  1.0000
  H   H724      1.0  0.05378  0.48033  0.73242  1.0000
  H   H725      1.0  0.04702  0.44405  0.76110  1.0000
  H   H726      1.0  0.05864  0.43106  0.74354  1.0000
  H   H727      1.0  0.08110  0.40862  0.94279  1.0000
  C   C451      1.0  0.12684  0.49766  0.85954  1.0000
  C   C452      1.0  0.06348  0.40090  0.69060  1.0000
  C   C453      1.0  0.05534  0.39187  0.69298  1.0000
  H   H728      1.0  0.05131  0.46121  0.67658  1.0000
  C   C454      1.0  0.10389  0.50480  0.87081  1.0000
  H   H729      1.0  0.06527  0.40354  0.69896  1.0000
  H   H730      1.0  0.17369  0.48878  0.96015  1.0000
  C   C455      1.0  0.02785  0.46768  0.71268  1.0000
  H   H731      1.0  0.19938  0.46730  0.87018  1.0000
  H   H732      1.0  0.04353  0.42407  0.66873  1.0000
  H   H733      1.0  0.09175  0.41638  0.92829  1.0000
  H   H734      1.0  0.05056  0.45857  0.79578  1.0000
  N   N46       1.0  0.19895  0.46027  0.89131  1.0000
  S   S222      1.0  0.15094  0.40821  0.97879  1.0000
  H   H735      1.0  0.07570  0.38925  0.92920  1.0000
  C   C456      1.0  0.99647  0.43391  0.71357  1.0000
  C   C457      1.0  0.10544  0.55932  0.92467  1.0000
  H   H736      1.0  0.10023  0.39027  0.94773  1.0000
  H   H737      1.0  0.01408  0.40842  0.68448  1.0000
  H   H738      1.0  0.08963  0.37579  0.93276  1.0000
  H   H739      1.0  0.04768  0.48508  0.70309  1.0000
  H   H740      1.0  0.99733  0.51621  0.87274  1.0000
  C   C458      1.0  0.05211  0.49910  0.68433  1.0000
  C   C459      1.0  0.11990  0.41709  0.95356  1.0000
  C   C460      1.0  0.11590  0.41987  0.96643  1.0000
  H   H741      1.0  0.03280  0.53812  0.69538  1.0000
  C   C461      1.0  0.13876  0.41163  0.96937  1.0000
  C   C462      1.0  0.14266  0.40862  0.95662  1.0000
  C   C463      1.0  0.13330  0.41148  0.94867  1.0000
  H   H742      1.0  0.10553  0.42420  0.97026  1.0000
  H   H743      1.0  0.00650  0.41132  0.80563  1.0000
  H   H744      1.0  0.15300  0.40417  0.95281  1.0000
  H   H745      1.0  0.13646  0.40920  0.93881  1.0000
  C   C464      1.0  0.17303  0.42114  0.91234  1.0000
  C   C465      1.0  0.16401  0.42321  0.92434  1.0000
  H   H746      1.0  0.15386  0.42225  0.92603  1.0000
  C   C466      1.0  0.14576  0.50740  0.96991  1.0000
  C   C467      1.0  0.05898  0.39406  0.66887  1.0000
  C   C468      1.0  0.06676  0.40343  0.66654  1.0000
  C   C469      1.0  0.00085  0.42035  0.71294  1.0000
  C   C470      1.0  0.15470  0.52553  0.97114  1.0000
  C   C471      1.0  0.15096  0.51885  0.96355  1.0000
  C   C472      1.0  0.01850  0.48715  0.86942  1.0000
  H   H747      1.0  0.01563  0.51991  0.79175  1.0000
  H   H748      1.0  0.15859  0.53446  0.96622  1.0000
  H   H749      1.0  0.15210  0.52257  0.95280  1.0000
  C   C473      1.0  0.17383  0.55016  0.91118  1.0000
  C   C474      1.0  0.18380  0.53833  0.91288  1.0000
  C   C475      1.0  0.19679  0.53899  0.91306  1.0000
  C   C476      1.0  0.19970  0.55146  0.91164  1.0000
  C   C477      1.0  0.18968  0.56313  0.91002  1.0000
  C   C478      1.0  0.17688  0.56249  0.90976  1.0000
  H   H750      1.0  0.18159  0.52878  0.91376  1.0000
  H   H751      1.0  0.20457  0.52995  0.91403  1.0000
  H   H752      1.0  0.19186  0.57279  0.90886  1.0000
  H   H753      1.0  0.16930  0.57166  0.90839  1.0000
  C   C479      1.0  0.15061  0.48267  0.89589  1.0000
  C   C480      1.0  0.13787  0.49104  0.89618  1.0000
  C   C481      1.0  0.12769  0.48667  0.89383  1.0000
  C   C482      1.0  0.13026  0.47393  0.89117  1.0000
  C   C483      1.0  0.14303  0.46561  0.89076  1.0000
  C   C484      1.0  0.15320  0.46997  0.89312  1.0000
  H   H754      1.0  0.13580  0.50090  0.89821  1.0000
  H   H755      1.0  0.11778  0.49306  0.89439  1.0000
  H   H756      1.0  0.14512  0.45579  0.88858  1.0000
  H   H757      1.0  0.16297  0.46339  0.89300  1.0000
  C   C485      1.0  0.09013  0.53610  0.87675  1.0000
  C   C486      1.0  0.10241  0.53845  0.87681  1.0000
  C   C487      1.0  0.10717  0.53457  0.88870  1.0000
  C   C488      1.0  0.09939  0.52885  0.90078  1.0000
  C   C489      1.0  0.08711  0.52649  0.90072  1.0000
  C   C490      1.0  0.08260  0.52987  0.88871  1.0000
  H   H758      1.0  0.10826  0.54332  0.86759  1.0000
  H   H759      1.0  0.11665  0.53643  0.88858  1.0000
  H   H760      1.0  0.08099  0.52214  0.91004  1.0000
  H   H761      1.0  0.07310  0.52807  0.88879  1.0000
  C   C491      1.0  0.06048  0.53491  0.80043  1.0000
  C   C492      1.0  0.05530  0.53874  0.78884  1.0000
  C   C493      1.0  0.05918  0.53028  0.77973  1.0000
  C   C494      1.0  0.06839  0.51806  0.78211  1.0000
  C   C495      1.0  0.07394  0.51449  0.79343  1.0000
  C   C496      1.0  0.06990  0.52286  0.80263  1.0000
  H   H762      1.0  0.04812  0.54815  0.78704  1.0000
  H   H763      1.0  0.05500  0.53318  0.77092  1.0000
  H   H764      1.0  0.08113  0.50510  0.79526  1.0000
  H   H765      1.0  0.07409  0.52004  0.81143  1.0000
  C   C497      1.0  0.07368  0.42314  0.87119  1.0000
  C   C498      1.0  0.07614  0.42730  0.88153  1.0000
  C   C499      1.0  0.08874  0.42296  0.88482  1.0000
  C   C500      1.0  0.09897  0.41426  0.87790  1.0000
  C   C501      1.0  0.09653  0.41005  0.86757  1.0000
  C   C502      1.0  0.08396  0.41459  0.86412  1.0000
  H   H766      1.0  0.06820  0.43386  0.88708  1.0000
  H   H767      1.0  0.09041  0.42619  0.89285  1.0000
  H   H768      1.0  0.10437  0.40325  0.86222  1.0000
  H   H769      1.0  0.08212  0.41124  0.85621  1.0000
  C   C503      1.0  0.05806  0.41195  0.79381  1.0000
  C   C504      1.0  0.04611  0.40794  0.80066  1.0000
  C   C505      1.0  0.03831  0.40512  0.79359  1.0000
  C   C506      1.0  0.04213  0.40679  0.77959  1.0000
  C   C507      1.0  0.05400  0.41098  0.77269  1.0000
  C   C508      1.0  0.06203  0.41343  0.77982  1.0000
  H   H770      1.0  0.04307  0.40662  0.81147  1.0000
  H   H771      1.0  0.02931  0.40159  0.79900  1.0000
  H   H772      1.0  0.05712  0.41206  0.76192  1.0000
  H   H773      1.0  0.07132  0.41645  0.77448  1.0000
  C   C509      1.0  0.05664  0.47499  0.82533  1.0000
  C   C510      1.0  0.05943  0.46613  0.83722  1.0000
  C   C511      1.0  0.06745  0.46873  0.84416  1.0000
  C   C512      1.0  0.07258  0.48032  0.83929  1.0000
  C   C513      1.0  0.07014  0.48898  0.82722  1.0000
  C   C514      1.0  0.06229  0.48624  0.82016  1.0000
  H   H774      1.0  0.05505  0.45746  0.84140  1.0000
  H   H775      1.0  0.06906  0.46210  0.85363  1.0000
  H   H776      1.0  0.07423  0.49786  0.82338  1.0000
  H   H777      1.0  0.06067  0.49282  0.81071  1.0000
  H   H778      1.0  0.01072  0.54701  0.82930  1.0000
  H   H779      1.0  0.01482  0.50446  0.80405  1.0000
  C   C515      1.0  0.00673  0.41817  0.82289  1.0000
  C   C516      1.0  0.99523  0.56473  0.77330  1.0000
  H   H780      1.0  0.02502  0.45851  0.71226  1.0000
  C   C517      1.0  0.01133  0.54512  0.73765  1.0000
  H   H781      1.0  0.01724  0.56678  0.67159  1.0000
  H   H782      1.0  0.01751  0.41574  0.82131  1.0000
  H   H783      1.0  0.01013  0.48183  0.87374  1.0000
  H   H784      1.0  0.03983  0.51574  0.79105  1.0000
  C   C518      1.0  0.99754  0.44824  0.79601  1.0000
  H   H785      1.0  0.12359  0.56055  0.89261  1.0000
  C   C519      1.0  0.01626  0.53535  0.84776  1.0000
  C   C520      1.0  0.01256  0.52671  0.86007  1.0000
  C   C521      1.0  0.01752  0.43411  0.67787  1.0000
  H   H786      1.0  0.19702  0.52782  0.97317  1.0000
  H   H787      1.0  0.04731  0.38095  0.68398  1.0000
  H   H788      1.0  0.02552  0.53865  0.84533  1.0000
  H   H789      1.0  0.08792  0.57185  0.90864  1.0000
  H   H790      1.0  0.01091  0.56212  0.68939  1.0000
  H   H791      1.0  0.03460  0.53203  0.66769  1.0000
  H   H792      1.0  0.00865  0.41394  0.71789  1.0000
  N   N47       1.0  0.11161  0.44912  0.85134  1.0000
  C   C522      1.0  0.10115  0.44559  0.84723  1.0000
  C   C523      1.0  0.11582  0.46090  0.84148  1.0000
  C   C524      1.0  0.12321  0.43763  0.85188  1.0000
  C   C525      1.0  0.10622  0.45239  0.86476  1.0000
  H   H793      1.0  0.09726  0.43716  0.85475  1.0000
  H   H794      1.0  0.10496  0.44252  0.83741  1.0000
  H   H795      1.0  0.09252  0.45422  0.84619  1.0000
  H   H796      1.0  0.11984  0.45880  0.83123  1.0000
  H   H797      1.0  0.10725  0.46972  0.84080  1.0000
  H   H798      1.0  0.12370  0.46384  0.84428  1.0000
  H   H799      1.0  0.13122  0.43982  0.85521  1.0000
  H   H800      1.0  0.12761  0.43495  0.84192  1.0000
  H   H801      1.0  0.12032  0.42853  0.85906  1.0000
  H   H802      1.0  0.09723  0.46082  0.86478  1.0000
  H   H803      1.0  0.11373  0.45536  0.86813  1.0000
  H   H804      1.0  0.10321  0.44362  0.87250  1.0000
  N   N48       1.0  0.03141  0.47816  0.87157  1.0000
  C   C526      1.0  0.03390  0.46636  0.86574  1.0000
  H   H805      1.0  0.02867  0.51371  0.82799  1.0000
  C   C527      1.0  0.04223  0.48551  0.86500  1.0000
  C   C528      1.0  0.03101  0.47369  0.88613  1.0000
  H   H806      1.0  0.02613  0.46035  0.87069  1.0000
  H   H807      1.0  0.04375  0.45949  0.86684  1.0000
  H   H808      1.0  0.03388  0.46945  0.85483  1.0000
  H   H809      1.0  0.23157  0.47477  0.91490  1.0000
  N   N49       1.0  0.19770  0.40289  0.97651  1.0000
  H   H810      1.0  0.21726  0.40657  0.96630  1.0000
  H   H811      1.0  0.04042  0.49474  0.86884  1.0000
  H   H812      1.0  0.04313  0.48866  0.85393  1.0000
  H   H813      1.0  0.05208  0.47926  0.86682  1.0000
  H   H814      1.0  0.02934  0.48240  0.89076  1.0000
  H   H815      1.0  0.04057  0.46676  0.88809  1.0000
  H   H816      1.0  0.02282  0.46828  0.89146  1.0000
  Fe  Fe108     1.0  0.23357  0.42934  0.94477  1.0000
  H   H817      1.0  0.18430  0.45269  0.95886  1.0000
  C   C529      1.0  0.06939  0.40644  0.67742  1.0000
  S   S223      1.0  0.05573  0.52557  0.70972  1.0000
  H   H818      1.0  0.10293  0.52295  0.84724  1.0000
  H   H819      1.0  0.06049  0.52867  0.68110  1.0000
  C   C530      1.0  0.12091  0.55664  0.90366  1.0000
  H   H820      1.0  0.00451  0.55730  0.77536  1.0000
  N   N50       1.0  0.02141  0.54552  0.67997  1.0000
  H   H821      1.0  0.04950  0.49960  0.71689  1.0000
  C   C531      1.0  0.06692  0.47293  0.77767  1.0000
  C   C532      1.0  0.05701  0.45363  0.78752  1.0000
  H   H822      1.0  0.07159  0.45854  0.80169  1.0000
  H   H823      1.0  0.06111  0.47795  0.78611  1.0000
  H   H824      1.0  0.07628  0.47674  0.77344  1.0000
  H   H825      1.0  0.05875  0.44259  0.79149  1.0000
  H   H826      1.0  0.05131  0.45599  0.77959  1.0000
  N   N51       1.0  0.13504  0.45959  0.94169  1.0000
  C   C533      1.0  0.12475  0.46643  0.93370  1.0000
  C   C534      1.0  0.14847  0.45945  0.93277  1.0000
  C   C535      1.0  0.13356  0.44565  0.94795  1.0000
  C   C536      1.0  0.13336  0.46673  0.95237  1.0000
  H   H827      1.0  0.12577  0.46132  0.92554  1.0000
  H   H828      1.0  0.12553  0.47697  0.92878  1.0000
  H   H829      1.0  0.11448  0.46669  0.94006  1.0000
  H   H830      1.0  0.15005  0.45406  0.92464  1.0000
  H   H831      1.0  0.14989  0.46983  0.92777  1.0000
  H   H832      1.0  0.15651  0.45433  0.93843  1.0000
  H   H833      1.0  0.14078  0.44028  0.95452  1.0000
  H   H834      1.0  0.13527  0.43972  0.94027  1.0000
  H   H835      1.0  0.12336  0.44535  0.95431  1.0000
  H   H836      1.0  0.14083  0.46170  0.95870  1.0000
  H   H837      1.0  0.12327  0.46715  0.95917  1.0000
  H   H838      1.0  0.13455  0.47726  0.94814  1.0000
  C   C537      1.0  0.99494  0.41493  0.70608  1.0000
  N   N52       1.0  0.02411  0.51765  0.80860  1.0000
  H   H839      1.0  0.02571  0.46054  0.78605  1.0000
  C   C538      1.0  0.03675  0.42519  0.66204  1.0000
  C   C539      1.0  0.11053  0.57881  0.90767  1.0000
  H   H840      1.0  0.18874  0.47660  0.97542  1.0000
  S   S224      1.0  0.22511  0.42777  0.92828  1.0000
  H   H841      1.0  0.11371  0.55880  0.92939  1.0000
  H   H842      1.0  0.00322  0.39718  0.76841  1.0000
  S   S225      1.0  0.21582  0.47542  0.95385  1.0000
  C   C540      1.0  0.18131  0.42752  0.93227  1.0000
  H   H843      1.0  0.09953  0.56926  0.89314  1.0000
  C   C541      1.0  0.00037  0.52273  0.86315  1.0000
  S   S226      1.0  0.21378  0.43792  0.95695  1.0000
  C   C542      1.0  0.10882  0.49629  0.85080  1.0000
  H   H844      1.0  0.10391  0.54891  0.92680  1.0000
  H   H845      1.0  0.99533  0.41705  0.74325  1.0000
  H   H846      1.0  0.10707  0.51022  0.87651  1.0000
  H   H847      1.0  0.20978  0.53144  0.93628  1.0000
  H   H848      1.0  0.02277  0.49404  0.71234  1.0000
  H   H849      1.0  0.20082  0.42548  0.91902  1.0000
  S   S227      1.0  0.18556  0.43298  0.94437  1.0000
  H   H850      1.0  0.01607  0.49585  0.87421  1.0000
  S   S228      1.0  0.23591  0.51550  0.92476  1.0000
  N   N53       1.0  0.07149  0.44968  0.67287  1.0000
  C   C543      1.0  0.02415  0.53638  0.69271  1.0000
  C   C544      1.0  0.22915  0.47030  0.96192  1.0000
  H   H851      1.0  0.99661  0.48433  0.72520  1.0000
  H   H852      1.0  0.12011  0.51787  0.83939  1.0000
  H   H853      1.0  0.00716  0.43357  0.68348  1.0000
  H   H854      1.0  0.01868  0.49130  0.85852  1.0000
  H   H855      1.0  0.12745  0.48709  0.86524  1.0000
  H   H856      1.0  0.12958  0.55612  0.90780  1.0000
  H   H857      1.0  0.11560  0.52429  0.85443  1.0000
  C   C545      1.0  0.20424  0.47147  0.89193  1.0000
  H   H858      1.0  0.21189  0.47424  0.88270  1.0000
  H   H859      1.0  0.19614  0.48060  0.89312  1.0000
  H   H860      1.0  0.20917  0.46876  0.90053  1.0000
  H   H861      1.0  0.18159  0.46554  0.90658  1.0000
  H   H862      1.0  0.18387  0.47336  0.88099  1.0000
  H   H863      1.0  0.07949  0.44289  0.79663  1.0000
  C   C546      1.0  0.01413  0.51537  0.80274  1.0000
  H   H864      1.0  0.18024  0.53282  0.94513  1.0000
  C   C547      1.0  0.05017  0.49471  0.69830  1.0000
  C   C548      1.0  0.07731  0.45401  0.79291  1.0000
  H   H865      1.0  0.06102  0.47638  0.76975  1.0000
  C   C549      1.0  0.19230  0.46448  0.87987  1.0000
  H   H866      1.0  0.02533  0.53700  0.79555  1.0000
  H   H867      1.0  0.11973  0.54621  0.90535  1.0000
  N   N54       1.0  0.06972  0.45814  0.78221  1.0000
  C   C550      1.0  0.23761  0.47892  0.95986  1.0000
  H   H868      1.0  0.19795  0.54389  0.94440  1.0000
  C   C551      1.0  0.18990  0.52709  0.96764  1.0000
  H   H869      1.0  0.08698  0.45725  0.78928  1.0000
  C   C552      1.0  0.01547  0.45953  0.79179  1.0000
  H   H870      1.0  0.18813  0.45631  0.87908  1.0000
  C   C553      1.0  0.18920  0.45664  0.90394  1.0000
  H   H871      1.0  0.01564  0.45656  0.80267  1.0000
  C   C554      1.0  0.02049  0.43650  0.78972  1.0000
  N   N55       1.0  0.01755  0.47500  0.72226  1.0000
  H   H872      1.0  0.07213  0.45494  0.76248  1.0000
  C   C555      1.0  0.01943  0.55957  0.68097  1.0000
  C   C556      1.0  0.07758  0.45192  0.77076  1.0000
  H   H873      1.0  0.07965  0.44074  0.77386  1.0000
  H   H874      1.0  0.08733  0.45498  0.76653  1.0000
  H   H875      1.0  0.21520  0.44497  0.89800  1.0000
  H   H876      1.0  0.02844  0.56134  0.68291  1.0000
  H   H877      1.0  0.10145  0.58546  0.91246  1.0000
  H   H878      1.0  0.10518  0.40386  0.91086  1.0000
  H   H879      1.0  0.09061  0.39995  0.90913  1.0000
  N   N56       1.0  0.02325  0.42366  0.66988  1.0000
  C   C557      1.0  0.21003  0.44848  0.88947  1.0000
  C   C558      1.0  0.02301  0.53223  0.80645  1.0000
  H   H880      1.0  0.02039  0.45512  0.76693  1.0000
  H   H881      1.0  0.03071  0.43710  0.78355  1.0000
  H   H882      1.0  0.03010  0.53434  0.81116  1.0000
  C   C559      1.0  0.99889  0.40794  0.76875  1.0000
  H   H883      1.0  0.09356  0.51012  0.86967  1.0000
  H   H884      1.0  0.99718  0.40277  0.65394  1.0000
  H   H885      1.0  0.05762  0.51467  0.66728  1.0000
  N   N57       1.0  0.01096  0.44961  0.78774  1.0000
  H   H886      1.0  0.20639  0.43989  0.88883  1.0000
  C   C560      1.0  0.00051  0.41560  0.81410  1.0000
  N   N58       1.0  0.10855  0.56506  0.91006  1.0000
  C   C561      1.0  0.12535  0.41732  0.97427  1.0000
  H   H887      1.0  0.10865  0.48593  0.85692  1.0000
  H   H888      1.0  0.07976  0.38496  0.94542  1.0000
  H   H889      1.0  0.18377  0.44946  0.90318  1.0000
  H   H890      1.0  0.07627  0.43068  0.68650  1.0000
  H   H891      1.0  0.07854  0.44001  0.65606  1.0000
  H   H892      1.0  0.01712  0.44437  0.67136  1.0000
  C   C562      1.0  0.99373  0.55069  0.72548  1.0000
  H   H893      1.0  0.06264  0.45159  0.65637  1.0000
  C   C563      1.0  0.00244  0.54114  0.74968  1.0000
  C   C564      1.0  0.05871  0.45392  0.68213  1.0000
  C   C565      1.0  0.18684  0.39873  0.97371  1.0000
  H   H894      1.0  0.19655  0.46187  0.96867  1.0000
  H   H895      1.0  0.13416  0.49751  0.84977  1.0000
  C   C566      1.0  0.05586  0.51134  0.67809  1.0000
  C   C567      1.0  0.20621  0.51021  0.95692  1.0000
  C   C568      1.0  0.03766  0.51143  0.80203  1.0000
  H   H896      1.0  0.18449  0.47708  0.95022  1.0000
  C   C569      1.0  0.18740  0.46667  0.97515  1.0000
  H   H897      1.0  0.07694  0.41285  0.92656  1.0000
  C   C570      1.0  0.08413  0.38596  0.93445  1.0000
  C   C571      1.0  0.10403  0.39083  0.93674  1.0000
  H   H898      1.0  0.11003  0.38073  0.93529  1.0000
  H   H899      1.0  0.00869  0.47156  0.74338  1.0000
  H   H900      1.0  0.18276  0.40605  0.96523  1.0000
  H   H901      1.0  0.00130  0.47000  0.71778  1.0000
  C   C572      1.0  0.02172  0.51156  0.82315  1.0000
  H   H902      1.0  0.21776  0.45088  0.88019  1.0000
  H   H903      1.0  0.01277  0.53734  0.81086  1.0000
  H   H904      1.0  0.16117  0.42772  0.94361  1.0000
  C   C573      1.0  0.17505  0.47877  0.95796  1.0000
  H   H905      1.0  0.19209  0.51964  0.93790  1.0000
  C   C574      1.0  0.23202  0.45718  0.96954  1.0000
  S   S229      1.0  0.23833  0.44934  0.93455  1.0000
  N   N59       1.0  0.19694  0.52346  0.95460  1.0000
  H   H906      1.0  0.02578  0.46277  0.73912  1.0000
  C   C575      1.0  0.05346  0.38809  0.68213  1.0000
  H   H907      1.0  0.16645  0.45564  0.96394  1.0000
  H   H908      1.0  0.04537  0.51313  0.80617  1.0000
  H   H909      1.0  0.01269  0.45714  0.73614  1.0000
  C   C576      1.0  0.09738  0.56539  0.90423  1.0000
  C   C577      1.0  0.01611  0.46622  0.73586  1.0000
  H   H910      1.0  0.00691  0.55027  0.66787  1.0000
  Fe  Fe109     1.0  0.22813  0.44878  0.91911  1.0000
  H   H911      1.0  0.99723  0.57494  0.77104  1.0000
  H   H912      1.0  0.11546  0.49561  0.84076  1.0000
  H   H913      1.0  0.21233  0.53426  0.95114  1.0000
  C   C578      1.0  0.00694  0.55006  0.72560  1.0000
  H   H914      1.0  0.06014  0.45890  0.68941  1.0000
  H   H915      1.0  0.03897  0.50041  0.80341  1.0000
  H   H916      1.0  0.09616  0.56539  0.92987  1.0000
  Fe  Fe110     1.0  0.20563  0.43816  0.93956  1.0000
  C   C579      1.0  0.16333  0.47128  0.98077  1.0000
  H   H917      1.0  0.02997  0.40897  0.68661  1.0000
  H   H918      1.0  0.01733  0.42871  0.78691  1.0000
  H   H919      1.0  0.03114  0.48460  0.72570  1.0000
  S   S230      1.0  0.00338  0.44063  0.72263  1.0000
  H   H920      1.0  0.19350  0.41974  0.90144  1.0000
  C   C580      1.0  0.11299  0.51789  0.84929  1.0000
  C   C581      1.0  0.09860  0.39655  0.91495  1.0000
  C   C582      1.0  0.99895  0.42377  0.83380  1.0000
  H   H921      1.0  0.02649  0.52566  0.69212  1.0000
  C   C583      1.0  0.20889  0.40340  0.96457  1.0000
  C   C584      1.0  0.02413  0.41023  0.67897  1.0000
  H   H922      1.0  0.00431  0.42405  0.66627  1.0000
  C   C585      1.0  0.05496  0.51509  0.69994  1.0000
  C   C586      1.0  0.19056  0.42487  0.92054  1.0000
  H   H923      1.0  0.10337  0.49461  0.87719  1.0000
  H   H924      1.0  0.18412  0.51953  0.97426  1.0000
  C   C587      1.0  0.18641  0.42164  0.91059  1.0000
  H   H925      1.0  0.13013  0.50298  0.86528  1.0000
  N   N60       1.0  0.09302  0.39556  0.92951  1.0000
  C   C588      1.0  0.16817  0.42627  0.93430  1.0000
  H   H926      1.0  0.11100  0.39777  0.93317  1.0000
  H   H927      1.0  0.21378  0.51029  0.96224  1.0000
  N   N61       1.0  0.11314  0.50416  0.85761  1.0000
  H   H928      1.0  0.06396  0.43546  0.66773  1.0000
  H   H929      1.0  0.16663  0.47942  0.95342  1.0000
  C   C589      1.0  0.00465  0.47891  0.71812  1.0000
  H   H930      1.0  0.99042  0.54145  0.78968  1.0000
  C   C590      1.0  0.02152  0.48718  0.72245  1.0000
  H   H931      1.0  0.09850  0.50096  0.84926  1.0000
  C   C591      1.0  0.08532  0.40892  0.93189  1.0000
  H   H932      1.0  0.10472  0.38675  0.91271  1.0000
  C   C592      1.0  0.20457  0.53370  0.94629  1.0000
  H   H933      1.0  0.17649  0.44673  0.97602  1.0000
  H   H934      1.0  0.99008  0.45794  0.79469  1.0000
  H   H935      1.0  0.07074  0.46942  0.66008  1.0000
  C   C593      1.0  0.06904  0.44395  0.66283  1.0000
  S   S231      1.0  0.23736  0.45628  0.89760  1.0000
  H   H936      1.0  0.08715  0.45865  0.65882  1.0000
  H   H937      1.0  0.01392  0.49297  0.72952  1.0000
  C   C594      1.0  0.19257  0.41632  0.97969  1.0000
  H   H938      1.0  0.18875  0.42385  0.97125  1.0000
  H   H939      1.0  0.03768  0.46436  0.71563  1.0000
  H   H940      1.0  0.02936  0.47407  0.70232  1.0000
  H   H941      1.0  0.09033  0.43567  0.67400  1.0000
  H   H942      1.0  0.21178  0.50716  0.94729  1.0000
  C   C595      1.0  0.17565  0.45520  0.96714  1.0000
  C   C596      1.0  0.08071  0.43946  0.68065  1.0000
  H   H943      1.0  0.00037  0.54599  0.68563  1.0000
  H   H944      1.0  0.21301  0.39343  0.96188  1.0000
  H   H945      1.0  0.20083  0.50219  0.96307  1.0000
  C   C597      1.0  0.99588  0.53579  0.84148  1.0000
  C   C598      1.0  0.18708  0.52284  0.94755  1.0000
  C   C599      1.0  0.99212  0.52711  0.85378  1.0000
  H   H946      1.0  0.20561  0.41063  0.95564  1.0000
  H   H947      1.0  0.05715  0.39149  0.66050  1.0000
  H   H948      1.0  0.00693  0.44690  0.77010  1.0000
  H   H949      1.0  0.03652  0.43516  0.65498  1.0000
  Fe  Fe111     1.0  0.23369  0.53767  0.91639  1.0000
  H   H950      1.0  0.99550  0.55738  0.79969  1.0000
  H   H951      1.0  0.99801  0.40434  0.70601  1.0000
  H   H952      1.0  0.15398  0.47327  0.97716  1.0000
  C   C600      1.0  0.01037  0.45417  0.77340  1.0000
  H   H953      1.0  0.99387  0.44068  0.79340  1.0000
  H   H954      1.0  0.23555  0.48899  0.95379  1.0000
  H   H955      1.0  0.99765  0.40880  0.77927  1.0000
  H   H956      1.0  0.99139  0.49956  0.66067  1.0000
  H   H957      1.0  0.01378  0.43508  0.65354  1.0000
  Fe  Fe112     1.0  0.04949  0.49870  0.65328  1.0000
  H   H958      1.0  0.99230  0.40043  0.74985  1.0000
  H   H959      1.0  0.99346  0.56324  0.76402  1.0000
  C   C601      1.0  0.14414  0.50278  0.98385  1.0000
  H   H960      1.0  0.16334  0.48033  0.98403  1.0000
  H   H961      1.0  0.01346  0.78484  0.54549  1.0000
  C   C602      1.0  0.10284  0.97811  0.41612  1.0000
  H   H962      1.0  0.00418  0.66217  0.41239  1.0000
  H   H963      1.0  0.16708  0.94058  0.38421  1.0000
  C   C603      1.0  0.07281  0.65886  0.44833  1.0000
  H   H964      1.0  0.12004  0.98317  0.51038  1.0000
  H   H965      1.0  0.07712  0.72195  0.41973  1.0000
  H   H966      1.0  0.06905  0.86383  0.46836  1.0000
  Fe  Fe113     1.0  0.08298  0.83365  0.53618  1.0000
  S   S232      1.0  0.06422  0.84713  0.53035  1.0000
  S   S233      1.0  0.09935  0.83961  0.54141  1.0000
  Fe  Fe114     1.0  0.07722  0.80852  0.53211  1.0000
  S   S234      1.0  0.05814  0.81986  0.52590  1.0000
  S   S235      1.0  0.08494  0.78669  0.53130  1.0000
  Fe  Fe115     1.0  0.06946  0.83576  0.51408  1.0000
  S   S236      1.0  0.06847  0.84535  0.49271  1.0000
  Fe  Fe116     1.0  0.05451  0.83004  0.54279  1.0000
  S   S237      1.0  0.03429  0.83234  0.55685  1.0000
  S   S238      1.0  0.08898  0.82361  0.51877  1.0000
  S   S239      1.0  0.07285  0.81737  0.55014  1.0000
  Fe  Fe117     1.0  0.00983  0.84561  0.44066  1.0000
  S   S240      1.0  0.02658  0.83974  0.42358  1.0000
  C   C604      1.0  0.14597  0.98007  0.47554  1.0000
  Fe  Fe118     1.0  0.02490  0.82799  0.46166  1.0000
  S   S241      1.0  0.04267  0.82007  0.44666  1.0000
  S   S242      1.0  0.02332  0.82371  0.48381  1.0000
  Fe  Fe119     1.0  0.04035  0.84175  0.43536  1.0000
  S   S243      1.0  0.05965  0.84947  0.42840  1.0000
  Fe  Fe120     1.0  0.02752  0.81872  0.43639  1.0000
  S   S244      1.0  0.02721  0.80162  0.42773  1.0000
  S   S245      1.0  0.02344  0.84954  0.45115  1.0000
  S   S246      1.0  0.00994  0.82464  0.45264  1.0000
  Fe  Fe121     1.0  0.08546  0.91132  0.43362  1.0000
  S   S247      1.0  0.08181  0.91690  0.45344  1.0000
  S   S248      1.0  0.06844  0.90660  0.42798  1.0000
  Fe  Fe122     1.0  0.11375  0.91614  0.42544  1.0000
  S   S249      1.0  0.11255  0.92158  0.44465  1.0000
  S   S250      1.0  0.13112  0.91708  0.40765  1.0000
  Fe  Fe123     1.0  0.10232  0.90438  0.45423  1.0000
  S   S251      1.0  0.10475  0.89061  0.47402  1.0000
  Fe  Fe124     1.0  0.09223  0.93369  0.44220  1.0000
  S   S252      1.0  0.08548  0.95335  0.44887  1.0000
  S   S253      1.0  0.10542  0.89756  0.43525  1.0000
  S   S254      1.0  0.09397  0.92950  0.42218  1.0000
  Fe  Fe125     1.0  0.12300  0.90614  0.53071  1.0000
  S   S255      1.0  0.12500  0.91862  0.50977  1.0000
  S   S256      1.0  0.10349  0.89905  0.53761  1.0000
  Fe  Fe126     1.0  0.14935  0.91047  0.53269  1.0000
  S   S257      1.0  0.15339  0.92266  0.51163  1.0000
  S   S258      1.0  0.16424  0.90976  0.54434  1.0000
  Fe  Fe127     1.0  0.13190  0.93287  0.51679  1.0000
  S   S259      1.0  0.12534  0.95528  0.50974  1.0000
  Fe  Fe128     1.0  0.14618  0.90724  0.50666  1.0000
  S   S260      1.0  0.15458  0.90029  0.48738  1.0000
  S   S261      1.0  0.12802  0.92162  0.53823  1.0000
  S   S262      1.0  0.14409  0.89382  0.52723  1.0000
  C   C605      1.0  0.08769  0.68867  0.54698  1.0000
  H   H967      1.0  0.03726  0.67335  0.48559  1.0000
  C   C606      1.0  0.14592  0.97845  0.52525  1.0000
  C   C607      1.0  0.13496  0.98514  0.51941  1.0000
  S   S263      1.0  0.22402  0.88801  0.51647  1.0000
  C   C608      1.0  0.01740  0.67931  0.50641  1.0000
  H   H968      1.0  0.04515  0.67262  0.58679  1.0000
  S   S264      1.0  0.04011  0.69481  0.56534  1.0000
  H   H969      1.0  0.01082  0.85326  0.47979  1.0000
  C   C609      1.0  0.99195  0.74223  0.49482  1.0000
  H   H970      1.0  0.07128  0.73408  0.39767  1.0000
  H   H971      1.0  0.09555  0.68790  0.55231  1.0000
  H   H972      1.0  0.01374  0.66319  0.58034  1.0000
  H   H973      1.0  0.01136  0.67261  0.50578  1.0000
  H   H974      1.0  0.04977  0.67636  0.50704  1.0000
  H   H975      1.0  0.03159  0.65833  0.49526  1.0000
  C   C610      1.0  0.05465  0.66176  0.42080  1.0000
  H   H976      1.0  0.07650  0.88740  0.47308  1.0000
  H   H977      1.0  0.20346  0.94339  0.53578  1.0000
  Fe  Fe129     1.0  0.04476  0.73743  0.52953  1.0000
  S   S265      1.0  0.05068  0.73186  0.50939  1.0000
  S   S266      1.0  0.03978  0.75900  0.53154  1.0000
  Fe  Fe130     1.0  0.04353  0.70875  0.54500  1.0000
  S   S267      1.0  0.04939  0.70099  0.52630  1.0000
  Fe  Fe131     1.0  0.06431  0.71393  0.51933  1.0000
  S   S268      1.0  0.08430  0.70278  0.50998  1.0000
  Fe  Fe132     1.0  0.03526  0.71934  0.51832  1.0000
  S   S269      1.0  0.02145  0.71601  0.50772  1.0000
  S   S270      1.0  0.05970  0.72038  0.53880  1.0000
  S   S271      1.0  0.02807  0.72638  0.53766  1.0000
  H   H978      1.0  0.04500  0.74568  0.41545  1.0000
  Fe  Fe133     1.0  0.02316  0.70333  0.45828  1.0000
  S   S272      1.0  0.02922  0.71996  0.44106  1.0000
  S   S273      1.0  0.00214  0.70043  0.46489  1.0000
  Fe  Fe134     1.0  0.05100  0.69223  0.46361  1.0000
  S   S274      1.0  0.05941  0.70772  0.44695  1.0000
  S   S275      1.0  0.06506  0.67618  0.47487  1.0000
  Fe  Fe135     1.0  0.04100  0.72243  0.45438  1.0000
  S   S276      1.0  0.04395  0.74117  0.45825  1.0000
  Fe  Fe136     1.0  0.04700  0.70370  0.43534  1.0000
  S   S277      1.0  0.05739  0.70057  0.41465  1.0000
  S   S278      1.0  0.03343  0.70704  0.47216  1.0000
  S   S279      1.0  0.03997  0.68697  0.45150  1.0000
  H   H979      1.0  0.10431  0.66430  0.54978  1.0000
  C   C611      1.0  0.02015  0.80851  0.53223  1.0000
  C   C612      1.0  0.00555  0.70075  0.43820  1.0000
  H   H980      1.0  0.99702  0.80545  0.51753  1.0000
  H   H981      1.0  0.19038  0.94575  0.52723  1.0000
  H   H982      1.0  0.21007  0.96727  0.48602  1.0000
  H   H983      1.0  0.01240  0.68338  0.51557  1.0000
  H   H984      1.0  0.01615  0.69891  0.43758  1.0000
  C   C613      1.0  0.00157  0.85679  0.48703  1.0000
  S   S280      1.0  0.22648  0.98434  0.46726  1.0000
  S   S281      1.0  0.17823  0.94475  0.40346  1.0000
  H   H985      1.0  0.19541  0.97227  0.50794  1.0000
  C   C614      1.0  0.05150  0.67549  0.42102  1.0000
  C   C615      1.0  0.06086  0.68347  0.41418  1.0000
  H   H986      1.0  0.07000  0.67809  0.56770  1.0000
  C   C616      1.0  0.04522  0.66869  0.57840  1.0000
  S   S282      1.0  0.23609  0.92076  0.49483  1.0000
  H   H987      1.0  0.04172  0.67998  0.42621  1.0000
  H   H988      1.0  0.04770  0.66015  0.49531  1.0000
  H   H989      1.0  0.06271  0.75144  0.39532  1.0000
  C   C617      1.0  0.00894  0.70910  0.52001  1.0000
  C   C618      1.0  0.01030  0.70411  0.53335  1.0000
  H   H990      1.0  0.21300  0.96926  0.51997  1.0000
  H   H991      1.0  0.19875  0.97657  0.44164  1.0000
  H   H992      1.0  0.99996  0.84806  0.49555  1.0000
  C   C619      1.0  0.99740  0.70874  0.51653  1.0000
  H   H993      1.0  0.01931  0.70399  0.53610  1.0000
  H   H994      1.0  0.13709  0.97679  0.40284  1.0000
  S   S283      1.0  0.18225  0.95933  0.46079  1.0000
  H   H995      1.0  0.99633  0.71218  0.50627  1.0000
  C   C620      1.0  0.08040  0.69565  0.49896  1.0000
  C   C621      1.0  0.08583  0.68214  0.49844  1.0000
  C   C622      1.0  0.08125  0.67613  0.49089  1.0000
  C   C623      1.0  0.07147  0.68372  0.48367  1.0000
  C   C624      1.0  0.06640  0.69730  0.48389  1.0000
  C   C625      1.0  0.07073  0.70319  0.49165  1.0000
  H   H996      1.0  0.09322  0.67624  0.50420  1.0000
  H   H997      1.0  0.08518  0.66561  0.49075  1.0000
  H   H998      1.0  0.05897  0.70329  0.47826  1.0000
  H   H999      1.0  0.06656  0.71363  0.49194  1.0000
  C   C626      1.0  0.07015  0.74372  0.40055  1.0000
  C   C627      1.0  0.05297  0.73811  0.42002  1.0000
  N   N62       1.0  0.06587  0.74228  0.41528  1.0000
  H   H1000     1.0  0.01467  0.74547  0.46508  1.0000
  H   H1001     1.0  0.16148  0.93011  0.42721  1.0000
  H   H1002     1.0  0.10223  0.91392  0.36945  1.0000
  H   H1003     1.0  0.07376  0.75891  0.41503  1.0000
  C   C628      1.0  0.99995  0.72741  0.47928  1.0000
  H   H1004     1.0  0.07595  0.66104  0.56583  1.0000
  Fe  Fe137     1.0  0.19190  0.94969  0.44318  1.0000
  H   H1005     1.0  0.23385  0.98051  0.38694  1.0000
  H   H1006     1.0  0.00344  0.86444  0.49118  1.0000
  N   N63       1.0  0.19395  0.96403  0.52911  1.0000
  N   N64       1.0  0.99749  0.74142  0.48058  1.0000
  H   H1007     1.0  0.02709  0.66590  0.52845  1.0000
  H   H1008     1.0  0.06228  0.89116  0.48635  1.0000
  C   C629      1.0  0.13295  0.96402  0.51623  1.0000
  C   C630      1.0  0.14369  0.95728  0.52239  1.0000
  C   C631      1.0  0.15015  0.96447  0.52687  1.0000
  C   C632      1.0  0.01161  0.66353  0.57056  1.0000
  C   C633      1.0  0.16118  0.98364  0.48653  1.0000
  H   H1009     1.0  0.02254  0.80493  0.54238  1.0000
  H   H1010     1.0  0.14703  0.94650  0.52374  1.0000
  H   H1011     1.0  0.15843  0.95912  0.53160  1.0000
  C   C634      1.0  0.03720  0.66572  0.49521  1.0000
  H   H1012     1.0  0.02925  0.80494  0.52485  1.0000
  C   C635      1.0  0.18079  0.90405  0.53622  1.0000
  C   C636      1.0  0.18397  0.89370  0.52940  1.0000
  C   C637      1.0  0.19731  0.88877  0.52346  1.0000
  C   C638      1.0  0.20744  0.89449  0.52392  1.0000
  C   C639      1.0  0.20424  0.90514  0.53039  1.0000
  C   C640      1.0  0.19093  0.90976  0.53673  1.0000
  H   H1013     1.0  0.17617  0.88923  0.52904  1.0000
  H   H1014     1.0  0.19977  0.88050  0.51851  1.0000
  H   H1015     1.0  0.21204  0.90956  0.53078  1.0000
  H   H1016     1.0  0.18846  0.91775  0.54205  1.0000
  C   C641      1.0  0.09225  0.96691  0.43816  1.0000
  C   C642      1.0  0.09841  0.96676  0.42471  1.0000
  H   H1017     1.0  0.99916  0.73625  0.50121  1.0000
  C   C643      1.0  0.00080  0.84676  0.53368  1.0000
  H   H1018     1.0  0.99397  0.67689  0.41829  1.0000
  H   H1019     1.0  0.06486  0.68459  0.54518  1.0000
  H   H1020     1.0  0.09931  0.95810  0.42081  1.0000
  C   C644      1.0  0.23145  0.90378  0.45160  1.0000
  S   S284      1.0  0.18635  0.93207  0.44025  1.0000
  S   S285      1.0  0.21349  0.94007  0.44171  1.0000
  C   C645      1.0  0.06554  0.87407  0.46254  1.0000
  C   C646      1.0  0.99669  0.80906  0.54151  1.0000
  H   H1021     1.0  0.14243  0.92003  0.42883  1.0000
  C   C647      1.0  0.11910  0.89223  0.47772  1.0000
  C   C648      1.0  0.11965  0.89059  0.49110  1.0000
  C   C649      1.0  0.13088  0.89243  0.49409  1.0000
  C   C650      1.0  0.14154  0.89600  0.48371  1.0000
  C   C651      1.0  0.14120  0.89714  0.47037  1.0000
  C   C652      1.0  0.12996  0.89529  0.46737  1.0000
  H   H1022     1.0  0.11122  0.88840  0.49915  1.0000
  H   H1023     1.0  0.13115  0.89136  0.50445  1.0000
  H   H1024     1.0  0.14947  0.89983  0.46233  1.0000
  H   H1025     1.0  0.12972  0.89626  0.45702  1.0000
  C   C653      1.0  0.06170  0.86525  0.42915  1.0000
  C   C654      1.0  0.07461  0.86682  0.42821  1.0000
  C   C655      1.0  0.07680  0.87930  0.42818  1.0000
  C   C656      1.0  0.06612  0.89046  0.42883  1.0000
  C   C657      1.0  0.05322  0.88891  0.42974  1.0000
  C   C658      1.0  0.05098  0.87634  0.43009  1.0000
  H   H1026     1.0  0.08296  0.85829  0.42745  1.0000
  H   H1027     1.0  0.08678  0.88028  0.42749  1.0000
  H   H1028     1.0  0.04490  0.89750  0.43009  1.0000
  H   H1029     1.0  0.04103  0.87533  0.43065  1.0000
  C   C659      1.0  0.03100  0.78495  0.43690  1.0000
  C   C660      1.0  0.03735  0.78170  0.44759  1.0000
  C   C661      1.0  0.04100  0.76823  0.45420  1.0000
  C   C662      1.0  0.03815  0.75794  0.45031  1.0000
  C   C663      1.0  0.03136  0.76121  0.43994  1.0000
  C   C664      1.0  0.02795  0.77468  0.43314  1.0000
  H   H1030     1.0  0.03973  0.78955  0.45054  1.0000
  H   H1031     1.0  0.04621  0.76574  0.46225  1.0000
  H   H1032     1.0  0.02886  0.75341  0.43705  1.0000
  H   H1033     1.0  0.02295  0.77718  0.42492  1.0000
  C   C665      1.0  0.10056  0.85636  0.53923  1.0000
  C   C666      1.0  0.08964  0.86715  0.53763  1.0000
  C   C667      1.0  0.09075  0.88023  0.53693  1.0000
  C   C668      1.0  0.10285  0.88268  0.53740  1.0000
  C   C669      1.0  0.11389  0.87195  0.53846  1.0000
  C   C670      1.0  0.11268  0.85882  0.53958  1.0000
  H   H1034     1.0  0.08028  0.86543  0.53723  1.0000
  H   H1035     1.0  0.08217  0.88850  0.53610  1.0000
  H   H1036     1.0  0.12322  0.87372  0.53894  1.0000
  H   H1037     1.0  0.12116  0.85053  0.54087  1.0000
  C   C671      1.0  0.07248  0.77814  0.53291  1.0000
  C   C672      1.0  0.07599  0.76560  0.52944  1.0000
  C   C673      1.0  0.06603  0.75923  0.52961  1.0000
  C   C674      1.0  0.05255  0.76545  0.53319  1.0000
  C   C675      1.0  0.04909  0.77770  0.53715  1.0000
  C   C676      1.0  0.05900  0.78400  0.53706  1.0000
  H   H1038     1.0  0.08643  0.76095  0.52636  1.0000
  H   H1039     1.0  0.06878  0.74973  0.52658  1.0000
  H   H1040     1.0  0.03871  0.78231  0.54034  1.0000
  H   H1041     1.0  0.05620  0.79335  0.54032  1.0000
  C   C677      1.0  0.05510  0.84102  0.48971  1.0000
  C   C678      1.0  0.04419  0.83856  0.50024  1.0000
  C   C679      1.0  0.03425  0.83347  0.49840  1.0000
  C   C680      1.0  0.03503  0.83121  0.48586  1.0000
  C   C681      1.0  0.04543  0.83462  0.47504  1.0000
  C   C682      1.0  0.05552  0.83944  0.47698  1.0000
  H   H1042     1.0  0.04346  0.84054  0.50984  1.0000
  H   H1043     1.0  0.02599  0.83132  0.50667  1.0000
  H   H1044     1.0  0.04603  0.83313  0.46524  1.0000
  H   H1045     1.0  0.06384  0.84146  0.46872  1.0000
  H   H1046     1.0  0.10713  0.97813  0.40560  1.0000
  H   H1047     1.0  0.06287  0.66494  0.45217  1.0000
  C   C683      1.0  0.04570  0.65832  0.55677  1.0000
  C   C684      1.0  0.02135  0.83793  0.54802  1.0000
  C   C685      1.0  0.02375  0.84496  0.53465  1.0000
  C   C686      1.0  0.01351  0.84942  0.52753  1.0000
  C   C687      1.0  0.07395  0.67711  0.54184  1.0000
  N   N65       1.0  0.08426  0.67555  0.54926  1.0000
  H   H1048     1.0  0.03345  0.84725  0.52993  1.0000
  H   H1049     1.0  0.01546  0.85497  0.51722  1.0000
  H   H1050     1.0  0.21590  0.98677  0.44418  1.0000
  Fe  Fe138     1.0  0.20842  0.92325  0.43678  1.0000
  H   H1051     1.0  0.09546  0.90004  0.41201  1.0000
  Fe  Fe139     1.0  0.23821  0.90173  0.51059  1.0000
  S   S286      1.0  0.23529  0.94879  0.51212  1.0000
  C   C688      1.0  0.00859  0.83538  0.55427  1.0000
  H   H1052     1.0  0.08143  0.90594  0.38223  1.0000
  C   C689      1.0  0.03922  0.68152  0.50667  1.0000
  C   C690      1.0  0.99380  0.66692  0.41693  1.0000
  H   H1053     1.0  0.00799  0.70163  0.41713  1.0000
  H   H1054     1.0  0.13323  0.96346  0.41698  1.0000
  N   N66       1.0  0.19454  0.91539  0.48543  1.0000
  C   C691      1.0  0.18296  0.91897  0.47912  1.0000
  C   C692      1.0  0.19039  0.91967  0.49834  1.0000
  C   C693      1.0  0.20509  0.92223  0.47640  1.0000
  C   C694      1.0  0.19974  0.90069  0.48781  1.0000
  H   H1055     1.0  0.18569  0.91543  0.46957  1.0000
  H   H1056     1.0  0.17899  0.93003  0.47675  1.0000
  H   H1057     1.0  0.17467  0.91425  0.48583  1.0000
  H   H1058     1.0  0.19901  0.91745  0.50313  1.0000
  H   H1059     1.0  0.18593  0.93063  0.49698  1.0000
  H   H1060     1.0  0.18280  0.91432  0.50558  1.0000
  H   H1061     1.0  0.20822  0.91940  0.46651  1.0000
  H   H1062     1.0  0.21417  0.91944  0.48062  1.0000
  H   H1063     1.0  0.20156  0.93335  0.47450  1.0000
  H   H1064     1.0  0.20850  0.89758  0.49258  1.0000
  H   H1065     1.0  0.20297  0.89716  0.47822  1.0000
  H   H1066     1.0  0.19198  0.89523  0.49454  1.0000
  N   N67       1.0  0.11745  0.85045  0.49867  1.0000
  C   C695      1.0  0.12880  0.85669  0.49075  1.0000
  C   C696      1.0  0.10660  0.86049  0.50483  1.0000
  H   H1067     1.0  0.13738  0.84928  0.48637  1.0000
  H   H1068     1.0  0.13245  0.86111  0.49702  1.0000
  H   H1069     1.0  0.12591  0.86490  0.48224  1.0000
  H   H1070     1.0  0.10260  0.86893  0.49706  1.0000
  H   H1071     1.0  0.09812  0.85596  0.51136  1.0000
  H   H1072     1.0  0.11373  0.83397  0.51536  1.0000
  H   H1073     1.0  0.10915  0.85382  0.48147  1.0000
  H   H1074     1.0  0.16010  0.95489  0.42501  1.0000
  C   C697      1.0  0.15833  0.97989  0.40998  1.0000
  Fe  Fe140     1.0  0.19097  0.94178  0.41830  1.0000
  S   S287      1.0  0.21685  0.90274  0.44789  1.0000
  H   H1075     1.0  0.23682  0.97088  0.52166  1.0000
  C   C698      1.0  0.09628  0.66573  0.54442  1.0000
  H   H1076     1.0  0.16634  0.97242  0.40502  1.0000
  C   C699      1.0  0.23990  0.91163  0.44221  1.0000
  C   C700      1.0  0.20102  0.97475  0.45139  1.0000
  H   H1077     1.0  0.21187  0.98218  0.40329  1.0000
  C   C701      1.0  0.99646  0.70172  0.45047  1.0000
  C   C702      1.0  0.18376  0.96456  0.54179  1.0000
  H   H1078     1.0  0.07991  0.74678  0.39658  1.0000
  H   H1079     1.0  0.99168  0.74953  0.46162  1.0000
  H   H1080     1.0  0.15362  0.97171  0.47163  1.0000
  C   C703      1.0  0.16562  0.93604  0.40556  1.0000
  Fe  Fe141     1.0  0.21616  0.94917  0.41979  1.0000
  H   H1081     1.0  0.14908  0.96117  0.40533  1.0000
  H   H1082     1.0  0.18792  0.95849  0.55067  1.0000
  C   C704      1.0  0.03136  0.66153  0.51938  1.0000
  S   S288      1.0  0.23275  0.96050  0.41063  1.0000
  C   C705      1.0  0.06725  0.65595  0.41391  1.0000
  C   C706      1.0  0.23394  0.89793  0.46444  1.0000
  H   H1083     1.0  0.01703  0.68794  0.49757  1.0000
  C   C707      1.0  0.99575  0.66206  0.55902  1.0000
  H   H1084     1.0  0.17507  0.96067  0.54189  1.0000
  C   C708      1.0  0.19872  0.95000  0.52744  1.0000
  H   H1085     1.0  0.00282  0.78506  0.53499  1.0000
  H   H1086     1.0  0.14398  0.95773  0.43604  1.0000
  H   H1087     1.0  0.22755  0.89173  0.47168  1.0000
  N   N68       1.0  0.06888  0.84395  0.57624  1.0000
  C   C709      1.0  0.05785  0.84543  0.58815  1.0000
  C   C710      1.0  0.07611  0.82973  0.57763  1.0000
  C   C711      1.0  0.07823  0.85238  0.57507  1.0000
  C   C712      1.0  0.06333  0.84822  0.56407  1.0000
  H   H1088     1.0  0.05057  0.83927  0.58920  1.0000
  H   H1089     1.0  0.05224  0.85606  0.58743  1.0000
  H   H1090     1.0  0.06164  0.84217  0.59757  1.0000
  H   H1091     1.0  0.08449  0.82828  0.56875  1.0000
  H   H1092     1.0  0.08050  0.82614  0.58668  1.0000
  H   H1093     1.0  0.06939  0.82307  0.57847  1.0000
  H   H1094     1.0  0.07329  0.86324  0.57349  1.0000
  H   H1095     1.0  0.08687  0.85116  0.56640  1.0000
  H   H1096     1.0  0.08238  0.84967  0.58422  1.0000
  H   H1097     1.0  0.07142  0.84719  0.55495  1.0000
  H   H1098     1.0  0.05785  0.85892  0.56261  1.0000
  H   H1099     1.0  0.05623  0.84207  0.56456  1.0000
  N   N69       1.0  0.00856  0.80377  0.53178  1.0000
  H   H1100     1.0  0.99415  0.83699  0.42776  1.0000
  H   H1101     1.0  0.08654  0.66925  0.56975  1.0000
  H   H1102     1.0  0.07094  0.66747  0.54345  1.0000
  H   H1103     1.0  0.01283  0.67347  0.56392  1.0000
  H   H1104     1.0  0.99881  0.67258  0.39003  1.0000
  H   H1105     1.0  0.17935  0.96890  0.51712  1.0000
  H   H1106     1.0  0.03950  0.68960  0.49738  1.0000
  H   H1107     1.0  0.01815  0.81968  0.52995  1.0000
  C   C713      1.0  0.14416  0.92447  0.40740  1.0000
  C   C714      1.0  0.00094  0.70223  0.42662  1.0000
  H   H1108     1.0  0.20200  0.97953  0.53128  1.0000
  H   H1109     1.0  0.99350  0.82016  0.53846  1.0000
  C   C715      1.0  0.14138  0.96858  0.41062  1.0000
  S   S289      1.0  0.15485  0.98727  0.53013  1.0000
  H   H1110     1.0  0.14870  0.93006  0.38580  1.0000
  H   H1111     1.0  0.19228  0.95781  0.48370  1.0000
  H   H1112     1.0  0.15558  0.97912  0.49654  1.0000
  H   H1113     1.0  0.07452  0.87734  0.45553  1.0000
  H   H1114     1.0  0.09141  0.69273  0.53608  1.0000
  C   C716      1.0  0.15132  0.93014  0.39489  1.0000
  H   H1115     1.0  0.12802  0.97995  0.43147  1.0000
  H   H1116     1.0  0.01780  0.73941  0.48167  1.0000
  C   C717      1.0  0.21396  0.97783  0.46532  1.0000
  C   C718      1.0  0.07653  0.66396  0.40705  1.0000
  C   C719      1.0  0.99972  0.69971  0.54333  1.0000
  H   H1117     1.0  0.08039  0.66311  0.45014  1.0000
  H   H1118     1.0  0.06904  0.79905  0.47139  1.0000
  H   H1119     1.0  0.17970  0.97506  0.54321  1.0000
  C   C720      1.0  0.04260  0.67231  0.55569  1.0000
  S   S290      1.0  0.21284  0.93151  0.41450  1.0000
  H   H1120     1.0  0.99456  0.88168  0.47211  1.0000
  H   H1121     1.0  0.08627  0.97841  0.45349  1.0000
  H   H1122     1.0  0.01450  0.80464  0.51050  1.0000
  C   C721      1.0  0.21073  0.98051  0.45281  1.0000
  H   H1123     1.0  0.15642  0.96636  0.43571  1.0000
  C   C722      1.0  0.19422  0.96672  0.46257  1.0000
  N   N70       1.0  0.99812  0.66134  0.57228  1.0000
  C   C723      1.0  0.01024  0.74591  0.47580  1.0000
  C   C724      1.0  0.04260  0.67750  0.56646  1.0000
  C   C725      1.0  0.06431  0.75525  0.41876  1.0000
  H   H1124     1.0  0.00146  0.86995  0.46127  1.0000
  S   S291      1.0  0.19470  0.96037  0.42156  1.0000
  H   H1125     1.0  0.23416  0.87095  0.55863  1.0000
  C   C726      1.0  0.12852  0.97795  0.51487  1.0000
  N   N71       1.0  0.10525  0.93859  0.47974  1.0000
  C   C727      1.0  0.10819  0.94970  0.46819  1.0000
  C   C728      1.0  0.10264  0.94309  0.49239  1.0000
  C   C729      1.0  0.11680  0.92706  0.47924  1.0000
  C   C730      1.0  0.09336  0.93445  0.47915  1.0000
  H   H1126     1.0  0.11032  0.94660  0.45848  1.0000
  H   H1127     1.0  0.11701  0.95314  0.46848  1.0000
  H   H1128     1.0  0.09955  0.95847  0.46807  1.0000
  H   H1129     1.0  0.11150  0.94600  0.49338  1.0000
  H   H1130     1.0  0.09412  0.95193  0.49297  1.0000
  H   H1131     1.0  0.10014  0.93502  0.50135  1.0000
  H   H1132     1.0  0.11922  0.92358  0.46972  1.0000
  H   H1133     1.0  0.11472  0.91837  0.48758  1.0000
  H   H1134     1.0  0.12595  0.92956  0.48004  1.0000
  H   H1135     1.0  0.09079  0.92618  0.48785  1.0000
  H   H1136     1.0  0.09506  0.93076  0.46987  1.0000
  H   H1137     1.0  0.08448  0.94299  0.47913  1.0000
  H   H1138     1.0  0.05906  0.87315  0.45642  1.0000
  H   H1139     1.0  0.06144  0.75434  0.42985  1.0000
  C   C731      1.0  0.06730  0.88407  0.47955  1.0000
  H   H1140     1.0  0.16920  0.97541  0.48285  1.0000
  C   C732      1.0  0.07330  0.67768  0.40705  1.0000
  C   C733      1.0  0.20531  0.96914  0.52953  1.0000
  H   H1141     1.0  0.11046  0.90585  0.40297  1.0000
  N   N72       1.0  0.03130  0.67205  0.50690  1.0000
  H   H1142     1.0  0.00049  0.69670  0.55372  1.0000
  C   C734      1.0  0.20736  0.96957  0.47642  1.0000
  H   H1143     1.0  0.07310  0.73082  0.43297  1.0000
  C   C735      1.0  0.01141  0.78893  0.53524  1.0000
  H   H1144     1.0  0.00893  0.75639  0.47671  1.0000
  C   C736      1.0  0.04636  0.87900  0.48037  1.0000
  H   H1145     1.0  0.20639  0.94927  0.51792  1.0000
  H   H1146     1.0  0.05174  0.80682  0.47631  1.0000
  H   H1147     1.0  0.11194  0.89813  0.37670  1.0000
  C   C737      1.0  0.14776  0.92458  0.41912  1.0000
  C   C738      1.0  0.12194  0.83914  0.50938  1.0000
  C   C739      1.0  0.11245  0.84550  0.48974  1.0000
  H   H1148     1.0  0.12531  0.84266  0.51656  1.0000
  H   H1149     1.0  0.12029  0.83773  0.48508  1.0000
  H   H1150     1.0  0.18422  0.98308  0.51866  1.0000
  H   H1151     1.0  0.21040  0.96272  0.53771  1.0000
  C   C740      1.0  0.05915  0.79707  0.47739  1.0000
  H   H1152     1.0  0.05625  0.79046  0.47272  1.0000
  C   C741      1.0  0.00590  0.80863  0.51811  1.0000
  H   H1153     1.0  0.11017  0.86490  0.51116  1.0000
  H   H1154     1.0  0.09109  0.89028  0.38983  1.0000
  H   H1155     1.0  0.00393  0.72650  0.46863  1.0000
  C   C742      1.0  0.07598  0.73197  0.42184  1.0000
  H   H1156     1.0  0.06965  0.77304  0.50328  1.0000
  H   H1157     1.0  0.05666  0.80990  0.49685  1.0000
  C   C743      1.0  0.10672  0.90841  0.37827  1.0000
  H   H1158     1.0  0.09704  0.92734  0.39294  1.0000
  H   H1159     1.0  0.10038  0.66913  0.53346  1.0000
  C   C744      1.0  0.15861  0.93022  0.41819  1.0000
  H   H1160     1.0  0.07752  0.68064  0.53083  1.0000
  C   C745      1.0  0.16181  0.93605  0.39399  1.0000
  C   C746      1.0  0.19733  0.96421  0.47511  1.0000
  H   H1161     1.0  0.00665  0.83006  0.56467  1.0000
  H   H1162     1.0  0.04874  0.90449  0.46942  1.0000
  H   H1163     1.0  0.05637  0.76318  0.41444  1.0000
  H   H1164     1.0  0.03968  0.87798  0.47452  1.0000
  H   H1165     1.0  0.04050  0.88614  0.48693  1.0000
  N   N73       1.0  0.05835  0.88353  0.47142  1.0000
  H   H1166     1.0  0.08475  0.92754  0.38423  1.0000
  H   H1167     1.0  0.11449  0.91356  0.37827  1.0000
  H   H1168     1.0  0.05373  0.72838  0.41751  1.0000
  H   H1169     1.0  0.03493  0.68656  0.51529  1.0000
  H   H1170     1.0  0.04957  0.73677  0.43111  1.0000
  H   H1171     1.0  0.13035  0.83149  0.50518  1.0000
  H   H1172     1.0  0.10369  0.84098  0.49532  1.0000
  C   C747      1.0  0.09113  0.97820  0.44312  1.0000
  H   H1173     1.0  0.04769  0.89693  0.45665  1.0000
  H   H1174     1.0  0.07059  0.87402  0.48592  1.0000
  C   C748      1.0  0.05423  0.89702  0.46313  1.0000
  C   C749      1.0  0.06370  0.79992  0.49736  1.0000
  H   H1175     1.0  0.06415  0.79556  0.50810  1.0000
  C   C750      1.0  0.08978  0.92175  0.39261  1.0000
  H   H1176     1.0  0.08055  0.68377  0.40172  1.0000
  H   H1177     1.0  0.07411  0.66044  0.43727  1.0000
  H   H1178     1.0  0.07881  0.69626  0.55061  1.0000
  H   H1179     1.0  0.04032  0.67906  0.54652  1.0000
  N   N74       1.0  0.14714  0.97380  0.41873  1.0000
  H   H1180     1.0  0.10824  0.89025  0.40143  1.0000
  N   N75       1.0  0.05950  0.79097  0.49166  1.0000
  C   C751      1.0  0.06909  0.77784  0.49266  1.0000
  H   H1181     1.0  0.07935  0.77890  0.48700  1.0000
  N   N76       1.0  0.09648  0.90793  0.39097  1.0000
  C   C752      1.0  0.10297  0.90069  0.40233  1.0000
  H   H1182     1.0  0.08200  0.92172  0.40214  1.0000
  H   H1183     1.0  0.07852  0.90049  0.40017  1.0000
  C   C753      1.0  0.18801  0.97244  0.51767  1.0000
  H   H1184     1.0  0.04593  0.78442  0.51004  1.0000
  H   H1185     1.0  0.06303  0.90075  0.45631  1.0000
  H   H1186     1.0  0.16295  0.98385  0.41582  1.0000
  H   H1187     1.0  0.02026  0.78454  0.52808  1.0000
  H   H1188     1.0  0.04909  0.86906  0.48710  1.0000
  H   H1189     1.0  0.06613  0.77072  0.48867  1.0000
  H   H1190     1.0  0.07379  0.80168  0.49186  1.0000
  H   H1191     1.0  0.03857  0.79873  0.49863  1.0000
  C   C754      1.0  0.08646  0.90085  0.39075  1.0000
  H   H1192     1.0  0.00736  0.72066  0.48511  1.0000
  C   C755      1.0  0.15209  0.96272  0.42937  1.0000
  H   H1193     1.0  0.00397  0.81980  0.51503  1.0000
  C   C756      1.0  0.04604  0.78902  0.49924  1.0000
  H   H1194     1.0  0.04259  0.78222  0.49530  1.0000
  H   H1195     1.0  0.08593  0.73462  0.41834  1.0000
  H   H1196     1.0  0.14002  0.97553  0.48537  1.0000
  C   C757      1.0  0.07900  0.67075  0.56377  1.0000
  H   H1197     1.0  0.13913  0.98464  0.46848  1.0000
  H   H1198     1.0  0.99634  0.84726  0.46874  1.0000
  H   H1199     1.0  0.99103  0.66049  0.42708  1.0000
  H   H1200     1.0  0.09396  0.65575  0.54597  1.0000
  H   H1201     1.0  0.99868  0.80657  0.55177  1.0000
  H   H1202     1.0  0.99064  0.72351  0.48295  1.0000
  H   H1203     1.0  0.04736  0.65570  0.42600  1.0000
  H   H1204     1.0  0.99638  0.67203  0.55220  1.0000
  H   H1205     1.0  0.23802  0.91609  0.43226  1.0000
  C   C758      1.0  0.99832  0.83976  0.54710  1.0000
  C   C759      1.0  0.99265  0.87335  0.46903  1.0000
  C   C760      1.0  0.04845  0.65480  0.57943  1.0000
  C   C761      1.0  0.13674  0.98409  0.42496  1.0000
  H   H1206     1.0  0.08628  0.65954  0.40170  1.0000
  H   H1207     1.0  0.04172  0.65572  0.51994  1.0000
  H   H1208     1.0  0.01945  0.65567  0.56603  1.0000
  H   H1209     1.0  0.23283  0.95318  0.45478  1.0000
  H   H1210     1.0  0.16813  0.98784  0.45955  1.0000
  C   C762      1.0  0.46705  0.05467  0.27993  1.0000
  C   C763      1.0  0.43549  0.17262  0.00770  1.0000
  H   H1211     1.0  0.46605  0.06569  0.27602  1.0000
  Fe  Fe142     1.0  0.44318  0.00390  0.11736  1.0000
  H   H1212     1.0  0.48922  0.99154  0.08359  1.0000
  Fe  Fe143     1.0  0.45443  0.02921  0.10752  1.0000
  H   H1213     1.0  0.44371  0.99677  0.21631  1.0000
  S   S292      1.0  0.45887  0.04836  0.09278  1.0000
  H   H1214     1.0  0.42703  0.22873  0.00508  1.0000
  H   H1215     1.0  0.41240  0.99750  0.29665  1.0000
  Fe  Fe144     1.0  0.44719  0.01693  0.13774  1.0000
  S   S293      1.0  0.43734  0.01924  0.15904  1.0000
  S   S294      1.0  0.46132  0.00906  0.10191  1.0000
  S   S295      1.0  0.43528  0.02463  0.12163  1.0000
  Fe  Fe145     1.0  0.44056  0.09307  0.02540  1.0000
  S   S296      1.0  0.45484  0.10395  0.02714  1.0000
  S   S297      1.0  0.43618  0.07371  0.03965  1.0000
  C   C764      1.0  0.42288  0.99430  0.15429  1.0000
  H   H1216     1.0  0.41101  0.22470  0.01067  1.0000
  S   S298      1.0  0.47006  0.23128  0.01517  1.0000
  H   H1217     1.0  0.45955  0.12860  0.05029  1.0000
  Fe  Fe146     1.0  0.43920  0.12276  0.02325  1.0000
  C   C765      1.0  0.48029  0.16507  0.03845  1.0000
  S   S299      1.0  0.44856  0.09454  0.00307  1.0000
  S   S300      1.0  0.42407  0.11170  0.02324  1.0000
  H   H1218     1.0  0.48372  0.04644  0.25818  1.0000
  H   H1219     1.0  0.39585  0.25109  0.99595  1.0000
  Fe  Fe147     1.0  0.46783  0.00996  0.24801  1.0000
  S   S301      1.0  0.45770  0.03062  0.23883  1.0000
  Fe  Fe148     1.0  0.44972  0.99671  0.24107  1.0000
  Fe  Fe149     1.0  0.43897  0.02327  0.24976  1.0000
  S   S302      1.0  0.42165  0.03507  0.26254  1.0000
  Fe  Fe150     1.0  0.45773  0.02133  0.22211  1.0000
  S   S303      1.0  0.46585  0.02853  0.19980  1.0000
  H   H1220     1.0  0.46105  0.99567  0.18775  1.0000
  C   C766      1.0  0.47941  0.12973  0.02240  1.0000
  Fe  Fe151     1.0  0.44783  0.21005  0.01141  1.0000
  H   H1221     1.0  0.40275  0.99982  0.14206  1.0000
  S   S304      1.0  0.43573  0.19860  0.00640  1.0000
  Fe  Fe152     1.0  0.44991  0.23844  0.01016  1.0000
  H   H1222     1.0  0.46470  0.06984  0.07043  1.0000
  S   S305      1.0  0.44077  0.26052  0.00428  1.0000
  H   H1223     1.0  0.40079  0.01050  0.27806  1.0000
  H   H1224     1.0  0.47473  0.02807  0.17156  1.0000
  H   H1225     1.0  0.39447  0.23452  0.99626  1.0000
  S   S306      1.0  0.45535  0.22621  0.99459  1.0000
  S   S307      1.0  0.44061  0.22307  0.02660  1.0000
  S   S308      1.0  0.46545  0.29270  0.02948  1.0000
  C   C767      1.0  0.45697  0.28474  0.02307  1.0000
  C   C768      1.0  0.45642  0.27132  0.02915  1.0000
  C   C769      1.0  0.45111  0.26402  0.02362  1.0000
  C   C770      1.0  0.44594  0.27017  0.01213  1.0000
  C   C771      1.0  0.44581  0.28383  0.00639  1.0000
  C   C772      1.0  0.45148  0.29108  0.01176  1.0000
  H   H1226     1.0  0.46057  0.26638  0.03795  1.0000
  H   H1227     1.0  0.45109  0.25357  0.02824  1.0000
  H   H1228     1.0  0.41276  0.24126  0.01024  1.0000
  H   H1229     1.0  0.45199  0.30138  0.00697  1.0000
  C   C773      1.0  0.43825  0.15423  0.02704  1.0000
  C   C774      1.0  0.40760  0.00362  0.27159  1.0000
  S   S309      1.0  0.45365  0.99594  0.13442  1.0000
  C   C775      1.0  0.43765  0.18139  0.01416  1.0000
  C   C776      1.0  0.44055  0.17646  0.02694  1.0000
  C   C777      1.0  0.44070  0.16293  0.03342  1.0000
  N   N77       1.0  0.48412  0.17010  0.04815  1.0000
  H   H1230     1.0  0.46021  0.05311  0.29005  1.0000
  H   H1231     1.0  0.44216  0.18319  0.03202  1.0000
  H   H1232     1.0  0.44249  0.15926  0.04348  1.0000
  C   C778      1.0  0.45269  0.05497  0.07792  1.0000
  C   C779      1.0  0.45729  0.06588  0.06856  1.0000
  C   C780      1.0  0.45241  0.07162  0.05674  1.0000
  C   C781      1.0  0.44281  0.06656  0.05423  1.0000
  C   C782      1.0  0.43835  0.05553  0.06352  1.0000
  C   C783      1.0  0.44328  0.04974  0.07532  1.0000
  Fe  Fe153     1.0  0.43304  0.11376  0.00107  1.0000
  H   H1233     1.0  0.45612  0.07987  0.04950  1.0000
  H   H1234     1.0  0.43098  0.05152  0.06161  1.0000
  H   H1235     1.0  0.43968  0.04133  0.08245  1.0000
  C   C784      1.0  0.45802  0.02585  0.18843  1.0000
  C   C785      1.0  0.46476  0.02618  0.17495  1.0000
  C   C786      1.0  0.45860  0.02415  0.16576  1.0000
  C   C787      1.0  0.44560  0.02196  0.17000  1.0000
  C   C788      1.0  0.43886  0.02181  0.18340  1.0000
  C   C789      1.0  0.44508  0.02356  0.19262  1.0000
  Fe  Fe154     1.0  0.47094  0.00277  0.11949  1.0000
  H   H1236     1.0  0.46383  0.02446  0.15540  1.0000
  H   H1237     1.0  0.42875  0.02027  0.18673  1.0000
  H   H1238     1.0  0.43971  0.02346  0.20289  1.0000
  C   C790      1.0  0.42399  0.04238  0.30236  1.0000
  C   C791      1.0  0.41451  0.05066  0.29510  1.0000
  C   C792      1.0  0.41383  0.04808  0.28311  1.0000
  C   C793      1.0  0.42275  0.03729  0.27805  1.0000
  C   C794      1.0  0.43217  0.02877  0.28538  1.0000
  C   C795      1.0  0.43269  0.03125  0.29761  1.0000
  H   H1239     1.0  0.40773  0.05925  0.29867  1.0000
  H   H1240     1.0  0.40649  0.05466  0.27757  1.0000
  H   H1241     1.0  0.43900  0.02029  0.28167  1.0000
  H   H1242     1.0  0.43995  0.02471  0.30324  1.0000
  H   H1243     1.0  0.47295  0.09205  0.05370  1.0000
  H   H1244     1.0  0.44279  0.05331  0.27911  1.0000
  H   H1245     1.0  0.47172  0.13714  0.02710  1.0000
  C   C796      1.0  0.47756  0.24059  0.05591  1.0000
  H   H1246     1.0  0.44856  0.06536  0.26458  1.0000
  H   H1247     1.0  0.47311  0.99066  0.29497  1.0000
  H   H1248     1.0  0.48450  0.28068  0.05257  1.0000
  S   S310      1.0  0.46776  0.20054  0.01664  1.0000
  C   C797      1.0  0.44892  0.10699  0.06255  1.0000
  H   H1249     1.0  0.42768  0.99686  0.28410  1.0000
  C   C798      1.0  0.47582  0.22087  0.04988  1.0000
  H   H1250     1.0  0.42998  0.09333  0.98593  1.0000
  C   C799      1.0  0.47041  0.23090  0.05725  1.0000
  S   S311      1.0  0.48260  0.10787  0.99571  1.0000
  H   H1251     1.0  0.42669  0.00348  0.14870  1.0000
  C   C800      1.0  0.46165  0.12325  0.06036  1.0000
  H   H1252     1.0  0.41209  0.15693  0.00424  1.0000
  H   H1253     1.0  0.44704  0.04957  0.26278  1.0000
  H   H1254     1.0  0.47337  0.25736  0.99808  1.0000
  H   H1255     1.0  0.41840  0.25684  0.98873  1.0000
  H   H1256     1.0  0.41018  0.14384  0.99781  1.0000
  H   H1257     1.0  0.48918  0.16141  0.03088  1.0000
  H   H1258     1.0  0.47815  0.99940  0.14291  1.0000
  H   H1259     1.0  0.47533  0.15650  0.04356  1.0000
  H   H1260     1.0  0.47335  0.20299  0.98695  1.0000
  H   H1261     1.0  0.47137  0.12499  0.06060  1.0000
  H   H1262     1.0  0.44074  0.11142  0.07024  1.0000
  S   S312      1.0  0.44639  0.12671  0.00092  1.0000
  C   C801      1.0  0.44005  0.98829  0.21633  1.0000
  H   H1263     1.0  0.48265  0.10390  0.05256  1.0000
  H   H1264     1.0  0.47219  0.06164  0.25279  1.0000
  N   N78       1.0  0.41456  0.23739  0.99088  1.0000
  C   C802      1.0  0.46504  0.10196  0.07624  1.0000
  S   S313      1.0  0.43749  0.13758  0.03568  1.0000
  N   N79       1.0  0.46389  0.04843  0.27072  1.0000
  H   H1265     1.0  0.39670  0.15815  0.99979  1.0000
  S   S314      1.0  0.44914  0.00309  0.25965  1.0000
  C   C803      1.0  0.46542  0.03383  0.27632  1.0000
  C   C804      1.0  0.47259  0.10289  0.05243  1.0000
  C   C805      1.0  0.48877  0.25716  0.01443  1.0000
  H   H1266     1.0  0.43681  0.99598  0.19613  1.0000
  H   H1267     1.0  0.47089  0.10807  0.04222  1.0000
  H   H1268     1.0  0.44634  0.11201  0.05264  1.0000
  S   S315      1.0  0.48272  0.00732  0.26021  1.0000
  C   C806      1.0  0.47312  0.05075  0.25743  1.0000
  H   H1269     1.0  0.46458  0.18263  0.05295  1.0000
  H   H1270     1.0  0.47597  0.02882  0.27681  1.0000
  C   C807      1.0  0.43591  0.15905  0.01407  1.0000
  H   H1271     1.0  0.47449  0.17934  0.06504  1.0000
  H   H1272     1.0  0.44876  0.09621  0.06441  1.0000
  H   H1273     1.0  0.45370  0.12811  0.06792  1.0000
  H   H1274     1.0  0.39591  0.00879  0.17541  1.0000
  C   C808      1.0  0.40659  0.00606  0.17032  1.0000
  H   H1275     1.0  0.46997  0.99528  0.17081  1.0000
  Fe  Fe155     1.0  0.46117  0.10737  0.00479  1.0000
  Fe  Fe156     1.0  0.46135  0.21491  0.03033  1.0000
  H   H1276     1.0  0.46233  0.02890  0.27008  1.0000
  S   S316      1.0  0.46561  0.02313  0.12416  1.0000
  Fe  Fe157     1.0  0.47474  0.21772  0.00110  1.0000
  N   N80       1.0  0.46205  0.10876  0.06290  1.0000
  S   S317      1.0  0.43764  0.01635  0.23206  1.0000
  H   H1277     1.0  0.43348  0.17638  0.99775  1.0000
  H   H1278     1.0  0.39362  0.99009  0.29392  1.0000
  C   C809      1.0  0.47900  0.26547  0.99488  1.0000
  C   C810      1.0  0.40019  0.24247  0.99090  1.0000
  N   N81       1.0  0.40852  0.99786  0.16047  1.0000
  H   H1279     1.0  0.48740  0.03861  0.11320  1.0000
  C   C811      1.0  0.40776  0.15493  0.99680  1.0000
  H   H1280     1.0  0.46054  0.23140  0.06372  1.0000
  C   C812      1.0  0.44998  0.05443  0.26921  1.0000
  H   H1281     1.0  0.47109  0.04598  0.25034  1.0000
  H   H1282     1.0  0.43408  0.15236  0.00916  1.0000
  C   C813      1.0  0.40117  0.00564  0.14984  1.0000
  H   H1283     1.0  0.40466  0.01510  0.14455  1.0000
  S   S318      1.0  0.43027  0.99031  0.11742  1.0000
  S   S319      1.0  0.46619  0.20970  0.05051  1.0000
  H   H1284     1.0  0.45927  0.03168  0.28668  1.0000
  H   H1285     1.0  0.48402  0.19001  0.03593  1.0000
  C   C814      1.0  0.47692  0.12483  0.01265  1.0000
  H   H1286     1.0  0.48332  0.26587  0.01912  1.0000
  N   N82       1.0  0.41244  0.99022  0.27967  1.0000
  C   C815      1.0  0.41634  0.23287  0.00486  1.0000
  H   H1287     1.0  0.46735  0.12856  0.00997  1.0000
  S   S320      1.0  0.46972  0.00124  0.23049  1.0000
  H   H1288     1.0  0.45733  0.10618  0.08438  1.0000
  H   H1289     1.0  0.47323  0.17301  0.03295  1.0000
  H   H1290     1.0  0.47745  0.05029  0.28136  1.0000
  H   H1291     1.0  0.47492  0.10305  0.07682  1.0000
  H   H1292     1.0  0.46532  0.09101  0.07844  1.0000
  H   H1293     1.0  0.39025  0.00842  0.15405  1.0000
  H   H1294     1.0  0.41516  0.21735  0.98960  1.0000
  H   H1295     1.0  0.44194  0.28856  0.99741  1.0000
  C   C816      1.0  0.41935  0.99163  0.28930  1.0000
  C   C817      1.0  0.46591  0.98894  0.18056  1.0000
  H   H1296     1.0  0.48259  0.02875  0.09677  1.0000
  H   H1297     1.0  0.42890  0.98895  0.16201  1.0000
  H   H1298     1.0  0.41238  0.00061  0.17824  1.0000
  H   H1299     1.0  0.48671  0.00877  0.15689  1.0000
  H   H1300     1.0  0.48419  0.29740  0.04269  1.0000
  H   H1301     1.0  0.48265  0.24946  0.01844  1.0000
  Fe  Fe158     1.0  0.46921  0.31352  0.02043  1.0000
  H   H1302     1.0  0.48655  0.02524  0.23403  1.0000
  H   H1303     1.0  0.41015  0.01555  0.16542  1.0000
  H   H1304     1.0  0.40214  0.00296  0.26437  1.0000
  H   H1305     1.0  0.41604  0.00849  0.26560  1.0000
  H   H1306     1.0  0.47317  0.24853  0.06138  1.0000
  H   H1307     1.0  0.47240  0.27409  0.99907  1.0000
  S   S321      1.0  0.42485  0.04674  0.31693  1.0000
  C   C818      1.0  0.48875  0.99880  0.14109  1.0000
  H   H1308     1.0  0.46710  0.16641  0.06410  1.0000
  H   H1309     1.0  0.42922  0.31785  0.00596  1.0000
  H   H1310     1.0  0.48530  0.05225  0.09079  1.0000
  C   C819      1.0  0.47204  0.17477  0.05802  1.0000
  H   H1311     1.0  0.48177  0.99013  0.19551  1.0000
  H   H1312     1.0  0.43269  0.15913  0.98617  1.0000
  H   H1313     1.0  0.41415  0.17901  0.98927  1.0000
  H   H1314     1.0  0.48792  0.30541  0.06047  1.0000
  H   H1315     1.0  0.41905  0.31578  0.98840  1.0000
  H   H1316     1.0  0.45143  0.99041  0.09339  1.0000
  C   C820      1.0  0.48852  0.22039  0.04133  1.0000
  C   C821      1.0  0.48663  0.11506  0.00663  1.0000
  H   H1317     1.0  0.48718  0.28911  0.07122  1.0000
  H   H1318     1.0  0.48892  0.15035  0.06058  1.0000
  H   H1319     1.0  0.48350  0.14548  0.98494  1.0000
  Fe  Fe159     1.0  0.34676  0.03456  0.54350  1.0000
  S   S322      1.0  0.35734  0.02084  0.52957  1.0000
  S   S323      1.0  0.32512  0.04376  0.54278  1.0000
  Fe  Fe160     1.0  0.37200  0.03041  0.55434  1.0000
  S   S324      1.0  0.38451  0.01644  0.54075  1.0000
  S   S325      1.0  0.37742  0.03313  0.57259  1.0000
  Fe  Fe161     1.0  0.37418  0.03114  0.52486  1.0000
  S   S326      1.0  0.38237  0.03765  0.50255  1.0000
  Fe  Fe162     1.0  0.27662  0.00924  0.52950  1.0000
  C   C822      1.0  0.31325  0.00952  0.54667  1.0000
  S   S327      1.0  0.36304  0.04599  0.53793  1.0000
  S   S328      1.0  0.35446  0.02046  0.56100  1.0000
  Fe  Fe163     1.0  0.43749  0.02062  0.60604  1.0000
  Fe  Fe164     1.0  0.27090  0.00042  0.50719  1.0000
  S   S329      1.0  0.43333  0.02976  0.58517  1.0000
  Fe  Fe165     1.0  0.43751  0.02430  0.63357  1.0000
  H   H1320     1.0  0.32850  0.03065  0.48301  1.0000
  C   C823      1.0  0.34085  0.99306  0.41155  1.0000
  Fe  Fe166     1.0  0.45926  0.00321  0.62140  1.0000
  H   H1321     1.0  0.33097  0.03821  0.49512  1.0000
  H   H1322     1.0  0.32750  0.00672  0.48906  1.0000
  H   H1323     1.0  0.38032  0.05203  0.34694  1.0000
  S   S330      1.0  0.45271  0.02546  0.61398  1.0000
  S   S331      1.0  0.42167  0.02172  0.62499  1.0000
  H   H1324     1.0  0.40151  0.05859  0.60780  1.0000
  C   C824      1.0  0.33523  0.01562  0.51381  1.0000
  H   H1325     1.0  0.27088  0.08270  0.46134  1.0000
  Fe  Fe167     1.0  0.35828  0.01312  0.45256  1.0000
  C   C825      1.0  0.42246  0.06008  0.61640  1.0000
  H   H1326     1.0  0.41816  0.03093  0.42559  1.0000
  Fe  Fe168     1.0  0.36426  0.02865  0.42357  1.0000
  S   S332      1.0  0.34874  0.02220  0.41777  1.0000
  S   S333      1.0  0.37770  0.04185  0.40865  1.0000
  Fe  Fe169     1.0  0.33564  0.02584  0.43766  1.0000
  S   S334      1.0  0.31325  0.03415  0.44268  1.0000
  H   H1327     1.0  0.28920  0.05553  0.44285  1.0000
  H   H1328     1.0  0.39610  0.02638  0.37273  1.0000
  S   S335      1.0  0.35046  0.03435  0.44252  1.0000
  H   H1329     1.0  0.47705  0.01843  0.62390  1.0000
  C   C826      1.0  0.29605  0.06862  0.45696  1.0000
  Fe  Fe170     1.0  0.44402  0.01894  0.35697  1.0000
  N   N83       1.0  0.39645  0.03553  0.35188  1.0000
  H   H1330     1.0  0.43692  0.00485  0.32020  1.0000
  S   S336      1.0  0.25710  0.02445  0.53216  1.0000
  H   H1331     1.0  0.40972  0.02572  0.33639  1.0000
  Fe  Fe171     1.0  0.35665  0.00199  0.42991  1.0000
  H   H1332     1.0  0.24738  0.03177  0.46524  1.0000
  H   H1333     1.0  0.34421  0.02599  0.48786  1.0000
  C   C827      1.0  0.39875  0.02357  0.36283  1.0000
  Fe  Fe172     1.0  0.36646  0.00758  0.54654  1.0000
  Fe  Fe173     1.0  0.25252  0.01580  0.43125  1.0000
  S   S337      1.0  0.27461  0.01271  0.42159  1.0000
  C   C828      1.0  0.24837  0.05023  0.48619  1.0000
  C   C829      1.0  0.39299  0.03373  0.39965  1.0000
  C   C830      1.0  0.40156  0.04138  0.38999  1.0000
  C   C831      1.0  0.41406  0.03504  0.38318  1.0000
  C   C832      1.0  0.41810  0.02102  0.38616  1.0000
  C   C833      1.0  0.40952  0.01343  0.39578  1.0000
  C   C834      1.0  0.39695  0.01973  0.40232  1.0000
  H   H1334     1.0  0.39860  0.05223  0.38790  1.0000
  H   H1335     1.0  0.42074  0.04097  0.37594  1.0000
  H   H1336     1.0  0.39071  0.02566  0.43060  1.0000
  H   H1337     1.0  0.39042  0.01369  0.40947  1.0000
  C   C835      1.0  0.30270  0.02793  0.43681  1.0000
  C   C836      1.0  0.28938  0.02830  0.44387  1.0000
  C   C837      1.0  0.28064  0.02387  0.43921  1.0000
  C   C838      1.0  0.28515  0.01892  0.42745  1.0000
  C   C839      1.0  0.29849  0.01843  0.42045  1.0000
  C   C840      1.0  0.30724  0.02292  0.42508  1.0000
  H   H1338     1.0  0.28580  0.03185  0.45310  1.0000
  H   H1339     1.0  0.27043  0.02420  0.44477  1.0000
  Fe  Fe174     1.0  0.45723  0.00592  0.33290  1.0000
  H   H1340     1.0  0.31743  0.02266  0.41947  1.0000
  H   H1341     1.0  0.29471  0.07863  0.44995  1.0000
  H   H1342     1.0  0.34631  0.01309  0.51040  1.0000
  H   H1343     1.0  0.37535  0.03654  0.35600  1.0000
  H   H1344     1.0  0.30476  0.06183  0.45180  1.0000
  Fe  Fe175     1.0  0.43050  0.99982  0.63090  1.0000
  S   S338      1.0  0.24548  0.01272  0.45357  1.0000
  H   H1345     1.0  0.30869  0.02384  0.49921  1.0000
  Fe  Fe176     1.0  0.46704  0.02877  0.33595  1.0000
  S   S339      1.0  0.34249  0.00505  0.44926  1.0000
  H   H1346     1.0  0.34294  0.00180  0.49455  1.0000
  H   H1347     1.0  0.41788  0.00041  0.61159  1.0000
  S   S340      1.0  0.25138  0.01513  0.50755  1.0000
  C   C841      1.0  0.33323  0.02869  0.49165  1.0000
  C   C842      1.0  0.28623  0.04985  0.46997  1.0000
  C   C843      1.0  0.28066  0.06191  0.44862  1.0000
  H   H1348     1.0  0.33260  0.02472  0.51806  1.0000
  S   S341      1.0  0.43402  0.01259  0.37880  1.0000
  H   H1349     1.0  0.39773  0.03214  0.46024  1.0000
  C   C844      1.0  0.37812  0.02847  0.49353  1.0000
  C   C845      1.0  0.37895  0.01469  0.49838  1.0000
  H   H1350     1.0  0.27419  0.07294  0.47738  1.0000
  C   C846      1.0  0.37069  0.01377  0.47961  1.0000
  C   C847      1.0  0.36996  0.02755  0.47461  1.0000
  C   C848      1.0  0.37382  0.03488  0.48151  1.0000
  H   H1351     1.0  0.48548  0.02013  0.35722  1.0000
  H   H1352     1.0  0.40513  0.04130  0.41730  1.0000
  H   H1353     1.0  0.36605  0.03260  0.46572  1.0000
  H   H1354     1.0  0.37308  0.04558  0.47782  1.0000
  C   C849      1.0  0.39345  0.03092  0.57571  1.0000
  C   C850      1.0  0.39465  0.02837  0.58908  1.0000
  C   C851      1.0  0.40696  0.02733  0.59210  1.0000
  C   C852      1.0  0.41814  0.02929  0.58174  1.0000
  C   C853      1.0  0.41699  0.03176  0.56835  1.0000
  C   C854      1.0  0.40475  0.03238  0.56534  1.0000
  H   H1355     1.0  0.38597  0.02733  0.59718  1.0000
  H   H1356     1.0  0.40765  0.02536  0.60245  1.0000
  H   H1357     1.0  0.42557  0.03330  0.56026  1.0000
  H   H1358     1.0  0.40395  0.03444  0.55499  1.0000
  C   C855      1.0  0.31581  0.03234  0.54302  1.0000
  C   C856      1.0  0.32062  0.01849  0.54687  1.0000
  H   H1359     1.0  0.27755  0.04513  0.47251  1.0000
  C   C857      1.0  0.30358  0.03715  0.53899  1.0000
  H   H1360     1.0  0.33002  0.01468  0.55003  1.0000
  H   H1361     1.0  0.29979  0.04787  0.53607  1.0000
  H   H1362     1.0  0.26310  0.06885  0.47008  1.0000
  S   S342      1.0  0.44629  0.03949  0.34468  1.0000
  H   H1363     1.0  0.43314  0.06172  0.58277  1.0000
  C   C858      1.0  0.41540  0.07806  0.59839  1.0000
  H   H1364     1.0  0.43852  0.04891  0.59630  1.0000
  H   H1365     1.0  0.38714  0.02201  0.44866  1.0000
  H   H1366     1.0  0.37981  0.04638  0.44851  1.0000
  H   H1367     1.0  0.41274  0.06249  0.62356  1.0000
  N   N84       1.0  0.32860  0.01785  0.50266  1.0000
  H   H1368     1.0  0.40547  0.08117  0.60497  1.0000
  C   C859      1.0  0.36570  0.00623  0.59574  1.0000
  C   C860      1.0  0.39494  0.02441  0.43944  1.0000
  H   H1369     1.0  0.41407  0.08092  0.58785  1.0000
  N   N85       1.0  0.28387  0.06319  0.46081  1.0000
  H   H1370     1.0  0.42934  0.06556  0.61768  1.0000
  H   H1371     1.0  0.40343  0.01551  0.43937  1.0000
  S   S343      1.0  0.28217  0.01539  0.50697  1.0000
  S   S344      1.0  0.43441  0.03903  0.64642  1.0000
  S   S345      1.0  0.37307  0.00806  0.43421  1.0000
  H   H1372     1.0  0.41396  0.02603  0.45065  1.0000
  Fe  Fe177     1.0  0.26207  0.02948  0.50954  1.0000
  H   H1373     1.0  0.39774  0.04010  0.33055  1.0000
  S   S346      1.0  0.36500  0.00433  0.47204  1.0000
  H   H1374     1.0  0.41260  0.00259  0.39814  1.0000
  S   S347      1.0  0.43600  0.01427  0.34195  1.0000
  H   H1375     1.0  0.38282  0.04983  0.43053  1.0000
  H   H1376     1.0  0.27830  0.07185  0.44173  1.0000
  C   C861      1.0  0.29629  0.02816  0.53860  1.0000
  H   H1377     1.0  0.37999  0.04625  0.36462  1.0000
  S   S348      1.0  0.25796  0.05037  0.49707  1.0000
  Fe  Fe178     1.0  0.24797  0.00874  0.52987  1.0000
  H   H1378     1.0  0.28784  0.05054  0.47964  1.0000
  H   H1379     1.0  0.31112  0.03093  0.51162  1.0000
  H   H1380     1.0  0.37170  0.01146  0.59876  1.0000
  H   H1381     1.0  0.42672  0.04919  0.61967  1.0000
  H   H1382     1.0  0.40822  0.04363  0.45065  1.0000
  C   C862      1.0  0.38240  0.04292  0.35498  1.0000
  S   S349      1.0  0.29273  0.00267  0.54140  1.0000
  C   C863      1.0  0.40506  0.03453  0.45060  1.0000
  C   C864      1.0  0.43627  0.99458  0.32178  1.0000
  H   H1383     1.0  0.40331  0.04814  0.35998  1.0000
  H   H1384     1.0  0.29508  0.04284  0.46540  1.0000
  H   H1385     1.0  0.26081  0.03196  0.48056  1.0000
  S   S350      1.0  0.44487  0.00230  0.64136  1.0000
  H   H1386     1.0  0.31707  0.99882  0.54963  1.0000
  H   H1387     1.0  0.41040  0.05805  0.59074  1.0000
  H   H1388     1.0  0.28692  0.03194  0.53539  1.0000
  H   H1389     1.0  0.40943  0.01813  0.36127  1.0000
  H   H1390     1.0  0.41297  0.04856  0.42557  1.0000
  C   C865      1.0  0.38758  0.04810  0.43913  1.0000
  H   H1391     1.0  0.39049  0.05756  0.43851  1.0000
  C   C866      1.0  0.41159  0.05602  0.60127  1.0000
  H   H1392     1.0  0.27188  0.05724  0.45120  1.0000
  C   C867      1.0  0.40933  0.03949  0.42631  1.0000
  C   C868      1.0  0.37541  0.00735  0.49134  1.0000
  C   C869      1.0  0.43401  0.05979  0.59338  1.0000
  C   C870      1.0  0.27255  0.07236  0.46767  1.0000
  C   C871      1.0  0.33195  0.00534  0.49777  1.0000
  N   N86       1.0  0.39924  0.03663  0.43888  1.0000
  C   C872      1.0  0.25202  0.03986  0.47929  1.0000
  S   S351      1.0  0.48551  0.03729  0.33026  1.0000
  H   H1393     1.0  0.44121  0.06542  0.59370  1.0000
  C   C873      1.0  0.30113  0.01432  0.54243  1.0000
  H   H1394     1.0  0.36141  0.01348  0.58739  1.0000
  H   H1395     1.0  0.42215  0.08402  0.59908  1.0000
  H   H1396     1.0  0.41536  0.04502  0.60428  1.0000
  N   N87       1.0  0.42086  0.06349  0.60237  1.0000
  H   H1397     1.0  0.41607  0.03904  0.34874  1.0000
  H   H1398     1.0  0.38245  0.00967  0.50752  1.0000
  H   H1399     1.0  0.30201  0.01468  0.41131  1.0000
  H   H1400     1.0  0.33832  0.00112  0.41673  1.0000
  S   S352      1.0  0.46521  0.00853  0.34919  1.0000
  C   C874      1.0  0.31399  0.02176  0.50745  1.0000
  C   C875      1.0  0.40539  0.04439  0.35067  1.0000
  H   H1401     1.0  0.29870  0.06974  0.46593  1.0000
  Fe  Fe179     1.0  0.44013  0.03374  0.32879  1.0000
  H   H1402     1.0  0.31791  0.99636  0.43680  1.0000
  S   S353      1.0  0.46094  0.02516  0.31885  1.0000
  H   H1403     1.0  0.39262  0.02464  0.33954  1.0000
  H   H1404     1.0  0.31014  0.01365  0.51554  1.0000
  C   C876      1.0  0.39920  0.03130  0.33906  1.0000
  H   H1405     1.0  0.38164  0.00444  0.57163  1.0000
  H   H1406     1.0  0.39264  0.01634  0.36364  1.0000
  C   C877      1.0  0.24435  0.03967  0.47065  1.0000
  H   H1407     1.0  0.40431  0.05327  0.34215  1.0000
  H   H1408     1.0  0.35723  0.00416  0.60432  1.0000
  H   H1409     1.0  0.37629  0.99665  0.49507  1.0000
  H   H1410     1.0  0.32326  0.00023  0.40322  1.0000
  H   H1411     1.0  0.33233  0.00720  0.52216  1.0000
  H   H1412     1.0  0.39188  0.00160  0.58336  1.0000
  H   H1413     1.0  0.30207  0.99894  0.44844  1.0000
  H   H1414     1.0  0.41538  0.99974  0.32129  1.0000
  H   H1415     1.0  0.36804  0.99494  0.52493  1.0000
  C   C878      1.0  0.38526  0.99710  0.58031  1.0000
  C   C879      1.0  0.42412  0.99169  0.32220  1.0000
  S   S354      1.0  0.44560  0.99845  0.61159  1.0000
  C   C880      1.0  0.33228  0.99254  0.40394  1.0000
  H   H1416     1.0  0.32826  0.99709  0.50580  1.0000
  S   S355      1.0  0.26701  0.99299  0.52945  1.0000
  H   H1417     1.0  0.29200  0.98990  0.43540  1.0000
  C   C881      1.0  0.48662  0.01271  0.62595  1.0000
  H   H1418     1.0  0.36162  0.99428  0.57854  1.0000
  H   H1419     1.0  0.41680  0.99396  0.59134  1.0000
  S   S356      1.0  0.48043  0.99117  0.62146  1.0000
  N   N88       1.0  0.37401  0.99380  0.59153  1.0000
  C   C882      1.0  0.31154  0.99144  0.44605  1.0000
  C   C883      1.0  0.41583  0.99077  0.61252  1.0000
  H   H1420     1.0  0.31675  0.98911  0.45440  1.0000
  H   H1421     1.0  0.38571  0.98885  0.60641  1.0000
  H   H1422     1.0  0.39158  0.98802  0.57663  1.0000
  H   H1423     1.0  0.35807  0.98904  0.50954  1.0000
  H   H1424     1.0  0.48676  0.15308  0.96726  1.0000
  N   N89       1.0  0.46665  0.17579  0.88866  1.0000
  C   C884      1.0  0.46242  0.29969  0.87445  1.0000
  H   H1425     1.0  0.42036  0.25211  0.97314  1.0000
  Fe  Fe180     1.0  0.44273  0.01077  0.72211  1.0000
  S   S357      1.0  0.46410  0.01041  0.72102  1.0000
  S   S358      1.0  0.43563  0.00625  0.70600  1.0000
  Fe  Fe181     1.0  0.43487  0.00937  0.75250  1.0000
  S   S359      1.0  0.45556  0.00846  0.75392  1.0000
  S   S360      1.0  0.41786  0.00866  0.77069  1.0000
  Fe  Fe182     1.0  0.45562  0.02454  0.73511  1.0000
  H   H1426     1.0  0.40625  0.98996  0.84634  1.0000
  C   C885      1.0  0.48096  0.23792  0.94136  1.0000
  H   H1427     1.0  0.47620  0.16976  0.90540  1.0000
  S   S361      1.0  0.43424  0.02655  0.73451  1.0000
  H   H1428     1.0  0.46240  0.24341  0.96335  1.0000
  C   C886      1.0  0.43426  0.27852  0.93107  1.0000
  C   C887      1.0  0.46404  0.10280  0.95033  1.0000
  H   H1429     1.0  0.46465  0.12239  0.97047  1.0000
  Fe  Fe183     1.0  0.45134  0.03382  0.84515  1.0000
  S   S362      1.0  0.47219  0.02688  0.83361  1.0000
  S   S363      1.0  0.44898  0.03798  0.86565  1.0000
  Fe  Fe184     1.0  0.43880  0.03100  0.82374  1.0000
  S   S364      1.0  0.45854  0.02434  0.81049  1.0000
  S   S365      1.0  0.41949  0.03314  0.81792  1.0000
  Fe  Fe185     1.0  0.46408  0.01141  0.82953  1.0000
  H   H1430     1.0  0.44116  0.03291  0.69196  1.0000
  Fe  Fe186     1.0  0.46456  0.04037  0.81570  1.0000
  H   H1431     1.0  0.47569  0.22986  0.96799  1.0000
  S   S366      1.0  0.44385  0.01700  0.84268  1.0000
  S   S367      1.0  0.44427  0.04840  0.82738  1.0000
  Fe  Fe187     1.0  0.44034  0.10350  0.89143  1.0000
  S   S368      1.0  0.45229  0.08952  0.90604  1.0000
  S   S369      1.0  0.43661  0.09750  0.87422  1.0000
  Fe  Fe188     1.0  0.43648  0.12768  0.90376  1.0000
  S   S370      1.0  0.44778  0.11541  0.91955  1.0000
  S   S371      1.0  0.42992  0.15023  0.90047  1.0000
  Fe  Fe189     1.0  0.46206  0.10659  0.90278  1.0000
  H   H1432     1.0  0.46155  0.18197  0.86933  1.0000
  Fe  Fe190     1.0  0.43674  0.09979  0.92131  1.0000
  S   S372      1.0  0.42937  0.08778  0.94176  1.0000
  S   S373      1.0  0.45159  0.11977  0.88677  1.0000
  S   S374      1.0  0.42393  0.11280  0.90693  1.0000
  H   H1433     1.0  0.45944  0.12811  0.93588  1.0000
  S   S375      1.0  0.44946  0.19662  0.95651  1.0000
  H   H1434     1.0  0.42628  0.01462  0.66182  1.0000
  S   S376      1.0  0.48411  0.10426  0.89876  1.0000
  S   S377      1.0  0.43971  0.21558  0.92885  1.0000
  Fe  Fe191     1.0  0.44834  0.21800  0.94486  1.0000
  H   H1435     1.0  0.41639  0.07563  0.89663  1.0000
  Fe  Fe192     1.0  0.44271  0.19372  0.93948  1.0000
  S   S378      1.0  0.42872  0.17974  0.94506  1.0000
  H   H1436     1.0  0.47295  0.05376  0.86967  1.0000
  C   C888      1.0  0.46309  0.11358  0.96789  1.0000
  C   C889      1.0  0.42970  0.15808  0.91310  1.0000
  C   C890      1.0  0.42840  0.17203  0.90998  1.0000
  C   C891      1.0  0.42858  0.17865  0.91963  1.0000
  C   C892      1.0  0.42966  0.17138  0.93259  1.0000
  C   C893      1.0  0.43070  0.15744  0.93585  1.0000
  C   C894      1.0  0.43092  0.15076  0.92606  1.0000
  H   H1437     1.0  0.42717  0.17775  0.90007  1.0000
  H   H1438     1.0  0.42740  0.18944  0.91719  1.0000
  H   H1439     1.0  0.43128  0.15182  0.94594  1.0000
  H   H1440     1.0  0.43163  0.14005  0.92864  1.0000
  C   C895      1.0  0.44579  0.05458  0.86783  1.0000
  C   C896      1.0  0.44597  0.05666  0.88028  1.0000
  C   C897      1.0  0.44371  0.06976  0.88224  1.0000
  C   C898      1.0  0.44076  0.08087  0.87191  1.0000
  C   C899      1.0  0.44054  0.07876  0.85951  1.0000
  C   C900      1.0  0.44321  0.06568  0.85742  1.0000
  H   H1441     1.0  0.44794  0.04812  0.88840  1.0000
  H   H1442     1.0  0.44398  0.07128  0.89179  1.0000
  H   H1443     1.0  0.43827  0.08730  0.85147  1.0000
  H   H1444     1.0  0.44305  0.06424  0.84779  1.0000
  H   H1445     1.0  0.47741  0.09703  0.85856  1.0000
  C   C901      1.0  0.43360  0.03085  0.66345  1.0000
  H   H1446     1.0  0.41047  0.16429  0.96296  1.0000
  H   H1447     1.0  0.47108  0.18978  0.97245  1.0000
  H   H1448     1.0  0.47424  0.08268  0.79308  1.0000
  C   C902      1.0  0.43695  0.25455  0.93299  1.0000
  H   H1449     1.0  0.42920  0.06133  0.91409  1.0000
  H   H1450     1.0  0.47895  0.03776  0.85515  1.0000
  H   H1451     1.0  0.40714  0.05792  0.91422  1.0000
  H   H1452     1.0  0.46277  0.04528  0.77904  1.0000
  C   C903      1.0  0.43990  0.25177  0.94563  1.0000
  H   H1453     1.0  0.48735  0.24095  0.93129  1.0000
  C   C904      1.0  0.48038  0.19282  0.97073  1.0000
  H   H1454     1.0  0.48303  0.18187  0.89151  1.0000
  H   H1455     1.0  0.47361  0.24581  0.97185  1.0000
  H   H1456     1.0  0.41783  0.99833  0.80953  1.0000
  H   H1457     1.0  0.48230  0.12477  0.94929  1.0000
  H   H1458     1.0  0.48309  0.11643  0.93646  1.0000
  H   H1459     1.0  0.39854  0.24599  0.98047  1.0000
  C   C905      1.0  0.42173  0.11873  0.95989  1.0000
  C   C906      1.0  0.42340  0.11119  0.95039  1.0000
  C   C907      1.0  0.42718  0.09718  0.95376  1.0000
  C   C908      1.0  0.42950  0.09075  0.96661  1.0000
  H   H1460     1.0  0.40909  0.14821  0.97372  1.0000
  H   H1461     1.0  0.41856  0.12955  0.95727  1.0000
  H   H1462     1.0  0.42144  0.11623  0.94055  1.0000
  C   C909      1.0  0.43006  0.99326  0.83032  1.0000
  H   H1463     1.0  0.48241  0.29282  0.88750  1.0000
  C   C910      1.0  0.41887  0.01595  0.78320  1.0000
  C   C911      1.0  0.43108  0.01462  0.78642  1.0000
  C   C912      1.0  0.43145  0.01983  0.79708  1.0000
  C   C913      1.0  0.41964  0.02660  0.80437  1.0000
  C   C914      1.0  0.40748  0.02791  0.80110  1.0000
  C   C915      1.0  0.40708  0.02249  0.79066  1.0000
  H   H1464     1.0  0.44018  0.00918  0.78103  1.0000
  H   H1465     1.0  0.44084  0.01838  0.79972  1.0000
  H   H1466     1.0  0.39829  0.03305  0.80672  1.0000
  H   H1467     1.0  0.39759  0.02344  0.78830  1.0000
  C   C916      1.0  0.47572  0.23179  0.89826  1.0000
  H   H1468     1.0  0.43272  0.24462  0.98301  1.0000
  C   C917      1.0  0.48132  0.06389  0.80600  1.0000
  C   C918      1.0  0.47010  0.01049  0.66215  1.0000
  S   S379      1.0  0.46455  0.30015  0.96180  1.0000
  C   C919      1.0  0.45821  0.28695  0.89731  1.0000
  C   C920      1.0  0.48365  0.25278  0.90302  1.0000
  H   H1469     1.0  0.46596  0.02635  0.76024  1.0000
  H   H1470     1.0  0.44668  0.12652  0.95101  1.0000
  C   C921      1.0  0.43402  0.26792  0.92578  1.0000
  H   H1471     1.0  0.46046  0.19618  0.89127  1.0000
  N   N90       1.0  0.48184  0.24510  0.95104  1.0000
  H   H1472     1.0  0.42732  0.00182  0.68497  1.0000
  H   H1473     1.0  0.47672  0.29438  0.98382  1.0000
  H   H1474     1.0  0.44042  0.04571  0.66848  1.0000
  H   H1475     1.0  0.41381  0.18206  0.97187  1.0000
  H   H1476     1.0  0.42730  0.07093  0.76742  1.0000
  C   C922      1.0  0.47505  0.02987  0.75575  1.0000
  S   S380      1.0  0.43032  0.29522  0.92203  1.0000
  S   S381      1.0  0.45778  0.30826  0.92706  1.0000
  H   H1477     1.0  0.40198  0.08836  0.90121  1.0000
  H   H1478     1.0  0.46907  0.03057  0.87942  1.0000
  H   H1479     1.0  0.44621  0.03557  0.77508  1.0000
  H   H1480     1.0  0.47643  0.01805  0.65885  1.0000
  C   C923      1.0  0.47872  0.12775  0.90731  1.0000
  H   H1481     1.0  0.43045  0.14608  0.97991  1.0000
  C   C924      1.0  0.47402  0.30125  0.89027  1.0000
  H   H1482     1.0  0.45716  0.23793  0.91186  1.0000
  C   C925      1.0  0.47938  0.02724  0.88116  1.0000
  C   C926      1.0  0.43793  0.02893  0.68539  1.0000
  C   C927      1.0  0.48252  0.13768  0.91078  1.0000
  C   C928      1.0  0.42178  0.24824  0.98364  1.0000
  S   S382      1.0  0.47160  0.21724  0.89733  1.0000
  H   H1483     1.0  0.45786  0.16051  0.90371  1.0000
  S   S383      1.0  0.42214  0.12224  0.98419  1.0000
  H   H1484     1.0  0.45967  0.01574  0.66575  1.0000
  C   C929      1.0  0.42421  0.11235  0.97268  1.0000
  H   H1485     1.0  0.48770  0.16171  0.97911  1.0000
  S   S384      1.0  0.47518  0.05439  0.79905  1.0000
  C   C930      1.0  0.43753  0.27570  0.94357  1.0000
  C   C931      1.0  0.48033  0.11573  0.94753  1.0000
  H   H1486     1.0  0.46580  0.27817  0.89421  1.0000
  C   C932      1.0  0.48166  0.20039  0.97893  1.0000
  H   H1487     1.0  0.46369  0.05570  0.76240  1.0000
  H   H1488     1.0  0.44736  0.18935  0.88999  1.0000
  H   H1489     1.0  0.47773  0.26548  0.95324  1.0000
  H   H1490     1.0  0.44617  0.04639  0.75876  1.0000
  C   C933      1.0  0.42972  0.01856  0.66825  1.0000
  H   H1491     1.0  0.46020  0.06306  0.77666  1.0000
  H   H1492     1.0  0.48038  0.01160  0.68213  1.0000
  C   C934      1.0  0.48288  0.04985  0.87239  1.0000
  S   S385      1.0  0.46946  0.21353  0.93356  1.0000
  C   C935      1.0  0.40679  0.15913  0.97350  1.0000
  C   C936      1.0  0.47081  0.25053  0.90903  1.0000
  C   C937      1.0  0.40383  0.08520  0.92657  1.0000
  H   H1493     1.0  0.43089  0.22217  0.98353  1.0000
  H   H1494     1.0  0.45802  0.28629  0.90801  1.0000
  H   H1495     1.0  0.44826  0.28581  0.89701  1.0000
  H   H1496     1.0  0.42324  0.06337  0.93122  1.0000
  H   H1497     1.0  0.48832  0.30078  0.91954  1.0000
  H   H1498     1.0  0.44235  0.26040  0.96069  1.0000
  H   H1499     1.0  0.39222  0.07021  0.91868  1.0000
  N   N91       1.0  0.47476  0.99915  0.67274  1.0000
  C   C938      1.0  0.47986  0.30303  0.97679  1.0000
  N   N92       1.0  0.46622  0.11477  0.95318  1.0000
  H   H1500     1.0  0.47456  0.18895  0.87054  1.0000
  H   H1501     1.0  0.45351  0.18416  0.90512  1.0000
  H   H1502     1.0  0.46658  0.10320  0.93933  1.0000
  C   C939      1.0  0.47704  0.03751  0.74255  1.0000
  S   S386      1.0  0.46339  0.18756  0.92742  1.0000
  H   H1503     1.0  0.48079  0.26873  0.98375  1.0000
  C   C940      1.0  0.40717  0.99127  0.83538  1.0000
  H   H1504     1.0  0.43854  0.06327  0.79302  1.0000
  Fe  Fe193     1.0  0.46992  0.19206  0.94355  1.0000
  H   H1505     1.0  0.47031  0.00703  0.65311  1.0000
  H   H1506     1.0  0.44316  0.07063  0.75572  1.0000
  H   H1507     1.0  0.39881  0.18057  0.98456  1.0000
  C   C941      1.0  0.47300  0.24090  0.96414  1.0000
  H   H1508     1.0  0.42747  0.00414  0.82568  1.0000
  C   C942      1.0  0.45739  0.12694  0.94697  1.0000
  H   H1509     1.0  0.46464  0.30925  0.86763  1.0000
  C   C943      1.0  0.42821  0.09834  0.97601  1.0000
  C   C944      1.0  0.48842  0.11787  0.90143  1.0000
  C   C945      1.0  0.43436  0.01645  0.68999  1.0000
  S   S387      1.0  0.44287  0.23524  0.95532  1.0000
  C   C946      1.0  0.41182  0.08267  0.90354  1.0000
  H   H1510     1.0  0.40395  0.00224  0.83118  1.0000
  H   H1511     1.0  0.41850  0.22890  0.97362  1.0000
  C   C947      1.0  0.42766  0.15707  0.97937  1.0000
  H   H1512     1.0  0.43662  0.24645  0.92889  1.0000
  H   H1513     1.0  0.39369  0.09056  0.92487  1.0000
  H   H1514     1.0  0.43081  0.04598  0.77117  1.0000
  C   C948      1.0  0.47862  0.17290  0.89422  1.0000
  N   N93       1.0  0.44375  0.05644  0.77457  1.0000
  H   H1515     1.0  0.44914  0.31129  0.90312  1.0000
  H   H1516     1.0  0.44077  0.04554  0.79513  1.0000
  C   C949      1.0  0.47037  0.17977  0.87385  1.0000
  C   C950      1.0  0.48461  0.02728  0.76341  1.0000
  H   H1517     1.0  0.43773  0.28381  0.94774  1.0000
  H   H1518     1.0  0.47802  0.17165  0.86953  1.0000
  H   H1519     1.0  0.44063  0.31029  0.89136  1.0000
  N   N94       1.0  0.46127  0.29975  0.88863  1.0000
  H   H1520     1.0  0.48424  0.09597  0.80193  1.0000
  C   C951      1.0  0.45822  0.05507  0.77308  1.0000
  C   C952      1.0  0.47527  0.30811  0.96490  1.0000
  H   H1521     1.0  0.48289  0.02162  0.77370  1.0000
  C   C953      1.0  0.44015  0.26239  0.95090  1.0000
  S   S388      1.0  0.46462  0.04186  0.73325  1.0000
  H   H1522     1.0  0.46404  0.25662  0.91584  1.0000
  H   H1523     1.0  0.46849  0.15499  0.88900  1.0000
  Fe  Fe194     1.0  0.45229  0.31329  0.94711  1.0000
  H   H1524     1.0  0.40284  0.08016  0.93740  1.0000
  N   N95       1.0  0.41300  0.16191  0.98296  1.0000
  H   H1525     1.0  0.47659  0.31088  0.88400  1.0000
  H   H1526     1.0  0.47743  0.99581  0.69286  1.0000
  H   H1527     1.0  0.40969  0.09292  0.92475  1.0000
  C   C954      1.0  0.47972  0.07776  0.80093  1.0000
  C   C955      1.0  0.48772  0.30964  0.98004  1.0000
  H   H1528     1.0  0.41831  0.09000  0.90085  1.0000
  C   C956      1.0  0.41995  0.22597  0.98411  1.0000
  Fe  Fe195     1.0  0.46215  0.99453  0.73994  1.0000
  C   C957      1.0  0.43695  0.05544  0.78890  1.0000
  C   C958      1.0  0.43746  0.03617  0.67212  1.0000
  H   H1529     1.0  0.47056  0.29129  0.87121  1.0000
  S   S389      1.0  0.47469  0.98968  0.83077  1.0000
  H   H1530     1.0  0.47053  0.24006  0.94004  1.0000
  H   H1531     1.0  0.43016  0.07609  0.91852  1.0000
  H   H1532     1.0  0.45875  0.13619  0.94889  1.0000
  C   C959      1.0  0.47405  0.00415  0.68464  1.0000
  H   H1533     1.0  0.39573  0.16255  0.97596  1.0000
  H   H1534     1.0  0.46955  0.10449  0.97296  1.0000
  C   C960      1.0  0.43013  0.01141  0.68143  1.0000
  C   C961      1.0  0.46692  0.23994  0.90679  1.0000
  H   H1535     1.0  0.45213  0.16536  0.88838  1.0000
  H   H1536     1.0  0.43959  0.07800  0.77000  1.0000
  H   H1537     1.0  0.40116  0.05983  0.93132  1.0000
  H   H1538     1.0  0.46363  0.00913  0.68884  1.0000
  C   C962      1.0  0.43819  0.06960  0.76659  1.0000
  H   H1539     1.0  0.45297  0.29846  0.87294  1.0000
  Fe  Fe196     1.0  0.43594  0.31037  0.92939  1.0000
  H   H1540     1.0  0.47347  0.30123  0.90088  1.0000
  H   H1541     1.0  0.43147  0.27003  0.91612  1.0000
  C   C963      1.0  0.44163  0.04564  0.76968  1.0000
  H   H1542     1.0  0.43243  0.07991  0.96927  1.0000
  C   C964      1.0  0.40979  0.17654  0.98215  1.0000
  H   H1543     1.0  0.47873  0.02768  0.89166  1.0000
  H   H1544     1.0  0.47029  0.09339  0.95515  1.0000
  Fe  Fe197     1.0  0.46117  0.20954  0.91836  1.0000
  H   H1545     1.0  0.42599  0.05651  0.79045  1.0000
  N   N96       1.0  0.41047  0.07551  0.91780  1.0000
  C   C965      1.0  0.40238  0.06542  0.92064  1.0000
  C   C966      1.0  0.42385  0.06872  0.92050  1.0000
  H   H1546     1.0  0.48168  0.05112  0.88273  1.0000
  C   C967      1.0  0.45656  0.18686  0.89397  1.0000
  H   H1547     1.0  0.46625  0.99809  0.80537  1.0000
  H   H1548     1.0  0.45342  0.10194  0.95417  1.0000
  S   S390      1.0  0.44146  0.99370  0.74022  1.0000
  H   H1549     1.0  0.47508  0.14483  0.91603  1.0000
  C   C968      1.0  0.45043  0.31109  0.89245  1.0000
  C   C969      1.0  0.46106  0.16365  0.89259  1.0000
  H   H1550     1.0  0.46833  0.12764  0.90941  1.0000
  S   S391      1.0  0.43058  0.31359  0.95037  1.0000
  H   H1551     1.0  0.43196  0.16200  0.96897  1.0000
  H   H1552     1.0  0.46740  0.26250  0.94413  1.0000
  H   H1553     1.0  0.42965  0.99236  0.84111  1.0000
  H   H1554     1.0  0.45251  0.11281  0.97247  1.0000
  H   H1555     1.0  0.44368  0.31213  0.98469  1.0000
  C   C970      1.0  0.48780  0.09679  0.85246  1.0000
  H   H1556     1.0  0.48419  0.22685  0.94483  1.0000
  H   H1557     1.0  0.48297  0.01654  0.88035  1.0000
  H   H1558     1.0  0.48057  0.11272  0.87014  1.0000
  C   C971      1.0  0.47767  0.25973  0.94597  1.0000
  C   C972      1.0  0.48990  0.15161  0.97681  1.0000
  C   C973      1.0  0.46615  0.98935  0.67662  1.0000
  H   H1559     1.0  0.48439  0.26323  0.93625  1.0000
  H   H1560     1.0  0.45559  0.99395  0.68077  1.0000
  C   C974      1.0  0.48835  0.23442  0.89177  1.0000
  H   H1561     1.0  0.48464  0.31401  0.92829  1.0000
  H   H1562     1.0  0.45250  0.32095  0.88631  1.0000
  H   H1563     1.0  0.40156  0.98979  0.67397  1.0000
  C   C975      1.0  0.48530  0.08528  0.80598  1.0000
  C   C976      1.0  0.48871  0.99259  0.66754  1.0000
  H   H1564     1.0  0.48650  0.16460  0.89043  1.0000
  C   C977      1.0  0.47891  0.31964  0.95600  1.0000
  H   H1565     1.0  0.48723  0.08822  0.87892  1.0000
  H   H1566     1.0  0.48726  0.10679  0.95215  1.0000
  H   H1567     1.0  0.48724  0.10447  0.84292  1.0000
  H   H1568     1.0  0.44059  0.98937  0.82557  1.0000
  H   H1569     1.0  0.48827  0.01535  0.80994  1.0000
  C   C978      1.0  0.48834  0.05755  0.81620  1.0000
  N   N97       1.0  0.48825  0.03567  0.87138  1.0000
  C   C979      1.0  0.48880  0.04226  0.73695  1.0000
  H   H1570     1.0  0.48963  0.04685  0.82011  1.0000
  H   H1571     1.0  0.48953  0.98853  0.65869  1.0000
  H   H1572     1.0  0.48955  0.05639  0.86538  1.0000
  C   C980      1.0  0.48901  0.03451  0.85762  1.0000
  S   S392      1.0  0.48909  0.26494  0.90713  1.0000
  S   S393      1.0  0.48895  0.18037  0.94984  1.0000
  H   H1573     1.0  0.48988  0.19164  0.90757  1.0000
  N   N98       1.0  0.40441  0.44742  0.03691  1.0000
  C   C981      1.0  0.31814  0.52283  0.03189  1.0000
  C   C982      1.0  0.29867  0.46031  0.98675  1.0000
  Fe  Fe198     1.0  0.44258  0.63321  0.00362  1.0000
  H   H1574     1.0  0.41947  0.44354  0.04817  1.0000
  Fe  Fe199     1.0  0.47265  0.62333  0.99948  1.0000
  S   S394      1.0  0.47100  0.60595  0.01712  1.0000
  H   H1575     1.0  0.24009  0.46471  0.02227  1.0000
  H   H1576     1.0  0.43660  0.33190  0.00312  1.0000
  S   S395      1.0  0.43850  0.61693  0.02175  1.0000
  Fe  Fe200     1.0  0.37782  0.42593  0.99690  1.0000
  Fe  Fe201     1.0  0.45541  0.62119  0.02734  1.0000
  H   H1577     1.0  0.38890  0.46542  0.03702  1.0000
  Fe  Fe202     1.0  0.45431  0.60349  0.00958  1.0000
  S   S396      1.0  0.45324  0.58320  0.00751  1.0000
  H   H1578     1.0  0.37364  0.58138  0.99866  1.0000
  H   H1579     1.0  0.34676  0.36215  0.03257  1.0000
  Fe  Fe203     1.0  0.39628  0.52433  0.00807  1.0000
  S   S397      1.0  0.39034  0.52681  0.02939  1.0000
  S   S398      1.0  0.40777  0.50505  0.00159  1.0000
  S   S399      1.0  0.26121  0.41153  0.03023  1.0000
  S   S400      1.0  0.37068  0.55542  0.01876  1.0000
  C   C983      1.0  0.34497  0.38253  0.01104  1.0000
  Fe  Fe204     1.0  0.39225  0.54835  0.02042  1.0000
  S   S401      1.0  0.39891  0.56268  0.02828  1.0000
  Fe  Fe205     1.0  0.36961  0.53369  0.02551  1.0000
  S   S402      1.0  0.35326  0.52349  0.03908  1.0000
  S   S403      1.0  0.40028  0.54509  0.99941  1.0000
  S   S404      1.0  0.37554  0.53039  0.00459  1.0000
  S   S405      1.0  0.45367  0.62257  0.04852  1.0000
  H   H1580     1.0  0.33496  0.38198  0.01778  1.0000
  N   N99       1.0  0.35571  0.37783  0.01860  1.0000
  S   S406      1.0  0.47868  0.34861  0.00748  1.0000
  C   C984      1.0  0.32961  0.51946  0.03723  1.0000
  C   C985      1.0  0.45625  0.65218  0.06409  1.0000
  H   H1581     1.0  0.30352  0.56734  0.00939  1.0000
  Fe  Fe206     1.0  0.45840  0.34389  0.01211  1.0000
  S   S407      1.0  0.44041  0.35814  0.00492  1.0000
  H   H1582     1.0  0.38837  0.61025  0.99581  1.0000
  H   H1583     1.0  0.30425  0.45924  0.03679  1.0000
  Fe  Fe207     1.0  0.37221  0.44700  0.01296  1.0000
  C   C986      1.0  0.30986  0.45284  0.04457  1.0000
  S   S408      1.0  0.36629  0.46817  0.01595  1.0000
  Fe  Fe208     1.0  0.38854  0.41887  0.02171  1.0000
  S   S409      1.0  0.37615  0.40912  0.01515  1.0000
  S   S410      1.0  0.40596  0.40735  0.03126  1.0000
  H   H1584     1.0  0.31094  0.51651  0.03561  1.0000
  C   C987      1.0  0.46377  0.64564  0.03896  1.0000
  Fe  Fe209     1.0  0.35836  0.42366  0.02385  1.0000
  S   S411      1.0  0.33888  0.41928  0.03726  1.0000
  S   S412      1.0  0.39134  0.43488  0.00288  1.0000
  S   S413      1.0  0.37058  0.43177  0.03241  1.0000
  Fe  Fe210     1.0  0.27909  0.41513  0.01377  1.0000
  S   S414      1.0  0.27671  0.52756  0.00446  1.0000
  S   S415      1.0  0.30010  0.40309  0.01252  1.0000
  H   H1585     1.0  0.30529  0.43353  0.99302  1.0000
  S   S416      1.0  0.26889  0.41781  0.99710  1.0000
  C   C988      1.0  0.32729  0.41674  0.02980  1.0000
  C   C989      1.0  0.33058  0.41616  0.01625  1.0000
  C   C990      1.0  0.32186  0.41238  0.01099  1.0000
  C   C991      1.0  0.30973  0.40962  0.01901  1.0000
  C   C992      1.0  0.30604  0.41102  0.03233  1.0000
  C   C993      1.0  0.31490  0.41443  0.03777  1.0000
  H   H1586     1.0  0.34008  0.41801  0.01000  1.0000
  H   H1587     1.0  0.32458  0.41112  0.00080  1.0000
  H   H1588     1.0  0.29664  0.40888  0.03862  1.0000
  H   H1589     1.0  0.31227  0.41490  0.04826  1.0000
  C   C994      1.0  0.43123  0.37180  0.01240  1.0000
  C   C995      1.0  0.43404  0.37386  0.02367  1.0000
  C   C996      1.0  0.42630  0.38482  0.02942  1.0000
  C   C997      1.0  0.41577  0.39375  0.02389  1.0000
  C   C998      1.0  0.41312  0.39175  0.01252  1.0000
  C   C999      1.0  0.42078  0.38080  0.00684  1.0000
  H   H1590     1.0  0.44208  0.36696  0.02804  1.0000
  H   H1591     1.0  0.42843  0.38630  0.03820  1.0000
  H   H1592     1.0  0.40521  0.39869  0.00801  1.0000
  H   H1593     1.0  0.34296  0.38549  0.03575  1.0000
  C   C1000     1.0  0.39694  0.49393  0.00624  1.0000
  C   C1001     1.0  0.25827  0.45463  0.06023  1.0000
  C   C1002     1.0  0.39060  0.47494  0.00302  1.0000
  C   C1003     1.0  0.37849  0.47758  0.01230  1.0000
  C   C1004     1.0  0.37576  0.48820  0.01868  1.0000
  C   C1005     1.0  0.38500  0.49625  0.01577  1.0000
  H   H1594     1.0  0.44922  0.63377  0.07140  1.0000
  H   H1595     1.0  0.25689  0.46913  0.00145  1.0000
  H   H1596     1.0  0.36648  0.49025  0.02597  1.0000
  H   H1597     1.0  0.38282  0.50428  0.02098  1.0000
  C   C1006     1.0  0.33890  0.52771  0.03253  1.0000
  H   H1598     1.0  0.28662  0.38874  0.00234  1.0000
  C   C1007     1.0  0.33668  0.53932  0.02257  1.0000
  C   C1008     1.0  0.39954  0.46167  0.03785  1.0000
  H   H1599     1.0  0.34370  0.54582  0.01913  1.0000
  C   C1009     1.0  0.43774  0.57822  0.01231  1.0000
  C   C1010     1.0  0.43691  0.56665  0.00895  1.0000
  C   C1011     1.0  0.42494  0.56199  0.01335  1.0000
  C   C1012     1.0  0.41380  0.56871  0.02142  1.0000
  C   C1013     1.0  0.41460  0.58037  0.02464  1.0000
  C   C1014     1.0  0.42643  0.58522  0.01996  1.0000
  C   C1015     1.0  0.25196  0.47997  0.99964  1.0000
  H   H1600     1.0  0.42447  0.55296  0.01086  1.0000
  H   H1601     1.0  0.40602  0.58566  0.03085  1.0000
  H   H1602     1.0  0.42686  0.59419  0.02253  1.0000
  H   H1603     1.0  0.34863  0.48976  0.98533  1.0000
  H   H1604     1.0  0.32567  0.46473  0.02256  1.0000
  C   C1016     1.0  0.35169  0.55407  0.98536  1.0000
  H   H1605     1.0  0.35251  0.55153  0.99571  1.0000
  C   C1017     1.0  0.27455  0.46723  0.03744  1.0000
  S   S417      1.0  0.26770  0.49936  0.02094  1.0000
  H   H1606     1.0  0.26564  0.46407  0.07134  1.0000
  H   H1607     1.0  0.33416  0.44787  0.02856  1.0000
  S   S418      1.0  0.45742  0.61967  0.99089  1.0000
  H   H1608     1.0  0.39269  0.46683  0.99792  1.0000
  H   H1609     1.0  0.36118  0.50944  0.00107  1.0000
  S   S419      1.0  0.46538  0.32714  0.00112  1.0000
  H   H1610     1.0  0.35261  0.39670  0.02390  1.0000
  H   H1611     1.0  0.26682  0.45824  0.02631  1.0000
  H   H1612     1.0  0.40728  0.43547  0.02261  1.0000
  H   H1613     1.0  0.42503  0.44874  0.03027  1.0000
  N   N100      1.0  0.44746  0.58275  0.05572  1.0000
  C   C1018     1.0  0.44762  0.57951  0.04301  1.0000
  C   C1019     1.0  0.44546  0.57106  0.06692  1.0000
  C   C1020     1.0  0.43644  0.59442  0.05820  1.0000
  C   C1021     1.0  0.46032  0.58601  0.05474  1.0000
  H   H1614     1.0  0.44899  0.58813  0.03436  1.0000
  H   H1615     1.0  0.43811  0.57691  0.04337  1.0000
  H   H1616     1.0  0.45590  0.57086  0.04065  1.0000
  H   H1617     1.0  0.44532  0.57315  0.07667  1.0000
  H   H1618     1.0  0.43582  0.56837  0.06794  1.0000
  H   H1619     1.0  0.45358  0.56206  0.06534  1.0000
  H   H1620     1.0  0.43774  0.60345  0.05001  1.0000
  H   H1621     1.0  0.43605  0.59719  0.06768  1.0000
  H   H1622     1.0  0.42657  0.59242  0.05884  1.0000
  H   H1623     1.0  0.46045  0.58885  0.06402  1.0000
  H   H1624     1.0  0.46220  0.59469  0.04629  1.0000
  H   H1625     1.0  0.46889  0.57741  0.05300  1.0000
  N   N101      1.0  0.32154  0.45797  0.04405  1.0000
  C   C1022     1.0  0.31593  0.53452  0.02194  1.0000
  C   C1023     1.0  0.41621  0.64355  0.99039  1.0000
  S   S420      1.0  0.29846  0.50250  0.01816  1.0000
  C   C1024     1.0  0.33067  0.45810  0.03070  1.0000
  H   H1626     1.0  0.39933  0.42836  0.04709  1.0000
  S   S421      1.0  0.46059  0.32984  0.03197  1.0000
  C   C1025     1.0  0.37863  0.58787  0.00131  1.0000
  S   S422      1.0  0.45808  0.63868  0.01010  1.0000
  Fe  Fe211     1.0  0.28462  0.50571  0.00468  1.0000
  H   H1627     1.0  0.44559  0.56117  0.00303  1.0000
  H   H1628     1.0  0.42236  0.43201  0.03757  1.0000
  C   C1026     1.0  0.45754  0.63709  0.05010  1.0000
  S   S423      1.0  0.27256  0.51934  0.03726  1.0000
  Fe  Fe212     1.0  0.37875  0.55125  0.99820  1.0000
  H   H1629     1.0  0.37107  0.37347  0.00132  1.0000
  H   H1630     1.0  0.31147  0.47864  0.03878  1.0000
  H   H1631     1.0  0.30085  0.45622  0.99694  1.0000
  H   H1632     1.0  0.31009  0.47204  0.05640  1.0000
  H   H1633     1.0  0.31289  0.44241  0.04293  1.0000
  S   S424      1.0  0.29134  0.49779  0.98592  1.0000
  H   H1634     1.0  0.40020  0.46315  0.04759  1.0000
  H   H1635     1.0  0.39310  0.44939  0.02243  1.0000
  H   H1636     1.0  0.33972  0.46172  0.03000  1.0000
  H   H1637     1.0  0.33126  0.51051  0.04504  1.0000
  H   H1638     1.0  0.39653  0.43975  0.05783  1.0000
  H   H1639     1.0  0.38538  0.44247  0.04697  1.0000
  H   H1640     1.0  0.32751  0.52225  0.99316  1.0000
  S   S425      1.0  0.24850  0.44315  0.04610  1.0000
  H   H1641     1.0  0.31537  0.58952  0.98697  1.0000
  C   C1027     1.0  0.39605  0.43915  0.04769  1.0000
  H   H1642     1.0  0.32358  0.55182  0.00977  1.0000
  Fe  Fe213     1.0  0.25043  0.41626  0.01351  1.0000
  C   C1028     1.0  0.40359  0.44608  0.02372  1.0000
  C   C1029     1.0  0.35637  0.36357  0.02540  1.0000
  H   H1643     1.0  0.26460  0.51293  0.99369  1.0000
  C   C1030     1.0  0.35409  0.49657  0.98679  1.0000
  H   H1644     1.0  0.40388  0.57413  0.99575  1.0000
  H   H1645     1.0  0.46732  0.64290  0.02938  1.0000
  H   H1646     1.0  0.36836  0.39004  0.00386  1.0000
  C   C1031     1.0  0.39564  0.60083  0.99384  1.0000
  H   H1647     1.0  0.41890  0.65157  0.04205  1.0000
  C   C1032     1.0  0.31038  0.37691  0.98899  1.0000
  H   H1648     1.0  0.33531  0.54438  0.98936  1.0000
  H   H1649     1.0  0.36060  0.38259  0.03484  1.0000
  H   H1650     1.0  0.41890  0.33447  0.00589  1.0000
  H   H1651     1.0  0.34665  0.37663  0.00333  1.0000
  Fe  Fe214     1.0  0.25643  0.43387  0.02812  1.0000
  H   H1652     1.0  0.34691  0.49341  0.01391  1.0000
  H   H1653     1.0  0.34447  0.39315  0.00562  1.0000
  C   C1033     1.0  0.45390  0.64036  0.06269  1.0000
  H   H1654     1.0  0.32558  0.47600  0.04602  1.0000
  N   N102      1.0  0.30235  0.57656  0.98883  1.0000
  S   S426      1.0  0.30177  0.53917  0.01495  1.0000
  C   C1034     1.0  0.41845  0.44274  0.03830  1.0000
  C   C1035     1.0  0.32521  0.54275  0.01736  1.0000
  H   H1655     1.0  0.33757  0.45265  0.05438  1.0000
  H   H1656     1.0  0.40967  0.45226  0.01530  1.0000
  C   C1036     1.0  0.40400  0.65146  0.98767  1.0000
  S   S427      1.0  0.27529  0.43702  0.01302  1.0000
  S   S428      1.0  0.28283  0.48011  0.05160  1.0000
  Fe  Fe215     1.0  0.28079  0.49808  0.03462  1.0000
  S   S429      1.0  0.24412  0.43836  0.01286  1.0000
  Fe  Fe216     1.0  0.28920  0.52395  0.01943  1.0000
  H   H1657     1.0  0.40541  0.46827  0.02964  1.0000
  H   H1658     1.0  0.43062  0.62500  0.98873  1.0000
  C   C1037     1.0  0.42704  0.65371  0.03311  1.0000
  C   C1038     1.0  0.39967  0.58010  0.98685  1.0000
  H   H1659     1.0  0.41860  0.37934  0.99806  1.0000
  C   C1039     1.0  0.27403  0.46913  0.05011  1.0000
  Fe  Fe217     1.0  0.26348  0.43948  0.99783  1.0000
  H   H1660     1.0  0.30265  0.45275  0.05446  1.0000
  C   C1040     1.0  0.31703  0.47176  0.04640  1.0000
  H   H1661     1.0  0.35847  0.35718  0.01803  1.0000
  Fe  Fe218     1.0  0.26079  0.52095  0.02211  1.0000
  Fe  Fe219     1.0  0.48165  0.33302  0.02637  1.0000
  H   H1662     1.0  0.29373  0.56037  0.98919  1.0000
  H   H1663     1.0  0.33205  0.43866  0.05318  1.0000
  C   C1041     1.0  0.25860  0.45291  0.04754  1.0000
  H   H1664     1.0  0.37698  0.37607  0.01452  1.0000
  C   C1042     1.0  0.26608  0.46261  0.06153  1.0000
  C   C1043     1.0  0.36861  0.37937  0.00919  1.0000
  C   C1044     1.0  0.26677  0.45921  0.03615  1.0000
  H   H1665     1.0  0.24109  0.47997  0.02557  1.0000
  H   H1666     1.0  0.36439  0.35971  0.03120  1.0000
  H   H1667     1.0  0.25192  0.44980  0.06906  1.0000
  S   S430      1.0  0.35885  0.43968  0.00500  1.0000
  C   C1045     1.0  0.39986  0.48310  0.00002  1.0000
  C   C1046     1.0  0.32861  0.44918  0.05457  1.0000
  H   H1668     1.0  0.25722  0.48512  0.00367  1.0000
  H   H1669     1.0  0.32198  0.44892  0.06477  1.0000
  C   C1047     1.0  0.35285  0.38595  0.02874  1.0000
  H   H1670     1.0  0.28090  0.47200  0.02861  1.0000
  C   C1048     1.0  0.42143  0.63135  0.98630  1.0000
  C   C1049     1.0  0.29699  0.57547  0.00344  1.0000
  C   C1050     1.0  0.33912  0.49918  0.00812  1.0000
  H   H1671     1.0  0.29608  0.58496  0.00644  1.0000
  H   H1672     1.0  0.38253  0.58208  0.01043  1.0000
  C   C1051     1.0  0.42854  0.32866  0.00097  1.0000
  H   H1673     1.0  0.28497  0.37403  0.99840  1.0000
  H   H1674     1.0  0.43665  0.64795  0.03589  1.0000
  C   C1052     1.0  0.35277  0.51528  0.99614  1.0000
  S   S431      1.0  0.42526  0.64928  0.99820  1.0000
  H   H1675     1.0  0.40910  0.48125  0.99264  1.0000
  H   H1676     1.0  0.30141  0.40330  0.98564  1.0000
  H   H1677     1.0  0.36224  0.49014  0.99185  1.0000
  H   H1678     1.0  0.37084  0.59669  0.00408  1.0000
  N   N103      1.0  0.38943  0.59207  0.99003  1.0000
  N   N104      1.0  0.34508  0.50638  0.99467  1.0000
  H   H1679     1.0  0.33367  0.49200  0.00741  1.0000
  H   H1680     1.0  0.28696  0.57295  0.00667  1.0000
  H   H1681     1.0  0.25362  0.48388  0.98856  1.0000
  H   H1682     1.0  0.34638  0.52248  0.00247  1.0000
  H   H1683     1.0  0.42583  0.64965  0.02504  1.0000
  H   H1684     1.0  0.28773  0.46156  0.98789  1.0000
  H   H1685     1.0  0.40406  0.60383  0.98566  1.0000
  Fe  Fe220     1.0  0.48572  0.33087  0.99785  1.0000
  H   H1686     1.0  0.33193  0.50630  0.01412  1.0000
  H   H1687     1.0  0.39967  0.59566  0.00301  1.0000
  H   H1688     1.0  0.32396  0.44563  0.98584  1.0000
  C   C1053     1.0  0.33433  0.51451  0.98766  1.0000
  C   C1054     1.0  0.28637  0.38447  0.99399  1.0000
  H   H1689     1.0  0.27732  0.39036  0.99006  1.0000
  H   H1690     1.0  0.31101  0.55554  0.98983  1.0000
  H   H1691     1.0  0.35701  0.52127  0.98622  1.0000
  H   H1692     1.0  0.32269  0.57193  0.99092  1.0000
  H   H1693     1.0  0.48626  0.63189  0.01394  1.0000
  H   H1694     1.0  0.30950  0.36634  0.99357  1.0000
  N   N105      1.0  0.42967  0.33094  0.98635  1.0000
  H   H1695     1.0  0.40874  0.33244  0.98833  1.0000
  H   H1696     1.0  0.32815  0.50815  0.98662  1.0000
  C   C1055     1.0  0.30335  0.56373  0.98538  1.0000
  H   H1697     1.0  0.31151  0.38127  0.99691  1.0000
  C   C1056     1.0  0.31577  0.57963  0.98506  1.0000
  C   C1057     1.0  0.26536  0.50952  0.98481  1.0000
  C   C1058     1.0  0.30317  0.45728  0.96411  1.0000
  S   S432      1.0  0.26663  0.51532  0.92649  1.0000
  S   S433      1.0  0.27590  0.55120  0.91441  1.0000
  N   N106      1.0  0.27634  0.45797  0.92981  1.0000
  S   S434      1.0  0.33466  0.39701  0.97753  1.0000
  C   C1059     1.0  0.41488  0.62745  0.97879  1.0000
  H   H1698     1.0  0.41918  0.35163  0.98443  1.0000
  H   H1699     1.0  0.42975  0.34745  0.96911  1.0000
  N   N107      1.0  0.30653  0.45145  0.97743  1.0000
  C   C1060     1.0  0.42239  0.62821  0.88025  1.0000
  H   H1700     1.0  0.35884  0.50163  0.97660  1.0000
  C   C1061     1.0  0.48059  0.34508  0.89971  1.0000
  H   H1701     1.0  0.44368  0.32442  0.96926  1.0000
  H   H1702     1.0  0.28366  0.54488  0.96992  1.0000
  H   H1703     1.0  0.41497  0.51113  0.95216  1.0000
  H   H1704     1.0  0.42996  0.65149  0.94832  1.0000
  H   H1705     1.0  0.27703  0.46225  0.90862  1.0000
  H   H1706     1.0  0.40025  0.63829  0.87032  1.0000
  C   C1062     1.0  0.24041  0.47637  0.90720  1.0000
  Fe  Fe221     1.0  0.34807  0.52967  0.92090  1.0000
  S   S435      1.0  0.33802  0.52070  0.94170  1.0000
  S   S436      1.0  0.33855  0.53022  0.90433  1.0000
  Fe  Fe222     1.0  0.37107  0.53358  0.93005  1.0000
  S   S437      1.0  0.36292  0.52437  0.95153  1.0000
  S   S438      1.0  0.39109  0.53926  0.92572  1.0000
  Fe  Fe223     1.0  0.35856  0.50895  0.94367  1.0000
  S   S439      1.0  0.36183  0.48705  0.95422  1.0000
  Fe  Fe224     1.0  0.34324  0.53686  0.94745  1.0000
  S   S440      1.0  0.32990  0.54696  0.96372  1.0000
  S   S441      1.0  0.36850  0.51684  0.92243  1.0000
  S   S442      1.0  0.35148  0.54720  0.92648  1.0000
  C   C1063     1.0  0.45562  0.65280  0.96049  1.0000
  C   C1064     1.0  0.48147  0.58950  0.97588  1.0000
  H   H1707     1.0  0.47664  0.59109  0.96736  1.0000
  H   H1708     1.0  0.29968  0.53427  0.97206  1.0000
  Fe  Fe225     1.0  0.42854  0.33564  0.94063  1.0000
  S   S443      1.0  0.41170  0.35007  0.95136  1.0000
  H   H1709     1.0  0.32364  0.46026  0.97226  1.0000
  Fe  Fe226     1.0  0.32364  0.41349  0.93125  1.0000
  S   S444      1.0  0.33946  0.42496  0.91925  1.0000
  S   S445      1.0  0.30770  0.41386  0.92100  1.0000
  Fe  Fe227     1.0  0.33408  0.40684  0.95624  1.0000
  S   S446      1.0  0.35023  0.41827  0.94657  1.0000
  C   C1065     1.0  0.46874  0.38339  0.96141  1.0000
  Fe  Fe228     1.0  0.33469  0.43389  0.93724  1.0000
  S   S447      1.0  0.33037  0.45629  0.93476  1.0000
  Fe  Fe229     1.0  0.35368  0.40808  0.92975  1.0000
  S   S448      1.0  0.37501  0.39999  0.91958  1.0000
  S   S449      1.0  0.31802  0.42348  0.94863  1.0000
  S   S450      1.0  0.33830  0.39564  0.94002  1.0000
  H   H1710     1.0  0.30691  0.37962  0.96403  1.0000
  H   H1711     1.0  0.30636  0.52005  0.94220  1.0000
  C   C1066     1.0  0.27355  0.44724  0.94184  1.0000
  C   C1067     1.0  0.26658  0.47063  0.93167  1.0000
  C   C1068     1.0  0.36042  0.56126  0.97550  1.0000
  C   C1069     1.0  0.37194  0.40017  0.97548  1.0000
  C   C1070     1.0  0.36108  0.39486  0.97616  1.0000
  H   H1712     1.0  0.47759  0.34205  0.92119  1.0000
  S   S451      1.0  0.39390  0.63006  0.96762  1.0000
  C   C1071     1.0  0.29791  0.37917  0.97242  1.0000
  H   H1713     1.0  0.47529  0.32370  0.94686  1.0000
  C   C1072     1.0  0.38487  0.38586  0.92851  1.0000
  C   C1073     1.0  0.38120  0.38163  0.94248  1.0000
  C   C1074     1.0  0.38951  0.37067  0.94936  1.0000
  C   C1075     1.0  0.40142  0.36368  0.94231  1.0000
  C   C1076     1.0  0.40504  0.36787  0.92833  1.0000
  C   C1077     1.0  0.39686  0.37899  0.92149  1.0000
  H   H1714     1.0  0.37201  0.38686  0.94800  1.0000
  H   H1715     1.0  0.38664  0.36755  0.96017  1.0000
  H   H1716     1.0  0.41420  0.36263  0.92279  1.0000
  H   H1717     1.0  0.39978  0.38220  0.91069  1.0000
  H   H1718     1.0  0.31981  0.37676  0.98111  1.0000
  C   C1078     1.0  0.40599  0.57058  0.92561  1.0000
  H   H1719     1.0  0.26769  0.49788  0.95265  1.0000
  H   H1720     1.0  0.33851  0.51984  0.97736  1.0000
  Fe  Fe230     1.0  0.41965  0.63271  0.92017  1.0000
  C   C1079     1.0  0.40130  0.62880  0.89627  1.0000
  H   H1721     1.0  0.41925  0.61828  0.97518  1.0000
  C   C1080     1.0  0.29056  0.53514  0.96847  1.0000
  C   C1081     1.0  0.30278  0.52085  0.95291  1.0000
  C   C1082     1.0  0.48941  0.61585  0.92630  1.0000
  C   C1083     1.0  0.35379  0.47808  0.94843  1.0000
  C   C1084     1.0  0.35486  0.46420  0.95347  1.0000
  C   C1085     1.0  0.34809  0.45718  0.94906  1.0000
  C   C1086     1.0  0.34001  0.46415  0.93984  1.0000
  C   C1087     1.0  0.33905  0.47795  0.93480  1.0000
  C   C1088     1.0  0.34606  0.48484  0.93891  1.0000
  H   H1722     1.0  0.36089  0.45889  0.96080  1.0000
  H   H1723     1.0  0.34893  0.44651  0.95299  1.0000
  H   H1724     1.0  0.33293  0.48336  0.92757  1.0000
  H   H1725     1.0  0.34545  0.49541  0.93465  1.0000
  H   H1726     1.0  0.42920  0.62427  0.87151  1.0000
  C   C1089     1.0  0.34976  0.56038  0.95851  1.0000
  C   C1090     1.0  0.35934  0.56457  0.96210  1.0000
  C   C1091     1.0  0.48819  0.35023  0.88723  1.0000
  H   H1727     1.0  0.37897  0.59311  0.97501  1.0000
  H   H1728     1.0  0.38204  0.39429  0.97326  1.0000
  H   H1729     1.0  0.34923  0.56264  0.94806  1.0000
  H   H1730     1.0  0.36617  0.57003  0.95443  1.0000
  Fe  Fe231     1.0  0.40783  0.62272  0.94979  1.0000
  H   H1731     1.0  0.43694  0.34898  0.98191  1.0000
  H   H1732     1.0  0.47430  0.35013  0.97595  1.0000
  Fe  Fe232     1.0  0.41044  0.60609  0.92965  1.0000
  C   C1092     1.0  0.38115  0.56624  0.92594  1.0000
  C   C1093     1.0  0.39225  0.55549  0.92593  1.0000
  C   C1094     1.0  0.40466  0.55770  0.92582  1.0000
  S   S452      1.0  0.45601  0.60072  0.94044  1.0000
  H   H1733     1.0  0.28267  0.44485  0.91596  1.0000
  H   H1734     1.0  0.37156  0.56468  0.92601  1.0000
  H   H1735     1.0  0.41334  0.54949  0.92564  1.0000
  S   S453      1.0  0.45004  0.33552  0.93920  1.0000
  C   C1095     1.0  0.24705  0.48600  0.90728  1.0000
  H   H1736     1.0  0.48522  0.61445  0.97069  1.0000
  C   C1096     1.0  0.35670  0.42077  0.98028  1.0000
  H   H1737     1.0  0.42982  0.65332  0.96463  1.0000
  H   H1738     1.0  0.41988  0.60358  0.88062  1.0000
  S   S454      1.0  0.40011  0.62732  0.93125  1.0000
  C   C1097     1.0  0.46343  0.62285  0.92188  1.0000
  C   C1098     1.0  0.47252  0.63112  0.91486  1.0000
  H   H1739     1.0  0.30032  0.53900  0.88559  1.0000
  C   C1099     1.0  0.26705  0.50124  0.96155  1.0000
  H   H1740     1.0  0.40911  0.62300  0.86485  1.0000
  H   H1741     1.0  0.46131  0.38695  0.97010  1.0000
  S   S455      1.0  0.42151  0.64951  0.90186  1.0000
  C   C1100     1.0  0.45628  0.65118  0.93800  1.0000
  H   H1742     1.0  0.26345  0.44529  0.94345  1.0000
  C   C1101     1.0  0.48036  0.60749  0.93316  1.0000
  H   H1743     1.0  0.28315  0.58526  0.98387  1.0000
  S   S456      1.0  0.25344  0.53598  0.90161  1.0000
  H   H1744     1.0  0.42798  0.62530  0.88841  1.0000
  C   C1102     1.0  0.30015  0.39890  0.97785  1.0000
  C   C1103     1.0  0.40287  0.62716  0.87369  1.0000
  C   C1104     1.0  0.26507  0.41391  0.94566  1.0000
  C   C1105     1.0  0.27575  0.40968  0.95217  1.0000
  C   C1106     1.0  0.28891  0.40966  0.94469  1.0000
  C   C1107     1.0  0.29141  0.41366  0.93067  1.0000
  C   C1108     1.0  0.28071  0.41779  0.92419  1.0000
  C   C1109     1.0  0.26755  0.41814  0.93167  1.0000
  H   H1745     1.0  0.27373  0.40658  0.96300  1.0000
  H   H1746     1.0  0.29717  0.40645  0.94965  1.0000
  H   H1747     1.0  0.28260  0.42080  0.91333  1.0000
  H   H1748     1.0  0.25936  0.42137  0.92657  1.0000
  C   C1110     1.0  0.29324  0.54496  0.91214  1.0000
  C   C1111     1.0  0.29888  0.53117  0.91413  1.0000
  C   C1112     1.0  0.31283  0.52659  0.91203  1.0000
  C   C1113     1.0  0.32113  0.53579  0.90814  1.0000
  C   C1114     1.0  0.31545  0.54953  0.90639  1.0000
  C   C1115     1.0  0.30155  0.55410  0.90836  1.0000
  H   H1749     1.0  0.29252  0.52406  0.91721  1.0000
  H   H1750     1.0  0.31724  0.51595  0.91335  1.0000
  H   H1751     1.0  0.32183  0.55667  0.90323  1.0000
  H   H1752     1.0  0.29723  0.56478  0.90682  1.0000
  H   H1753     1.0  0.29245  0.46785  0.91889  1.0000
  C   C1116     1.0  0.25417  0.51291  0.97921  1.0000
  C   C1117     1.0  0.41868  0.32665  0.98397  1.0000
  H   H1754     1.0  0.46946  0.64020  0.90768  1.0000
  H   H1755     1.0  0.31014  0.54414  0.94895  1.0000
  C   C1118     1.0  0.34595  0.41566  0.98046  1.0000
  Fe  Fe233     1.0  0.25647  0.51399  0.91121  1.0000
  S   S457      1.0  0.46814  0.33706  0.89990  1.0000
  H   H1756     1.0  0.29762  0.51254  0.95835  1.0000
  H   H1757     1.0  0.39341  0.62352  0.87687  1.0000
  C   C1119     1.0  0.38257  0.57917  0.92534  1.0000
  S   S458      1.0  0.41689  0.60108  0.94929  1.0000
  H   H1758     1.0  0.29127  0.46259  0.93672  1.0000
  S   S459      1.0  0.43219  0.33240  0.91974  1.0000
  N   N108      1.0  0.40997  0.62311  0.88478  1.0000
  Fe  Fe234     1.0  0.43514  0.60903  0.93686  1.0000
  H   H1759     1.0  0.27568  0.52788  0.95663  1.0000
  H   H1760     1.0  0.48603  0.34961  0.87809  1.0000
  H   H1761     1.0  0.46707  0.64613  0.93638  1.0000
  H   H1762     1.0  0.33602  0.42195  0.98162  1.0000
  C   C1120     1.0  0.38990  0.53723  0.96075  1.0000
  H   H1763     1.0  0.28555  0.52702  0.97514  1.0000
  S   S460      1.0  0.42966  0.61188  0.91718  1.0000
  C   C1121     1.0  0.24514  0.46895  0.89717  1.0000
  N   N109      1.0  0.29390  0.53406  0.95429  1.0000
  C   C1122     1.0  0.25849  0.48817  0.89738  1.0000
  H   H1764     1.0  0.25564  0.48095  0.96350  1.0000
  H   H1765     1.0  0.36280  0.38499  0.97420  1.0000
  C   C1123     1.0  0.39306  0.51395  0.97252  1.0000
  H   H1766     1.0  0.28748  0.49170  0.96268  1.0000
  H   H1767     1.0  0.39852  0.63997  0.89356  1.0000
  H   H1768     1.0  0.45119  0.32613  0.98160  1.0000
  S   S461      1.0  0.42637  0.63028  0.93892  1.0000
  H   H1769     1.0  0.45052  0.65066  0.97133  1.0000
  H   H1770     1.0  0.26516  0.45252  0.91893  1.0000
  H   H1771     1.0  0.25614  0.46956  0.93326  1.0000
  H   H1772     1.0  0.30851  0.45059  0.95698  1.0000
  C   C1124     1.0  0.30083  0.54479  0.94581  1.0000
  H   H1773     1.0  0.30085  0.47052  0.98305  1.0000
  C   C1125     1.0  0.40691  0.52029  0.95062  1.0000
  N   N110      1.0  0.47706  0.37001  0.96579  1.0000
  C   C1126     1.0  0.40964  0.52657  0.96965  1.0000
  C   C1127     1.0  0.34189  0.55016  0.98180  1.0000
  C   C1128     1.0  0.48438  0.37075  0.97539  1.0000
  C   C1129     1.0  0.32094  0.45026  0.97606  1.0000
  H   H1774     1.0  0.41564  0.57223  0.92525  1.0000
  H   H1775     1.0  0.30631  0.56452  0.97433  1.0000
  H   H1776     1.0  0.39993  0.51798  0.94597  1.0000
  H   H1777     1.0  0.29435  0.55494  0.94627  1.0000
  C   C1130     1.0  0.25493  0.50861  0.96770  1.0000
  H   H1778     1.0  0.27207  0.48238  0.87965  1.0000
  H   H1779     1.0  0.38270  0.53635  0.95544  1.0000
  S   S462      1.0  0.24869  0.41383  0.95512  1.0000
  H   H1780     1.0  0.26831  0.47895  0.92275  1.0000
  C   C1131     1.0  0.46732  0.61103  0.93110  1.0000
  N   N111      1.0  0.44946  0.64811  0.95231  1.0000
  H   H1781     1.0  0.45347  0.62558  0.92003  1.0000
  S   S463      1.0  0.26751  0.49949  0.89779  1.0000
  H   H1782     1.0  0.38783  0.51665  0.98234  1.0000
  N   N112      1.0  0.38578  0.43012  0.93045  1.0000
  C   C1132     1.0  0.37417  0.43557  0.92405  1.0000
  C   C1133     1.0  0.39729  0.42381  0.92104  1.0000
  C   C1134     1.0  0.38251  0.41993  0.94283  1.0000
  C   C1135     1.0  0.38912  0.44113  0.93392  1.0000
  H   H1783     1.0  0.37135  0.42753  0.92130  1.0000
  H   H1784     1.0  0.37630  0.44329  0.91467  1.0000
  H   H1785     1.0  0.36525  0.44038  0.93084  1.0000
  H   H1786     1.0  0.40621  0.41950  0.92556  1.0000
  H   H1787     1.0  0.39497  0.41543  0.91832  1.0000
  H   H1788     1.0  0.40006  0.43116  0.91154  1.0000
  H   H1789     1.0  0.37387  0.42433  0.95015  1.0000
  H   H1790     1.0  0.39101  0.41566  0.94798  1.0000
  H   H1791     1.0  0.37999  0.41138  0.94065  1.0000
  H   H1792     1.0  0.39773  0.43736  0.93893  1.0000
  H   H1793     1.0  0.38055  0.44606  0.94100  1.0000
  H   H1794     1.0  0.39169  0.44904  0.92484  1.0000
  H   H1795     1.0  0.24557  0.44253  0.98095  1.0000
  H   H1796     1.0  0.26724  0.47384  0.94052  1.0000
  H   H1797     1.0  0.31168  0.51899  0.95718  1.0000
  H   H1798     1.0  0.27395  0.44988  0.95112  1.0000
  C   C1136     1.0  0.36969  0.41307  0.97770  1.0000
  H   H1799     1.0  0.28904  0.38475  0.96810  1.0000
  H   H1800     1.0  0.44508  0.63074  0.96738  1.0000
  H   H1801     1.0  0.28266  0.54009  0.88920  1.0000
  H   H1802     1.0  0.44693  0.62933  0.95058  1.0000
  H   H1803     1.0  0.48851  0.60961  0.95503  1.0000
  H   H1804     1.0  0.38408  0.54039  0.97024  1.0000
  C   C1137     1.0  0.26319  0.48078  0.88731  1.0000
  C   C1138     1.0  0.45076  0.63342  0.95692  1.0000
  S   S464      1.0  0.38301  0.41967  0.97735  1.0000
  H   H1805     1.0  0.30986  0.51199  0.86676  1.0000
  H   H1806     1.0  0.26018  0.46550  0.87940  1.0000
  H   H1807     1.0  0.29131  0.54611  0.87239  1.0000
  Fe  Fe235     1.0  0.26206  0.53741  0.91795  1.0000
  C   C1139     1.0  0.30761  0.52208  0.86907  1.0000
  H   H1808     1.0  0.31600  0.52253  0.87313  1.0000
  H   H1809     1.0  0.39471  0.54558  0.95431  1.0000
  H   H1810     1.0  0.32041  0.57980  0.97423  1.0000
  H   H1811     1.0  0.35500  0.43088  0.98162  1.0000
  H   H1812     1.0  0.30762  0.52969  0.85943  1.0000
  C   C1140     1.0  0.24906  0.47434  0.96521  1.0000
  H   H1813     1.0  0.29764  0.45041  0.92638  1.0000
  C   C1141     1.0  0.48702  0.32616  0.95912  1.0000
  C   C1142     1.0  0.42887  0.34538  0.98017  1.0000
  C   C1143     1.0  0.39702  0.64715  0.98089  1.0000
  H   H1814     1.0  0.29126  0.40540  0.97403  1.0000
  H   H1815     1.0  0.39198  0.62488  0.90033  1.0000
  H   H1816     1.0  0.48165  0.36448  0.94670  1.0000
  H   H1817     1.0  0.29269  0.43848  0.98337  1.0000
  C   C1144     1.0  0.34099  0.55325  0.96838  1.0000
  C   C1145     1.0  0.25645  0.47127  0.88713  1.0000
  C   C1146     1.0  0.48674  0.36560  0.95400  1.0000
  H   H1818     1.0  0.41499  0.53444  0.96298  1.0000
  H   H1819     1.0  0.40033  0.50424  0.97468  1.0000
  H   H1820     1.0  0.30604  0.46714  0.95953  1.0000
  H   H1821     1.0  0.28091  0.43764  0.94089  1.0000
  H   H1822     1.0  0.28572  0.51608  0.89902  1.0000
  H   H1823     1.0  0.39167  0.60267  0.96936  1.0000
  S   S465      1.0  0.37317  0.56551  0.97972  1.0000
  C   C1147     1.0  0.48549  0.62770  0.91711  1.0000
  H   H1824     1.0  0.40812  0.58295  0.97857  1.0000
  H   H1825     1.0  0.28361  0.53393  0.93962  1.0000
  C   C1148     1.0  0.41326  0.60829  0.88897  1.0000
  Fe  Fe236     1.0  0.45385  0.33046  0.91914  1.0000
  H   H1826     1.0  0.24343  0.49151  0.91517  1.0000
  H   H1827     1.0  0.29649  0.50401  0.88970  1.0000
  C   C1149     1.0  0.40256  0.63525  0.97627  1.0000
  C   C1150     1.0  0.28147  0.53543  0.95000  1.0000
  H   H1828     1.0  0.38555  0.51223  0.96811  1.0000
  H   H1829     1.0  0.41722  0.51715  0.97201  1.0000
  N   N113      1.0  0.39987  0.52451  0.96338  1.0000
  C   C1151     1.0  0.27525  0.45423  0.91782  1.0000
  N   N114      1.0  0.29869  0.38486  0.98331  1.0000
  C   C1152     1.0  0.39497  0.58142  0.92515  1.0000
  C   C1153     1.0  0.25193  0.46128  0.97283  1.0000
  H   H1830     1.0  0.27481  0.54555  0.95015  1.0000
  H   H1831     1.0  0.29714  0.58862  0.97033  1.0000
  S   S466      1.0  0.26624  0.45588  0.97946  1.0000
  H   H1832     1.0  0.30377  0.54406  0.93510  1.0000
  H   H1833     1.0  0.37401  0.58751  0.92490  1.0000
  S   S467      1.0  0.39649  0.59815  0.92266  1.0000
  H   H1834     1.0  0.30354  0.51409  0.89572  1.0000
  C   C1154     1.0  0.24334  0.45271  0.97515  1.0000
  C   C1155     1.0  0.27822  0.49765  0.96728  1.0000
  C   C1156     1.0  0.29002  0.45980  0.92788  1.0000
  N   N115      1.0  0.29469  0.52456  0.87875  1.0000
  C   C1157     1.0  0.28385  0.52388  0.87301  1.0000
  C   C1158     1.0  0.29517  0.51424  0.89135  1.0000
  C   C1159     1.0  0.29214  0.53802  0.88159  1.0000
  H   H1835     1.0  0.27397  0.52568  0.88008  1.0000
  H   H1836     1.0  0.28533  0.51378  0.87096  1.0000
  H   H1837     1.0  0.28316  0.53149  0.86346  1.0000
  H   H1838     1.0  0.40653  0.62610  0.90460  1.0000
  H   H1839     1.0  0.47498  0.39098  0.95645  1.0000
  C   C1160     1.0  0.34806  0.40261  0.97876  1.0000
  H   H1840     1.0  0.41843  0.60489  0.89749  1.0000
  C   C1161     1.0  0.38380  0.59944  0.97811  1.0000
  H   H1841     1.0  0.42023  0.63939  0.87736  1.0000
  H   H1842     1.0  0.46275  0.35940  0.96546  1.0000
  H   H1843     1.0  0.46138  0.62804  0.95645  1.0000
  H   H1844     1.0  0.48264  0.57871  0.98104  1.0000
  H   H1845     1.0  0.48345  0.59821  0.94003  1.0000
  H   H1846     1.0  0.46312  0.38320  0.95411  1.0000
  C   C1162     1.0  0.44261  0.32308  0.98024  1.0000
  H   H1847     1.0  0.41149  0.52834  0.94315  1.0000
  H   H1848     1.0  0.32710  0.44397  0.96876  1.0000
  C   C1163     1.0  0.46838  0.36030  0.97241  1.0000
  Fe  Fe237     1.0  0.24585  0.51893  0.93913  1.0000
  C   C1164     1.0  0.27735  0.50179  0.97894  1.0000
  H   H1849     1.0  0.38751  0.65323  0.97890  1.0000
  H   H1850     1.0  0.30955  0.43088  0.97627  1.0000
  H   H1851     1.0  0.40409  0.60412  0.89255  1.0000
  H   H1852     1.0  0.41922  0.32829  0.97303  1.0000
  H   H1853     1.0  0.40462  0.52976  0.97928  1.0000
  H   H1854     1.0  0.29228  0.45890  0.96479  1.0000
  C   C1165     1.0  0.29329  0.58740  0.98140  1.0000
  H   H1855     1.0  0.46641  0.64793  0.95961  1.0000
  S   S468      1.0  0.24207  0.54117  0.93189  1.0000
  H   H1856     1.0  0.30912  0.39954  0.96949  1.0000
  H   H1857     1.0  0.46098  0.36334  0.98136  1.0000
  H   H1858     1.0  0.47744  0.37365  0.98461  1.0000
  S   S469      1.0  0.24057  0.51202  0.96145  1.0000
  H   H1859     1.0  0.29712  0.36848  0.97612  1.0000
  H   H1860     1.0  0.45170  0.64780  0.93166  1.0000
  C   C1166     1.0  0.30338  0.43800  0.98274  1.0000
  C   C1167     1.0  0.48346  0.34596  0.91151  1.0000
  H   H1861     1.0  0.37622  0.60869  0.98003  1.0000
  H   H1862     1.0  0.24493  0.51896  0.98378  1.0000
  H   H1863     1.0  0.47435  0.59527  0.98321  1.0000
  H   H1864     1.0  0.29215  0.59722  0.98388  1.0000
  H   H1865     1.0  0.39543  0.57345  0.98356  1.0000
  H   H1866     1.0  0.48951  0.33529  0.95244  1.0000
  H   H1867     1.0  0.38740  0.90012  0.24041  1.0000
  Fe  Fe238     1.0  0.42700  0.84631  0.00907  1.0000
  S   S470      1.0  0.41753  0.83660  0.02992  1.0000
  C   C1168     1.0  0.46476  0.79400  0.00519  1.0000
  Fe  Fe239     1.0  0.45476  0.83105  0.01185  1.0000
  S   S471      1.0  0.44783  0.81946  0.03267  1.0000
  C   C1169     1.0  0.46833  0.84345  0.03777  1.0000
  Fe  Fe240     1.0  0.43119  0.81752  0.02483  1.0000
  S   S472      1.0  0.42298  0.79987  0.02571  1.0000
  Fe  Fe241     1.0  0.43487  0.83957  0.03613  1.0000
  S   S473      1.0  0.43407  0.84504  0.05567  1.0000
  S   S474      1.0  0.43955  0.82714  0.00370  1.0000
  S   S475      1.0  0.44292  0.85120  0.01568  1.0000
  Fe  Fe242     1.0  0.44682  0.90524  0.07739  1.0000
  S   S476      1.0  0.46557  0.91178  0.07567  1.0000
  S   S477      1.0  0.44376  0.90043  0.05903  1.0000
  Fe  Fe243     1.0  0.43644  0.90832  0.10635  1.0000
  S   S478      1.0  0.45443  0.91466  0.10711  1.0000
  S   S479      1.0  0.41828  0.90641  0.12318  1.0000
  Fe  Fe244     1.0  0.45271  0.92761  0.08681  1.0000
  S   S480      1.0  0.45792  0.94800  0.08051  1.0000
  Fe  Fe245     1.0  0.46582  0.89833  0.09597  1.0000
  H   H1868     1.0  0.47222  0.94080  0.11863  1.0000
  S   S481      1.0  0.43376  0.92250  0.08664  1.0000
  S   S482      1.0  0.44802  0.89063  0.09706  1.0000
  Fe  Fe246     1.0  0.42404  0.93050  0.18466  1.0000
  S   S483      1.0  0.43846  0.94379  0.17339  1.0000
  S   S484      1.0  0.40871  0.92485  0.17775  1.0000
  Fe  Fe247     1.0  0.43147  0.92593  0.21136  1.0000
  S   S485      1.0  0.44679  0.93848  0.20261  1.0000
  S   S486      1.0  0.42727  0.91447  0.23293  1.0000
  Fe  Fe248     1.0  0.43168  0.95282  0.19152  1.0000
  S   S487      1.0  0.42942  0.97482  0.18963  1.0000
  Fe  Fe249     1.0  0.45254  0.92856  0.18524  1.0000
  S   S488      1.0  0.41574  0.94120  0.20174  1.0000
  S   S489      1.0  0.43882  0.91441  0.19496  1.0000
  H   H1869     1.0  0.38427  0.90256  0.08792  1.0000
  H   H1870     1.0  0.45826  0.93347  0.14788  1.0000
  H   H1871     1.0  0.38582  0.92187  0.22375  1.0000
  Fe  Fe250     1.0  0.45826  0.72483  0.03142  1.0000
  S   S490      1.0  0.45674  0.72656  0.01036  1.0000
  S   S491      1.0  0.45970  0.74193  0.03926  1.0000
  Fe  Fe251     1.0  0.46121  0.69429  0.03859  1.0000
  S   S492      1.0  0.45976  0.69342  0.01827  1.0000
  S   S493      1.0  0.46459  0.67580  0.05497  1.0000
  C   C1170     1.0  0.46986  0.83008  0.05994  1.0000
  C   C1171     1.0  0.46589  0.93964  0.14509  1.0000
  Fe  Fe252     1.0  0.44343  0.71190  0.01992  1.0000
  S   S494      1.0  0.42420  0.71437  0.01398  1.0000
  H   H1872     1.0  0.48277  0.95712  0.09497  1.0000
  S   S495      1.0  0.44356  0.71154  0.04111  1.0000
  C   C1172     1.0  0.47689  0.91029  0.03915  1.0000
  H   H1873     1.0  0.43756  0.66802  0.04300  1.0000
  H   H1874     1.0  0.40527  0.67328  0.03293  1.0000
  H   H1875     1.0  0.39297  0.80526  0.00126  1.0000
  H   H1876     1.0  0.48493  0.91904  0.30281  1.0000
  H   H1877     1.0  0.46031  0.82710  0.06115  1.0000
  C   C1173     1.0  0.47933  0.78533  0.02086  1.0000
  C   C1174     1.0  0.41271  0.89844  0.21275  1.0000
  H   H1878     1.0  0.47616  0.77037  0.99782  1.0000
  H   H1879     1.0  0.48794  0.81231  0.04519  1.0000
  C   C1175     1.0  0.41537  0.70416  0.99810  1.0000
  H   H1880     1.0  0.39031  0.90448  0.20367  1.0000
  C   C1176     1.0  0.46687  0.92668  0.31601  1.0000
  C   C1177     1.0  0.38747  0.83881  0.99903  1.0000
  H   H1881     1.0  0.47792  0.91343  0.13099  1.0000
  C   C1178     1.0  0.44769  0.94354  0.26244  1.0000
  H   H1882     1.0  0.47272  0.90406  0.22531  1.0000
  H   H1883     1.0  0.42817  0.68426  0.03648  1.0000
  H   H1884     1.0  0.40908  0.95717  0.24730  1.0000
  C   C1179     1.0  0.38942  0.89971  0.21458  1.0000
  C   C1180     1.0  0.40104  0.98389  0.28711  1.0000
  H   H1885     1.0  0.47152  0.96862  0.12297  1.0000
  C   C1181     1.0  0.44817  0.98110  0.09591  1.0000
  H   H1886     1.0  0.41973  0.67201  0.04857  1.0000
  H   H1887     1.0  0.47107  0.78216  0.02918  1.0000
  C   C1182     1.0  0.48024  0.82027  0.04053  1.0000
  C   C1183     1.0  0.46197  0.66099  0.05286  1.0000
  H   H1888     1.0  0.45612  0.79090  0.01293  1.0000
  C   C1184     1.0  0.48074  0.91890  0.19208  1.0000
  H   H1889     1.0  0.43812  0.68133  0.01352  1.0000
  H   H1890     1.0  0.41415  0.90330  0.20184  1.0000
  C   C1185     1.0  0.43219  0.97654  0.20451  1.0000
  H   H1891     1.0  0.47341  0.89574  0.12297  1.0000
  C   C1186     1.0  0.43793  0.67052  0.01695  1.0000
  C   C1187     1.0  0.43956  0.97752  0.22753  1.0000
  C   C1188     1.0  0.43503  0.96651  0.22727  1.0000
  C   C1189     1.0  0.43130  0.96606  0.21583  1.0000
  N   N116      1.0  0.47751  0.78493  0.00770  1.0000
  C   C1190     1.0  0.47397  0.98169  0.29108  1.0000
  H   H1892     1.0  0.46611  0.97523  0.20636  1.0000
  H   H1893     1.0  0.42774  0.95757  0.21577  1.0000
  H   H1894     1.0  0.41558  0.94274  0.23080  1.0000
  C   C1191     1.0  0.44978  0.95970  0.09073  1.0000
  C   C1192     1.0  0.43932  0.95721  0.10182  1.0000
  C   C1193     1.0  0.43320  0.96676  0.10984  1.0000
  C   C1194     1.0  0.47813  0.90937  0.21606  1.0000
  H   H1895     1.0  0.46083  0.95632  0.11401  1.0000
  C   C1195     1.0  0.45409  0.97171  0.08776  1.0000
  H   H1896     1.0  0.43588  0.94799  0.10415  1.0000
  H   H1897     1.0  0.42504  0.96485  0.11834  1.0000
  H   H1898     1.0  0.39979  0.88560  0.23619  1.0000
  H   H1899     1.0  0.46192  0.97380  0.07899  1.0000
  C   C1196     1.0  0.41641  0.91180  0.13805  1.0000
  C   C1197     1.0  0.42646  0.91620  0.14071  1.0000
  C   C1198     1.0  0.42437  0.92022  0.15289  1.0000
  C   C1199     1.0  0.41220  0.91993  0.16233  1.0000
  C   C1200     1.0  0.40224  0.91561  0.15956  1.0000
  C   C1201     1.0  0.40435  0.91152  0.14756  1.0000
  H   H1900     1.0  0.43583  0.91640  0.13346  1.0000
  H   H1901     1.0  0.43212  0.92353  0.15496  1.0000
  H   H1902     1.0  0.39282  0.91538  0.16676  1.0000
  H   H1903     1.0  0.39655  0.90816  0.14563  1.0000
  C   C1202     1.0  0.43702  0.86042  0.05638  1.0000
  C   C1203     1.0  0.43848  0.87084  0.04499  1.0000
  C   C1204     1.0  0.44066  0.88297  0.04597  1.0000
  C   C1205     1.0  0.44148  0.88478  0.05829  1.0000
  C   C1206     1.0  0.44024  0.87429  0.06965  1.0000
  C   C1207     1.0  0.43797  0.86218  0.06869  1.0000
  H   H1904     1.0  0.43773  0.86966  0.03547  1.0000
  H   H1905     1.0  0.44158  0.89104  0.03713  1.0000
  H   H1906     1.0  0.44090  0.87552  0.07918  1.0000
  H   H1907     1.0  0.43688  0.85415  0.07754  1.0000
  C   C1208     1.0  0.43276  0.78363  0.03006  1.0000
  C   C1209     1.0  0.43132  0.77312  0.02539  1.0000
  C   C1210     1.0  0.43941  0.76019  0.02829  1.0000
  C   C1211     1.0  0.44880  0.75770  0.03606  1.0000
  C   C1212     1.0  0.45003  0.76816  0.04095  1.0000
  C   C1213     1.0  0.44210  0.78112  0.03789  1.0000
  H   H1908     1.0  0.42404  0.77500  0.01940  1.0000
  H   H1909     1.0  0.43838  0.75214  0.02454  1.0000
  H   H1910     1.0  0.45721  0.76621  0.04708  1.0000
  H   H1911     1.0  0.44313  0.78913  0.04169  1.0000
  H   H1912     1.0  0.40861  0.69458  0.98662  1.0000
  H   H1913     1.0  0.41309  0.68647  0.02208  1.0000
  H   H1914     1.0  0.46319  0.79408  0.99525  1.0000
  H   H1915     1.0  0.48761  0.78935  0.98693  1.0000
  C   C1214     1.0  0.42271  0.91890  0.25825  1.0000
  C   C1215     1.0  0.48481  0.90970  0.12254  1.0000
  H   H1916     1.0  0.44772  0.70538  0.99440  1.0000
  H   H1917     1.0  0.46947  0.95176  0.24619  1.0000
  H   H1918     1.0  0.44964  0.96342  0.14832  1.0000
  Fe  Fe253     1.0  0.41391  0.94315  0.29578  1.0000
  C   C1216     1.0  0.48801  0.96744  0.30616  1.0000
  H   H1919     1.0  0.42546  0.97139  0.27627  1.0000
  S   S496      1.0  0.47600  0.70749  0.03084  1.0000
  H   H1920     1.0  0.46375  0.92054  0.27172  1.0000
  H   H1921     1.0  0.47577  0.93307  0.14189  1.0000
  H   H1922     1.0  0.38128  0.82236  0.02289  1.0000
  H   H1923     1.0  0.43763  0.73206  0.99171  1.0000
  H   H1924     1.0  0.41706  0.98061  0.26303  1.0000
  H   H1925     1.0  0.39719  0.92309  0.20761  1.0000
  N   N117      1.0  0.40273  0.89972  0.09376  1.0000
  C   C1217     1.0  0.39833  0.91200  0.09922  1.0000
  C   C1218     1.0  0.39093  0.89489  0.09409  1.0000
  C   C1219     1.0  0.41130  0.88921  0.10202  1.0000
  H   H1926     1.0  0.39290  0.90999  0.10994  1.0000
  H   H1927     1.0  0.39168  0.92013  0.09340  1.0000
  H   H1928     1.0  0.39394  0.88560  0.09008  1.0000
  H   H1929     1.0  0.41503  0.87985  0.09811  1.0000
  H   H1930     1.0  0.40589  0.88667  0.11269  1.0000
  H   H1931     1.0  0.42013  0.89266  0.10215  1.0000
  S   S497      1.0  0.42893  0.95081  0.30084  1.0000
  H   H1932     1.0  0.37891  0.90321  0.21981  1.0000
  H   H1933     1.0  0.40476  0.89928  0.23885  1.0000
  H   H1934     1.0  0.46590  0.85561  0.99732  1.0000
  Fe  Fe254     1.0  0.47314  0.70802  0.01068  1.0000
  H   H1935     1.0  0.40548  0.70723  0.00407  1.0000
  N   N118      1.0  0.39403  0.82454  0.00306  1.0000
  Fe  Fe255     1.0  0.43447  0.93010  0.31315  1.0000
  H   H1936     1.0  0.45096  0.95062  0.26616  1.0000
  H   H1937     1.0  0.47537  0.88980  0.02990  1.0000
  H   H1938     1.0  0.48347  0.95336  0.12744  1.0000
  C   C1220     1.0  0.43916  0.70313  0.99267  1.0000
  C   C1221     1.0  0.44983  0.96013  0.13919  1.0000
  H   H1939     1.0  0.47074  0.88602  0.04793  1.0000
  H   H1940     1.0  0.47263  0.93383  0.26662  1.0000
  H   H1941     1.0  0.39688  0.82644  0.02164  1.0000
  H   H1942     1.0  0.46815  0.90986  0.04779  1.0000
  H   H1943     1.0  0.47725  0.92104  0.25705  1.0000
  H   H1944     1.0  0.41310  0.82911  0.00001  1.0000
  H   H1945     1.0  0.47948  0.96291  0.31258  1.0000
  H   H1946     1.0  0.43446  0.95824  0.23587  1.0000
  C   C1222     1.0  0.45424  0.92663  0.24924  1.0000
  C   C1223     1.0  0.48647  0.98362  0.18809  1.0000
  H   H1947     1.0  0.42653  0.90822  0.26131  1.0000
  H   H1948     1.0  0.41389  0.89374  0.07527  1.0000
  C   C1224     1.0  0.47394  0.91185  0.20405  1.0000
  N   N119      1.0  0.46296  0.95167  0.13441  1.0000
  H   H1949     1.0  0.44194  0.74771  0.98984  1.0000
  H   H1950     1.0  0.46719  0.83922  0.06412  1.0000
  C   C1225     1.0  0.46265  0.94751  0.12236  1.0000
  C   C1226     1.0  0.47559  0.85322  0.99962  1.0000
  C   C1227     1.0  0.41667  0.93836  0.24101  1.0000
  H   H1951     1.0  0.38493  0.89252  0.10454  1.0000
  C   C1228     1.0  0.41909  0.92708  0.26764  1.0000
  H   H1952     1.0  0.38859  0.84199  0.98793  1.0000
  H   H1953     1.0  0.46236  0.96564  0.19696  1.0000
  S   S498      1.0  0.41464  0.86067  0.99481  1.0000
  H   H1954     1.0  0.44017  0.94971  0.25647  1.0000
  N   N120      1.0  0.42676  0.66824  0.02861  1.0000
  C   C1229     1.0  0.47933  0.88701  0.03918  1.0000
  C   C1230     1.0  0.41397  0.67542  0.02467  1.0000
  C   C1231     1.0  0.43767  0.97870  0.10695  1.0000
  S   S499      1.0  0.44506  0.97724  0.24173  1.0000
  C   C1232     1.0  0.46578  0.65768  0.04027  1.0000
  H   H1955     1.0  0.39585  0.98226  0.28014  1.0000
  S   S500      1.0  0.42037  0.92198  0.30679  1.0000
  C   C1233     1.0  0.43580  0.74285  0.98657  1.0000
  C   C1234     1.0  0.42176  0.92459  0.24485  1.0000
  H   H1956     1.0  0.39126  0.88867  0.21562  1.0000
  C   C1235     1.0  0.39205  0.82064  0.01786  1.0000
  H   H1957     1.0  0.41942  0.90631  0.07915  1.0000
  S   S501      1.0  0.47620  0.82711  0.00080  1.0000
  S   S502      1.0  0.45679  0.92127  0.30887  1.0000
  C   C1236     1.0  0.42641  0.70693  0.00054  1.0000
  H   H1958     1.0  0.45460  0.94195  0.12446  1.0000
  H   H1959     1.0  0.47388  0.96281  0.13986  1.0000
  C   C1237     1.0  0.41038  0.90276  0.07975  1.0000
  C   C1238     1.0  0.39614  0.91790  0.21842  1.0000
  C   C1239     1.0  0.41427  0.94092  0.26368  1.0000
  H   H1960     1.0  0.40312  0.92087  0.22254  1.0000
  N   N121      1.0  0.45910  0.93555  0.25434  1.0000
  H   H1961     1.0  0.47349  0.84593  0.02707  1.0000
  H   H1962     1.0  0.39192  0.84550  0.00210  1.0000
  H   H1963     1.0  0.42019  0.90074  0.21676  1.0000
  C   C1240     1.0  0.48228  0.89969  0.11802  1.0000
  H   H1964     1.0  0.40443  0.97386  0.29343  1.0000
  C   C1241     1.0  0.47341  0.95945  0.13100  1.0000
  H   H1965     1.0  0.48177  0.91810  0.03958  1.0000
  H   H1966     1.0  0.42509  0.74726  0.99039  1.0000
  C   C1242     1.0  0.47050  0.96948  0.19827  1.0000
  H   H1967     1.0  0.48409  0.82222  0.02944  1.0000
  C   C1243     1.0  0.41288  0.94648  0.25041  1.0000
  H   H1968     1.0  0.47292  0.91375  0.02984  1.0000
  H   H1969     1.0  0.48619  0.87696  0.03933  1.0000
  H   H1970     1.0  0.47466  0.93882  0.23670  1.0000
  S   S503      1.0  0.41033  0.95168  0.27484  1.0000
  C   C1244     1.0  0.48911  0.92817  0.31657  1.0000
  H   H1971     1.0  0.46617  0.94242  0.15434  1.0000
  H   H1972     1.0  0.39655  0.80981  0.02128  1.0000
  C   C1245     1.0  0.46862  0.92736  0.26282  1.0000
  H   H1973     1.0  0.46531  0.90840  0.20411  1.0000
  H   H1974     1.0  0.44686  0.93247  0.24296  1.0000
  C   C1246     1.0  0.39763  0.89674  0.23452  1.0000
  H   H1975     1.0  0.40700  0.91600  0.09896  1.0000
  H   H1976     1.0  0.44743  0.96933  0.13140  1.0000
  H   H1977     1.0  0.47385  0.87301  0.00235  1.0000
  H   H1978     1.0  0.41516  0.88740  0.21362  1.0000
  C   C1247     1.0  0.42810  0.67335  0.03966  1.0000
  H   H1979     1.0  0.40433  0.91076  0.07320  1.0000
  H   H1980     1.0  0.42007  0.92268  0.27790  1.0000
  H   H1981     1.0  0.44240  0.93702  0.27129  1.0000
  H   H1982     1.0  0.46910  0.76736  0.01557  1.0000
  N   N122      1.0  0.39896  0.90318  0.22008  1.0000
  C   C1248     1.0  0.40847  0.82263  0.99692  1.0000
  H   H1983     1.0  0.46258  0.92061  0.24289  1.0000
  H   H1984     1.0  0.47130  0.81601  0.04266  1.0000
  N   N123      1.0  0.47650  0.97791  0.18560  1.0000
  S   S504      1.0  0.47458  0.92314  0.17744  1.0000
  H   H1985     1.0  0.44926  0.91946  0.25762  1.0000
  H   H1986     1.0  0.44164  0.95468  0.14165  1.0000
  H   H1987     1.0  0.43707  0.66712  0.00826  1.0000
  H   H1988     1.0  0.47056  0.66421  0.03160  1.0000
  H   H1989     1.0  0.44775  0.66512  0.01949  1.0000
  H   H1990     1.0  0.48772  0.97563  0.16580  1.0000
  H   H1991     1.0  0.46528  0.85284  0.04160  1.0000
  C   C1249     1.0  0.46591  0.94460  0.24284  1.0000
  H   H1992     1.0  0.47953  0.95514  0.29237  1.0000
  H   H1993     1.0  0.45910  0.95071  0.23608  1.0000
  H   H1994     1.0  0.45791  0.98507  0.17900  1.0000
  C   C1250     1.0  0.48311  0.96959  0.17551  1.0000
  C   C1251     1.0  0.47737  0.77107  0.00765  1.0000
  N   N124      1.0  0.47697  0.83265  0.04567  1.0000
  C   C1252     1.0  0.48017  0.86308  0.00232  1.0000
  H   H1995     1.0  0.48097  0.98468  0.07533  1.0000
  H   H1996     1.0  0.47972  0.79561  0.02112  1.0000
  H   H1997     1.0  0.45909  0.84046  0.03805  1.0000
  N   N125      1.0  0.48630  0.89709  0.03950  1.0000
  H   H1998     1.0  0.48673  0.96374  0.27581  1.0000
  H   H1999     1.0  0.37660  0.84074  0.00366  1.0000
  H   H2000     1.0  0.42362  0.98167  0.29518  1.0000
  C   C1253     1.0  0.41714  0.69695  0.98832  1.0000
  H   H2001     1.0  0.48681  0.76390  0.00953  1.0000
  C   C1254     1.0  0.48335  0.84016  0.00043  1.0000
  H   H2002     1.0  0.47805  0.96062  0.20196  1.0000
  H   H2003     1.0  0.40900  0.97938  0.17537  1.0000
  H   H2004     1.0  0.47603  0.82187  0.06621  1.0000
  C   C1255     1.0  0.48904  0.91412  0.21617  1.0000
  H   H2005     1.0  0.41307  0.67248  0.01571  1.0000
  S   S505      1.0  0.48573  0.88551  0.09914  1.0000
  H   H2006     1.0  0.48729  0.84613  0.04826  1.0000
  C   C1256     1.0  0.48075  0.92416  0.31100  1.0000
  C   C1257     1.0  0.38817  0.81609  0.99840  1.0000
  H   H2007     1.0  0.41385  0.81205  0.00005  1.0000
  H   H2008     1.0  0.43068  0.98596  0.26514  1.0000
  H   H2009     1.0  0.39995  0.66093  0.99078  1.0000
  H   H2010     1.0  0.46450  0.80448  0.00533  1.0000
  H   H2011     1.0  0.47589  0.96500  0.17352  1.0000
  C   C1258     1.0  0.48863  0.78941  0.99704  1.0000
  H   H2012     1.0  0.41036  0.82524  0.98575  1.0000
  S   S506      1.0  0.39773  0.94887  0.31311  1.0000
  H   H2013     1.0  0.38953  0.81879  0.98725  1.0000
  H   H2014     1.0  0.40498  0.97902  0.16019  1.0000
  C   C1259     1.0  0.48766  0.96050  0.28651  1.0000
  H   H2015     1.0  0.48331  0.89156  0.06106  1.0000
  C   C1260     1.0  0.42181  0.98169  0.27065  1.0000
  N   N126      1.0  0.48689  0.97211  0.29197  1.0000
  H   H2016     1.0  0.48801  0.97586  0.31045  1.0000
  C   C1261     1.0  0.48545  0.98259  0.08418  1.0000
  H   H2017     1.0  0.48639  0.95982  0.07702  1.0000
  H   H2018     1.0  0.37726  0.81726  0.00284  1.0000
  C   C1262     1.0  0.40358  0.98546  0.16734  1.0000
  H   H2019     1.0  0.47730  0.98164  0.09337  1.0000
  H   H2020     1.0  0.46541  0.97704  0.29711  1.0000
  H   H2021     1.0  0.48774  0.67685  0.03010  1.0000
  H   H2022     1.0  0.48885  0.77851  0.02308  1.0000
  H   H2023     1.0  0.48916  0.79975  0.99695  1.0000
  C   C1263     1.0  0.48940  0.83687  0.04442  1.0000
  H   H2024     1.0  0.47275  0.98531  0.28050  1.0000
  C   C1264     1.0  0.43624  0.98782  0.20486  1.0000
  H   H2025     1.0  0.45344  0.65462  0.07389  1.0000
  H   H2026     1.0  0.39277  0.98777  0.17216  1.0000
  H   H2027     1.0  0.42482  0.98781  0.14705  1.0000
  H   H2028     1.0  0.40849  0.95624  0.61568  1.0000
  C   C1265     1.0  0.42920  0.93597  0.63794  1.0000
  H   H2029     1.0  0.46856  0.97606  0.60090  1.0000
  H   H2030     1.0  0.25577  0.88284  0.56231  1.0000
  H   H2031     1.0  0.33389  0.87828  0.38422  1.0000
  H   H2032     1.0  0.25892  0.94434  0.46552  1.0000
  H   H2033     1.0  0.38057  0.95094  0.47852  1.0000
  H   H2034     1.0  0.36206  0.96720  0.35087  1.0000
  H   H2035     1.0  0.34711  0.90116  0.38077  1.0000
  H   H2036     1.0  0.31899  0.92019  0.38296  1.0000
  H   H2037     1.0  0.33782  0.89030  0.36883  1.0000
  C   C1266     1.0  0.44689  0.97102  0.32420  1.0000
  H   H2038     1.0  0.24781  0.96727  0.42877  1.0000
  S   S507      1.0  0.25897  0.89303  0.50049  1.0000
  Fe  Fe256     1.0  0.41329  0.95465  0.31914  1.0000
  Fe  Fe257     1.0  0.26565  0.90298  0.51262  1.0000
  S   S508      1.0  0.28357  0.89058  0.52087  1.0000
  S   S509      1.0  0.26608  0.92208  0.49698  1.0000
  Fe  Fe258     1.0  0.33385  0.92356  0.53085  1.0000
  S   S510      1.0  0.33290  0.93874  0.51152  1.0000
  S   S511      1.0  0.31329  0.92099  0.54266  1.0000
  Fe  Fe259     1.0  0.36378  0.92079  0.52750  1.0000
  S   S512      1.0  0.36495  0.93569  0.50768  1.0000
  S   S513      1.0  0.38376  0.91312  0.53375  1.0000
  Fe  Fe260     1.0  0.34602  0.94759  0.51788  1.0000
  S   S514      1.0  0.34255  0.96990  0.51364  1.0000
  Fe  Fe261     1.0  0.35172  0.92538  0.50299  1.0000
  S   S515      1.0  0.35615  0.92218  0.48187  1.0000
  S   S516      1.0  0.34565  0.93363  0.53805  1.0000
  S   S517      1.0  0.35198  0.90922  0.52195  1.0000
  H   H2039     1.0  0.41725  0.94995  0.54265  1.0000
  S   S518      1.0  0.42391  0.93535  0.57609  1.0000
  C   C1267     1.0  0.36441  0.96128  0.36068  1.0000
  Fe  Fe262     1.0  0.44067  0.92341  0.58649  1.0000
  S   S519      1.0  0.46229  0.91807  0.57610  1.0000
  Fe  Fe263     1.0  0.41838  0.94704  0.59216  1.0000
  S   S520      1.0  0.41314  0.96946  0.58774  1.0000
  Fe  Fe264     1.0  0.30773  0.93502  0.40456  1.0000
  S   S521      1.0  0.32056  0.92075  0.41841  1.0000
  S   S522      1.0  0.29252  0.92685  0.40008  1.0000
  Fe  Fe265     1.0  0.32099  0.95772  0.40107  1.0000
  S   S523      1.0  0.33452  0.94545  0.41490  1.0000
  H   H2040     1.0  0.41844  0.87234  0.63361  1.0000
  Fe  Fe266     1.0  0.33739  0.92947  0.40373  1.0000
  S   S524      1.0  0.35842  0.91767  0.39753  1.0000
  Fe  Fe267     1.0  0.31650  0.93819  0.42801  1.0000
  S   S525      1.0  0.30994  0.93787  0.45019  1.0000
  S   S526      1.0  0.32495  0.94224  0.38905  1.0000
  S   S527      1.0  0.30253  0.95188  0.41516  1.0000
  H   H2041     1.0  0.38580  0.95977  0.34005  1.0000
  C   C1268     1.0  0.30614  0.97339  0.52958  1.0000
  S   S528      1.0  0.42369  0.91289  0.63622  1.0000
  H   H2042     1.0  0.38030  0.95693  0.55626  1.0000
  S   S529      1.0  0.38832  0.91799  0.33682  1.0000
  C   C1269     1.0  0.25393  0.88425  0.55215  1.0000
  C   C1270     1.0  0.24502  0.96957  0.51310  1.0000
  H   H2043     1.0  0.40927  0.96284  0.63596  1.0000
  H   H2044     1.0  0.31254  0.91353  0.48955  1.0000
  H   H2045     1.0  0.31803  0.95778  0.54948  1.0000
  H   H2046     1.0  0.35719  0.96614  0.36870  1.0000
  H   H2047     1.0  0.29752  0.88793  0.47552  1.0000
  H   H2048     1.0  0.31710  0.87864  0.48659  1.0000
  H   H2049     1.0  0.38167  0.88474  0.63702  1.0000
  Fe  Fe268     1.0  0.41159  0.92156  0.59134  1.0000
  S   S530      1.0  0.27704  0.98599  0.49351  1.0000
  C   C1271     1.0  0.36664  0.91917  0.38043  1.0000
  C   C1272     1.0  0.38060  0.91502  0.37707  1.0000
  C   C1273     1.0  0.38743  0.91540  0.36360  1.0000
  C   C1274     1.0  0.38027  0.91956  0.35343  1.0000
  C   C1275     1.0  0.36630  0.92381  0.35677  1.0000
  C   C1276     1.0  0.35952  0.92385  0.37019  1.0000
  H   H2050     1.0  0.38617  0.91128  0.38494  1.0000
  H   H2051     1.0  0.39816  0.91186  0.36115  1.0000
  H   H2052     1.0  0.36071  0.92689  0.34895  1.0000
  H   H2053     1.0  0.34877  0.92703  0.37264  1.0000
  H   H2054     1.0  0.39350  0.97354  0.54214  1.0000
  C   C1277     1.0  0.25268  0.90865  0.45884  1.0000
  H   H2055     1.0  0.28787  0.96151  0.56037  1.0000
  H   H2056     1.0  0.44104  0.95760  0.61149  1.0000
  C   C1278     1.0  0.35517  0.97214  0.40659  1.0000
  C   C1279     1.0  0.34662  0.97165  0.39897  1.0000
  H   H2057     1.0  0.39398  0.94930  0.52253  1.0000
  S   S531      1.0  0.41699  0.98540  0.63898  1.0000
  H   H2058     1.0  0.36388  0.96412  0.40780  1.0000
  H   H2059     1.0  0.34878  0.96327  0.39426  1.0000
  C   C1280     1.0  0.47295  0.91764  0.58628  1.0000
  C   C1281     1.0  0.46822  0.91624  0.60018  1.0000
  H   H2060     1.0  0.37108  0.98189  0.61173  1.0000
  C   C1282     1.0  0.42989  0.92230  0.64344  1.0000
  H   H2061     1.0  0.44331  0.96883  0.62004  1.0000
  C   C1283     1.0  0.46658  0.95274  0.59715  1.0000
  H   H2062     1.0  0.45833  0.91442  0.60483  1.0000
  H   H2063     1.0  0.24242  0.88034  0.53453  1.0000
  C   C1284     1.0  0.41290  0.97452  0.60213  1.0000
  H   H2064     1.0  0.25716  0.91994  0.43843  1.0000
  C   C1285     1.0  0.26522  0.97592  0.49827  1.0000
  H   H2065     1.0  0.38466  0.94023  0.55350  1.0000
  C   C1286     1.0  0.34326  0.92716  0.47301  1.0000
  C   C1287     1.0  0.33019  0.93299  0.47876  1.0000
  C   C1288     1.0  0.32010  0.93667  0.47151  1.0000
  C   C1289     1.0  0.32300  0.93443  0.45851  1.0000
  C   C1290     1.0  0.33611  0.92892  0.45260  1.0000
  C   C1291     1.0  0.34620  0.92527  0.45985  1.0000
  H   H2066     1.0  0.32775  0.93443  0.48888  1.0000
  H   H2067     1.0  0.30997  0.94099  0.47611  1.0000
  H   H2068     1.0  0.33844  0.92712  0.44258  1.0000
  H   H2069     1.0  0.35631  0.92080  0.45531  1.0000
  C   C1292     1.0  0.38636  0.91353  0.54937  1.0000
  C   C1293     1.0  0.39952  0.91119  0.55090  1.0000
  C   C1294     1.0  0.40207  0.91182  0.56299  1.0000
  C   C1295     1.0  0.39146  0.91435  0.57383  1.0000
  C   C1296     1.0  0.37830  0.91640  0.57242  1.0000
  C   C1297     1.0  0.37573  0.91619  0.56017  1.0000
  H   H2070     1.0  0.40780  0.90890  0.54267  1.0000
  H   H2071     1.0  0.41225  0.90994  0.56404  1.0000
  H   H2072     1.0  0.37004  0.91821  0.58081  1.0000
  H   H2073     1.0  0.36556  0.91789  0.55917  1.0000
  C   C1298     1.0  0.34893  0.97430  0.52485  1.0000
  C   C1299     1.0  0.34697  0.96778  0.53843  1.0000
  C   C1300     1.0  0.35230  0.97134  0.54724  1.0000
  C   C1301     1.0  0.35971  0.98133  0.54243  1.0000
  C   C1302     1.0  0.39703  0.90279  0.62888  1.0000
  H   H2074     1.0  0.25266  0.86413  0.53283  1.0000
  H   H2075     1.0  0.34118  0.96015  0.54220  1.0000
  H   H2076     1.0  0.35067  0.96638  0.55777  1.0000
  H   H2077     1.0  0.30676  0.89626  0.39554  1.0000
  N   N127      1.0  0.40154  0.88824  0.62935  1.0000
  H   H2078     1.0  0.42236  0.88846  0.62556  1.0000
  C   C1303     1.0  0.29191  0.89959  0.52616  1.0000
  C   C1304     1.0  0.28509  0.91144  0.53051  1.0000
  C   C1305     1.0  0.29174  0.91804  0.53548  1.0000
  C   C1306     1.0  0.30536  0.91314  0.53556  1.0000
  C   C1307     1.0  0.31230  0.90160  0.53069  1.0000
  C   C1308     1.0  0.30552  0.89468  0.52626  1.0000
  H   H2079     1.0  0.27460  0.91532  0.53044  1.0000
  H   H2080     1.0  0.28631  0.92693  0.53928  1.0000
  H   H2081     1.0  0.32277  0.89769  0.53087  1.0000
  H   H2082     1.0  0.31083  0.88545  0.52304  1.0000
  H   H2083     1.0  0.31268  0.91213  0.37424  1.0000
  H   H2084     1.0  0.31389  0.90356  0.40428  1.0000
  H   H2085     1.0  0.29729  0.97436  0.55569  1.0000
  H   H2086     1.0  0.27609  0.86743  0.54234  1.0000
  C   C1309     1.0  0.26560  0.94609  0.43891  1.0000
  N   N128      1.0  0.32675  0.89890  0.38584  1.0000
  N   N129      1.0  0.25470  0.87128  0.54908  1.0000
  C   C1310     1.0  0.30366  0.91142  0.48769  1.0000
  C   C1311     1.0  0.24439  0.86466  0.55899  1.0000
  C   C1312     1.0  0.48357  0.93455  0.32739  1.0000
  C   C1313     1.0  0.24929  0.95103  0.40757  1.0000
  C   C1314     1.0  0.25199  0.93713  0.40897  1.0000
  C   C1315     1.0  0.26528  0.92980  0.40659  1.0000
  C   C1316     1.0  0.27594  0.93628  0.40303  1.0000
  C   C1317     1.0  0.27322  0.95021  0.40167  1.0000
  C   C1318     1.0  0.25993  0.95758  0.40379  1.0000
  H   H2087     1.0  0.37378  0.97922  0.36689  1.0000
  H   H2088     1.0  0.26729  0.91904  0.40763  1.0000
  H   H2089     1.0  0.28137  0.95533  0.39873  1.0000
  H   H2090     1.0  0.25792  0.96835  0.40259  1.0000
  C   C1319     1.0  0.35212  0.98270  0.41312  1.0000
  H   H2091     1.0  0.35104  0.95163  0.48245  1.0000
  H   H2092     1.0  0.48045  0.90944  0.64382  1.0000
  H   H2093     1.0  0.37839  0.97322  0.45278  1.0000
  C   C1320     1.0  0.35634  0.98423  0.52007  1.0000
  H   H2094     1.0  0.32713  0.96619  0.44911  1.0000
  C   C1321     1.0  0.46135  0.93321  0.32668  1.0000
  S   S532      1.0  0.39431  0.91421  0.58950  1.0000
  C   C1322     1.0  0.29196  0.96913  0.55181  1.0000
  H   H2095     1.0  0.41428  0.88534  0.64289  1.0000
  C   C1323     1.0  0.41052  0.96588  0.61475  1.0000
  C   C1324     1.0  0.40720  0.94834  0.54852  1.0000
  C   C1325     1.0  0.33886  0.89930  0.38970  1.0000
  H   H2096     1.0  0.39067  0.88280  0.64967  1.0000
  H   H2097     1.0  0.45949  0.94981  0.63097  1.0000
  C   C1326     1.0  0.44732  0.96460  0.61086  1.0000
  H   H2098     1.0  0.32845  0.97430  0.43164  1.0000
  S   S533      1.0  0.41990  0.93456  0.33225  1.0000
  C   C1327     1.0  0.25008  0.96753  0.43829  1.0000
  H   H2099     1.0  0.40592  0.96976  0.52757  1.0000
  C   C1328     1.0  0.29349  0.95615  0.53583  1.0000
  H   H2100     1.0  0.45068  0.93514  0.33067  1.0000
  N   N130      1.0  0.30092  0.96294  0.54073  1.0000
  H   H2101     1.0  0.28336  0.97678  0.54846  1.0000
  H   H2102     1.0  0.29093  0.98009  0.45975  1.0000
  C   C1329     1.0  0.46970  0.93699  0.33243  1.0000
  C   C1330     1.0  0.33002  0.88832  0.37818  1.0000
  H   H2103     1.0  0.45560  0.96302  0.32520  1.0000
  H   H2104     1.0  0.45711  0.93900  0.62190  1.0000
  C   C1331     1.0  0.30055  0.97299  0.45674  1.0000
  H   H2105     1.0  0.37876  0.98033  0.34900  1.0000
  S   S534      1.0  0.26464  0.91333  0.46395  1.0000
  H   H2106     1.0  0.31909  0.94820  0.53758  1.0000
  N   N131      1.0  0.37839  0.96039  0.36096  1.0000
  Fe  Fe269     1.0  0.40523  0.92834  0.32483  1.0000
  H   H2107     1.0  0.32106  0.88770  0.37519  1.0000
  H   H2108     1.0  0.26902  0.93599  0.44502  1.0000
  C   C1332     1.0  0.30182  0.98286  0.43312  1.0000
  C   C1333     1.0  0.38056  0.97403  0.35891  1.0000
  H   H2109     1.0  0.36190  0.98184  0.45938  1.0000
  C   C1334     1.0  0.25071  0.91381  0.44572  1.0000
  H   H2110     1.0  0.35276  0.96606  0.45285  1.0000
  H   H2111     1.0  0.44575  0.97303  0.60207  1.0000
  H   H2112     1.0  0.38634  0.94364  0.35131  1.0000
  H   H2113     1.0  0.40426  0.95362  0.55695  1.0000
  H   H2114     1.0  0.29900  0.92053  0.48094  1.0000
  H   H2115     1.0  0.46103  0.94536  0.59705  1.0000
  C   C1335     1.0  0.41088  0.96964  0.62625  1.0000
  C   C1336     1.0  0.31658  0.90203  0.46853  1.0000
  C   C1337     1.0  0.40132  0.94583  0.52910  1.0000
  S   S535      1.0  0.42897  0.90840  0.60019  1.0000
  H   H2116     1.0  0.28810  0.89457  0.49001  1.0000
  H   H2117     1.0  0.30730  0.88550  0.50080  1.0000
  H   H2118     1.0  0.24586  0.89651  0.47827  1.0000
  H   H2119     1.0  0.32314  0.88971  0.49241  1.0000
  H   H2120     1.0  0.32561  0.90480  0.46929  1.0000
  H   H2121     1.0  0.31998  0.89307  0.46399  1.0000
  C   C1338     1.0  0.31404  0.88781  0.49078  1.0000
  H   H2122     1.0  0.39104  0.97369  0.35902  1.0000
  H   H2123     1.0  0.37651  0.95373  0.54214  1.0000
  H   H2124     1.0  0.38851  0.97181  0.52807  1.0000
  S   S536      1.0  0.32264  0.97900  0.39175  1.0000
  H   H2125     1.0  0.31165  0.91040  0.46133  1.0000
  H   H2126     1.0  0.28946  0.94817  0.54399  1.0000
  H   H2127     1.0  0.33685  0.90745  0.39514  1.0000
  H   H2128     1.0  0.31943  0.88597  0.40452  1.0000
  Fe  Fe270     1.0  0.25750  0.91269  0.48589  1.0000
  C   C1339     1.0  0.31628  0.89598  0.39806  1.0000
  H   H2129     1.0  0.26154  0.88956  0.54478  1.0000
  C   C1340     1.0  0.38757  0.95397  0.35012  1.0000
  H   H2130     1.0  0.25308  0.98532  0.51453  1.0000
  C   C1341     1.0  0.32182  0.91204  0.37738  1.0000
  H   H2131     1.0  0.37190  0.97817  0.58359  1.0000
  H   H2132     1.0  0.29988  0.97385  0.43128  1.0000
  C   C1342     1.0  0.33492  0.98156  0.39810  1.0000
  C   C1343     1.0  0.41403  0.98187  0.62507  1.0000
  C   C1344     1.0  0.38106  0.95231  0.37412  1.0000
  H   H2133     1.0  0.28496  0.96336  0.53186  1.0000
  S   S537      1.0  0.36668  0.98559  0.55330  1.0000
  C   C1345     1.0  0.47627  0.91718  0.60811  1.0000
  C   C1346     1.0  0.37019  0.97328  0.46195  1.0000
  H   H2134     1.0  0.40193  0.93488  0.53315  1.0000
  C   C1347     1.0  0.46942  0.96727  0.60951  1.0000
  C   C1348     1.0  0.46300  0.94636  0.62134  1.0000
  S   S538      1.0  0.40485  0.93432  0.60672  1.0000
  H   H2135     1.0  0.24720  0.96020  0.46528  1.0000
  S   S539      1.0  0.43598  0.93632  0.60131  1.0000
  C   C1349     1.0  0.38410  0.95095  0.54834  1.0000
  N   N132      1.0  0.39724  0.95320  0.54003  1.0000
  H   H2136     1.0  0.48984  0.92023  0.56976  1.0000
  H   H2137     1.0  0.41128  0.94712  0.52270  1.0000
  H   H2138     1.0  0.40990  0.89106  0.60806  1.0000
  C   C1350     1.0  0.26661  0.96606  0.49129  1.0000
  N   N133      1.0  0.46157  0.95775  0.60970  1.0000
  H   H2139     1.0  0.42476  0.94077  0.62935  1.0000
  H   H2140     1.0  0.39157  0.95125  0.37464  1.0000
  C   C1351     1.0  0.24662  0.95945  0.50638  1.0000
  C   C1352     1.0  0.29517  0.89672  0.48016  1.0000
  N   N134      1.0  0.36575  0.96045  0.46667  1.0000
  C   C1353     1.0  0.36122  0.95791  0.45586  1.0000
  C   C1354     1.0  0.35460  0.96119  0.47860  1.0000
  Fe  Fe271     1.0  0.42310  0.92222  0.61443  1.0000
  C   C1355     1.0  0.37700  0.94942  0.47028  1.0000
  C   C1356     1.0  0.31219  0.95302  0.54571  1.0000
  H   H2141     1.0  0.35788  0.94825  0.45906  1.0000
  H   H2142     1.0  0.29809  0.96393  0.45561  1.0000
  H   H2143     1.0  0.36935  0.95738  0.44666  1.0000
  C   C1357     1.0  0.41471  0.88331  0.63302  1.0000
  H   H2144     1.0  0.35765  0.96314  0.48696  1.0000
  C   C1358     1.0  0.39627  0.96770  0.53416  1.0000
  C   C1359     1.0  0.25616  0.95457  0.45919  1.0000
  H   H2145     1.0  0.29640  0.91000  0.49752  1.0000
  H   H2146     1.0  0.39821  0.95326  0.34995  1.0000
  H   H2147     1.0  0.27409  0.95122  0.43568  1.0000
  H   H2148     1.0  0.37404  0.93956  0.47384  1.0000
  N   N135      1.0  0.25353  0.95385  0.44650  1.0000
  H   H2149     1.0  0.48937  0.92103  0.64460  1.0000
  H   H2150     1.0  0.47240  0.91632  0.61881  1.0000
  C   C1360     1.0  0.25435  0.97770  0.50912  1.0000
  C   C1361     1.0  0.48609  0.91927  0.58049  1.0000
  H   H2151     1.0  0.43316  0.95417  0.63955  1.0000
  C   C1362     1.0  0.32174  0.96970  0.44077  1.0000
  H   H2152     1.0  0.30870  0.94486  0.55402  1.0000
  H   H2153     1.0  0.31292  0.96902  0.52106  1.0000
  H   H2154     1.0  0.35732  0.98468  0.59531  1.0000
  H   H2155     1.0  0.29790  0.98118  0.52567  1.0000
  C   C1363     1.0  0.43484  0.96813  0.32433  1.0000
  H   H2156     1.0  0.34268  0.88972  0.39643  1.0000
  H   H2157     1.0  0.48020  0.96240  0.60869  1.0000
  H   H2158     1.0  0.30007  0.95117  0.52762  1.0000
  H   H2159     1.0  0.40445  0.90828  0.62165  1.0000
  H   H2160     1.0  0.36246  0.95113  0.36228  1.0000
  N   N136      1.0  0.30736  0.89949  0.48179  1.0000
  C   C1364     1.0  0.25730  0.95784  0.49533  1.0000
  H   H2161     1.0  0.26914  0.85278  0.54726  1.0000
  H   H2162     1.0  0.37381  0.97546  0.46981  1.0000
  C   C1365     1.0  0.37927  0.98444  0.60300  1.0000
  H   H2163     1.0  0.38560  0.94858  0.46153  1.0000
  H   H2164     1.0  0.43437  0.95787  0.32533  1.0000
  H   H2165     1.0  0.47733  0.94758  0.59592  1.0000
  C   C1366     1.0  0.43399  0.94353  0.64370  1.0000
  C   C1367     1.0  0.26811  0.86260  0.54968  1.0000
  H   H2166     1.0  0.46548  0.96104  0.58816  1.0000
  H   H2167     1.0  0.28978  0.90546  0.47361  1.0000
  H   H2168     1.0  0.27491  0.96472  0.48282  1.0000
  H   H2169     1.0  0.37439  0.95694  0.38253  1.0000
  C   C1368     1.0  0.41516  0.98714  0.60106  1.0000
  H   H2170     1.0  0.32952  0.91475  0.36818  1.0000
  C   C1369     1.0  0.40266  0.88577  0.61600  1.0000
  C   C1370     1.0  0.48920  0.91932  0.60226  1.0000
  H   H2171     1.0  0.34593  0.96941  0.47628  1.0000
  H   H2172     1.0  0.30569  0.96982  0.46526  1.0000
  N   N137      1.0  0.30891  0.97924  0.44418  1.0000
  H   H2173     1.0  0.27023  0.86056  0.55983  1.0000
  H   H2174     1.0  0.32020  0.96072  0.43856  1.0000
  H   H2175     1.0  0.39293  0.88955  0.61282  1.0000
  H   H2176     1.0  0.48691  0.94216  0.36496  1.0000
  S   S540      1.0  0.24491  0.91000  0.52421  1.0000
  H   H2177     1.0  0.26368  0.94447  0.42981  1.0000
  H   H2178     1.0  0.40824  0.93741  0.55305  1.0000
  H   H2179     1.0  0.39590  0.90509  0.63880  1.0000
  H   H2180     1.0  0.24574  0.86280  0.56942  1.0000
  H   H2181     1.0  0.46594  0.97120  0.61888  1.0000
  H   H2182     1.0  0.24420  0.93712  0.45622  1.0000
  Fe  Fe272     1.0  0.24467  0.92845  0.50743  1.0000
  H   H2183     1.0  0.38544  0.97487  0.60024  1.0000
  C   C1371     1.0  0.44752  0.98419  0.32332  1.0000
  H   H2184     1.0  0.37936  0.94202  0.37605  1.0000
  H   H2185     1.0  0.25832  0.95038  0.48981  1.0000
  H   H2186     1.0  0.26010  0.87842  0.52774  1.0000
  H   H2187     1.0  0.46536  0.94193  0.34078  1.0000
  H   H2188     1.0  0.31195  0.97860  0.53290  1.0000
  S   S541      1.0  0.36188  0.98229  0.42401  1.0000
  H   H2189     1.0  0.47360  0.94088  0.62073  1.0000
  C   C1372     1.0  0.24222  0.94725  0.44956  1.0000
  C   C1373     1.0  0.39173  0.88115  0.63949  1.0000
  H   H2190     1.0  0.25839  0.97285  0.43563  1.0000
  H   H2191     1.0  0.24385  0.93204  0.41173  1.0000
  C   C1374     1.0  0.42337  0.97842  0.32369  1.0000
  H   H2192     1.0  0.38738  0.90706  0.62562  1.0000
  H   H2193     1.0  0.40606  0.87490  0.61590  1.0000
  H   H2194     1.0  0.26449  0.95968  0.45728  1.0000
  S   S542      1.0  0.40822  0.97473  0.32431  1.0000
  H   H2195     1.0  0.39478  0.87013  0.64008  1.0000
  C   C1375     1.0  0.36584  0.98744  0.58710  1.0000
  H   H2196     1.0  0.48820  0.92371  0.38537  1.0000
  C   C1376     1.0  0.25237  0.87365  0.53546  1.0000
  C   C1377     1.0  0.24435  0.90063  0.46816  1.0000
  H   H2197     1.0  0.24472  0.85482  0.55699  1.0000
  H   H2198     1.0  0.24394  0.89107  0.55181  1.0000
  C   C1378     1.0  0.48551  0.91190  0.65039  1.0000
  H   H2199     1.0  0.24111  0.97369  0.44376  1.0000
  H   H2200     1.0  0.24033  0.94600  0.44024  1.0000
  C   C1379     1.0  0.36184  0.98766  0.52881  1.0000
  S   S543      1.0  0.46225  0.98749  0.32462  1.0000
  H   H2201     1.0  0.30769  0.98782  0.42351  1.0000
  Fe  Fe273     1.0  0.46344  0.83168  0.92932  1.0000
  S   S544      1.0  0.44772  0.84767  0.92031  1.0000
  C   C1380     1.0  0.41523  0.85550  0.98025  1.0000
  Fe  Fe274     1.0  0.45557  0.80879  0.92385  1.0000
  S   S545      1.0  0.43881  0.82265  0.91457  1.0000
  S   S546      1.0  0.46451  0.78661  0.92625  1.0000
  Fe  Fe275     1.0  0.45333  0.83617  0.90396  1.0000
  S   S547      1.0  0.45766  0.84328  0.88118  1.0000
  C   C1381     1.0  0.46520  0.86689  0.94548  1.0000
  S   S548      1.0  0.47032  0.82145  0.91215  1.0000
  S   S549      1.0  0.45018  0.81785  0.94181  1.0000
  Fe  Fe276     1.0  0.45999  0.91001  0.82502  1.0000
  S   S550      1.0  0.46779  0.89856  0.80844  1.0000
  S   S551      1.0  0.45900  0.90303  0.84751  1.0000
  Fe  Fe277     1.0  0.45192  0.91381  0.79854  1.0000
  H   H2202     1.0  0.45088  0.73684  0.87437  1.0000
  H   H2203     1.0  0.40369  0.97603  0.66642  1.0000
  H   H2204     1.0  0.48307  0.73028  0.97395  1.0000
  C   C1382     1.0  0.46889  0.96764  0.82708  1.0000
  H   H2205     1.0  0.42637  0.76421  0.96845  1.0000
  H   H2206     1.0  0.43596  0.90564  0.65914  1.0000
  H   H2207     1.0  0.42012  0.73017  0.89962  1.0000
  H   H2208     1.0  0.43476  0.83474  0.95960  1.0000
  H   H2209     1.0  0.46357  0.87774  0.94051  1.0000
  S   S552      1.0  0.45173  0.96004  0.80131  1.0000
  Fe  Fe278     1.0  0.45483  0.93922  0.67952  1.0000
  H   H2210     1.0  0.45674  0.84813  0.97700  1.0000
  S   S553      1.0  0.44670  0.94733  0.66076  1.0000
  Fe  Fe279     1.0  0.44969  0.93617  0.70990  1.0000
  S   S554      1.0  0.47133  0.92845  0.71024  1.0000
  S   S555      1.0  0.43350  0.93988  0.72819  1.0000
  H   H2211     1.0  0.48760  0.98525  0.76132  1.0000
  Fe  Fe280     1.0  0.47144  0.91649  0.69587  1.0000
  H   H2212     1.0  0.41740  0.97627  0.78002  1.0000
  S   S556      1.0  0.45307  0.95346  0.69239  1.0000
  S   S557      1.0  0.44935  0.92269  0.69703  1.0000
  H   H2213     1.0  0.44201  0.88135  0.95733  1.0000
  H   H2214     1.0  0.43374  0.66807  0.88034  1.0000
  H   H2215     1.0  0.41539  0.92849  0.75089  1.0000
  H   H2216     1.0  0.46161  0.97079  0.72912  1.0000
  C   C1383     1.0  0.42837  0.97383  0.77597  1.0000
  S   S558      1.0  0.47889  0.97652  0.74200  1.0000
  N   N138      1.0  0.43909  0.74449  0.97181  1.0000
  H   H2217     1.0  0.43300  0.94004  0.78092  1.0000
  H   H2218     1.0  0.47448  0.94287  0.73965  1.0000
  H   H2219     1.0  0.43136  0.72982  0.90947  1.0000
  C   C1384     1.0  0.42627  0.84192  0.96358  1.0000
  Fe  Fe281     1.0  0.44152  0.72447  0.93190  1.0000
  S   S559      1.0  0.45083  0.71303  0.94942  1.0000
  S   S560      1.0  0.43011  0.74591  0.92928  1.0000
  Fe  Fe282     1.0  0.44934  0.70073  0.91879  1.0000
  S   S561      1.0  0.45939  0.68698  0.93495  1.0000
  S   S562      1.0  0.44949  0.69566  0.89965  1.0000
  Fe  Fe283     1.0  0.44184  0.69659  0.94895  1.0000
  S   S563      1.0  0.48925  0.69958  0.93417  1.0000
  Fe  Fe284     1.0  0.46762  0.70438  0.93407  1.0000
  H   H2220     1.0  0.47776  0.91450  0.65931  1.0000
  S   S564      1.0  0.43081  0.70874  0.93291  1.0000
  S   S565      1.0  0.45933  0.71742  0.91646  1.0000
  Fe  Fe285     1.0  0.43471  0.83299  0.93168  1.0000
  C   C1385     1.0  0.43058  0.66438  0.91386  1.0000
  C   C1386     1.0  0.48621  0.92736  0.84270  1.0000
  C   C1387     1.0  0.44079  0.68000  0.88909  1.0000
  C   C1388     1.0  0.44179  0.68257  0.90093  1.0000
  C   C1389     1.0  0.43664  0.67478  0.91337  1.0000
  C   C1390     1.0  0.44739  0.95828  0.76626  1.0000
  H   H2221     1.0  0.47565  0.72122  0.94814  1.0000
  H   H2222     1.0  0.44473  0.68597  0.87946  1.0000
  H   H2223     1.0  0.43715  0.67688  0.92257  1.0000
  H   H2224     1.0  0.43260  0.73928  0.95691  1.0000
  H   H2225     1.0  0.45611  0.73912  0.95625  1.0000
  C   C1391     1.0  0.40427  0.85601  0.96288  1.0000
  C   C1392     1.0  0.42703  0.97652  0.67098  1.0000
  H   H2226     1.0  0.47545  0.68200  0.90803  1.0000
  H   H2227     1.0  0.48629  0.93755  0.78755  1.0000
  H   H2228     1.0  0.46942  0.98064  0.68454  1.0000
  H   H2229     1.0  0.46631  0.98542  0.66789  1.0000
  N   N139      1.0  0.41554  0.97196  0.68100  1.0000
  H   H2230     1.0  0.48462  0.92642  0.85370  1.0000
  H   H2231     1.0  0.48418  0.66723  0.90166  1.0000
  H   H2232     1.0  0.41871  0.95150  0.78795  1.0000
  H   H2233     1.0  0.46605  0.96249  0.70848  1.0000
  C   C1393     1.0  0.47167  0.96901  0.72308  1.0000
  H   H2234     1.0  0.43074  0.98219  0.76738  1.0000
  H   H2235     1.0  0.41835  0.96561  0.83370  1.0000
  H   H2236     1.0  0.43929  0.76052  0.95420  1.0000
  S   S566      1.0  0.44301  0.92404  0.81598  1.0000
  H   H2237     1.0  0.44343  0.76399  0.96789  1.0000
  H   H2238     1.0  0.48433  0.91810  0.84127  1.0000
  H   H2239     1.0  0.42641  0.65853  0.92343  1.0000
  H   H2240     1.0  0.47844  0.93595  0.83899  1.0000
  C   C1394     1.0  0.47419  0.96430  0.71138  1.0000
  S   S567      1.0  0.43827  0.90985  0.78801  1.0000
  C   C1395     1.0  0.44087  0.69622  0.98262  1.0000
  H   H2241     1.0  0.43340  0.97389  0.78380  1.0000
  H   H2242     1.0  0.45017  0.96625  0.75732  1.0000
  C   C1396     1.0  0.48421  0.67795  0.90060  1.0000
  C   C1397     1.0  0.46057  0.98107  0.80318  1.0000
  H   H2243     1.0  0.43394  0.66607  0.95021  1.0000
  C   C1398     1.0  0.43545  0.91621  0.65479  1.0000
  H   H2244     1.0  0.48031  0.91976  0.73531  1.0000
  H   H2245     1.0  0.47206  0.84552  0.96465  1.0000
  H   H2246     1.0  0.44509  0.91895  0.66894  1.0000
  C   C1399     1.0  0.48650  0.91658  0.74295  1.0000
  S   S568      1.0  0.43190  0.68460  0.96789  1.0000
  C   C1400     1.0  0.43782  0.91769  0.77105  1.0000
  C   C1401     1.0  0.44886  0.92189  0.76167  1.0000
  C   C1402     1.0  0.44791  0.92818  0.74825  1.0000
  C   C1403     1.0  0.43581  0.93056  0.74430  1.0000
  C   C1404     1.0  0.42480  0.92657  0.75379  1.0000
  H   H2247     1.0  0.43966  0.86565  0.95632  1.0000
  H   H2248     1.0  0.45809  0.92011  0.76479  1.0000
  H   H2249     1.0  0.45636  0.93147  0.74101  1.0000
  H   H2250     1.0  0.48363  0.74018  0.95045  1.0000
  C   C1405     1.0  0.46950  0.98116  0.82180  1.0000
  H   H2251     1.0  0.45684  0.84476  0.96126  1.0000
  C   C1406     1.0  0.48841  0.84446  0.92547  1.0000
  H   H2252     1.0  0.47419  0.93548  0.75713  1.0000
  C   C1407     1.0  0.43519  0.65499  0.95390  1.0000
  H   H2253     1.0  0.45074  0.69316  0.97662  1.0000
  H   H2254     1.0  0.43894  0.86866  0.97236  1.0000
  C   C1408     1.0  0.45770  0.86003  0.87210  1.0000
  C   C1409     1.0  0.45932  0.86296  0.85806  1.0000
  C   C1410     1.0  0.45967  0.87608  0.85040  1.0000
  C   C1411     1.0  0.45851  0.88638  0.85672  1.0000
  C   C1412     1.0  0.45708  0.88340  0.87075  1.0000
  C   C1413     1.0  0.45664  0.87029  0.87843  1.0000
  H   H2255     1.0  0.46017  0.85508  0.85308  1.0000
  H   H2256     1.0  0.46077  0.87823  0.83962  1.0000
  H   H2257     1.0  0.45620  0.89130  0.87572  1.0000
  H   H2258     1.0  0.45546  0.86816  0.88921  1.0000
  C   C1414     1.0  0.45480  0.77557  0.92677  1.0000
  C   C1415     1.0  0.44135  0.78015  0.92613  1.0000
  C   C1416     1.0  0.43382  0.77098  0.92677  1.0000
  C   C1417     1.0  0.43974  0.75727  0.92806  1.0000
  C   C1418     1.0  0.45320  0.75270  0.92868  1.0000
  C   C1419     1.0  0.46070  0.76184  0.92808  1.0000
  H   H2259     1.0  0.43676  0.79073  0.92513  1.0000
  H   H2260     1.0  0.42339  0.77454  0.92633  1.0000
  H   H2261     1.0  0.45785  0.74213  0.92965  1.0000
  H   H2262     1.0  0.47114  0.75827  0.92856  1.0000
  H   H2263     1.0  0.45470  0.66386  0.95741  1.0000
  H   H2264     1.0  0.40909  0.95343  0.69063  1.0000
  H   H2265     1.0  0.46007  0.74235  0.97022  1.0000
  C   C1420     1.0  0.44059  0.92374  0.66036  1.0000
  H   H2266     1.0  0.47520  0.84977  0.91184  1.0000
  C   C1421     1.0  0.43694  0.75894  0.96534  1.0000
  C   C1422     1.0  0.48796  0.78106  0.94820  1.0000
  H   H2267     1.0  0.48843  0.82614  0.86589  1.0000
  H   H2268     1.0  0.48346  0.89104  0.67159  1.0000
  C   C1423     1.0  0.45325  0.73794  0.96737  1.0000
  C   C1424     1.0  0.41518  0.84663  0.95766  1.0000
  H   H2269     1.0  0.47168  0.96257  0.83656  1.0000
  H   H2270     1.0  0.48561  0.88557  0.65640  1.0000
  H   H2271     1.0  0.39425  0.97566  0.68338  1.0000
  S   S569      1.0  0.48329  0.89541  0.69784  1.0000
  H   H2272     1.0  0.39595  0.86797  0.97788  1.0000
  H   H2273     1.0  0.48773  0.75306  0.96844  1.0000
  C   C1425     1.0  0.41751  0.95726  0.68306  1.0000
  C   C1426     1.0  0.46444  0.87148  0.96672  1.0000
  H   H2274     1.0  0.46118  0.86183  0.94008  1.0000
  H   H2275     1.0  0.48241  0.82452  0.88357  1.0000
  H   H2276     1.0  0.45052  0.72558  0.89054  1.0000
  H   H2277     1.0  0.46308  0.95062  0.82487  1.0000
  H   H2278     1.0  0.42846  0.97355  0.66133  1.0000
  H   H2279     1.0  0.42891  0.95158  0.75815  1.0000
  C   C1427     1.0  0.42586  0.91997  0.76698  1.0000
  H   H2280     1.0  0.43228  0.75679  0.87119  1.0000
  C   C1428     1.0  0.41443  0.97540  0.69389  1.0000
  H   H2281     1.0  0.48367  0.84825  0.88097  1.0000
  Fe  Fe286     1.0  0.47475  0.94457  0.69174  1.0000
  S   S570      1.0  0.47354  0.92445  0.81540  1.0000
  C   C1429     1.0  0.48075  0.93883  0.74728  1.0000
  H   H2282     1.0  0.41965  0.74287  0.97119  1.0000
  H   H2283     1.0  0.41788  0.74403  0.90729  1.0000
  C   C1430     1.0  0.42509  0.97146  0.83459  1.0000
  C   C1431     1.0  0.46404  0.96087  0.82048  1.0000
  S   S571      1.0  0.46487  0.92827  0.78710  1.0000
  H   H2284     1.0  0.48023  0.91264  0.75279  1.0000
  H   H2285     1.0  0.41728  0.91678  0.77414  1.0000
  N   N140      1.0  0.43281  0.96085  0.77181  1.0000
  H   H2286     1.0  0.43477  0.84252  0.97942  1.0000
  H   H2287     1.0  0.48504  0.80670  0.93471  1.0000
  C   C1432     1.0  0.48569  0.72242  0.94326  1.0000
  S   S572      1.0  0.47830  0.83516  0.93842  1.0000
  C   C1433     1.0  0.40441  0.86064  0.97397  1.0000
  C   C1434     1.0  0.42621  0.84622  0.97495  1.0000
  H   H2288     1.0  0.40603  0.97188  0.70176  1.0000
  H   H2289     1.0  0.45296  0.95800  0.77379  1.0000
  Fe  Fe287     1.0  0.45735  0.93742  0.80517  1.0000
  S   S573      1.0  0.41453  0.84057  0.94411  1.0000
  C   C1435     1.0  0.48217  0.97105  0.72713  1.0000
  H   H2290     1.0  0.41560  0.98162  0.81244  1.0000
  H   H2291     1.0  0.48449  0.94726  0.74814  1.0000
  H   H2292     1.0  0.45939  0.87051  0.97753  1.0000
  S   S574      1.0  0.47694  0.93193  0.67736  1.0000
  H   H2293     1.0  0.43466  0.94946  0.79167  1.0000
  C   C1436     1.0  0.42586  0.96127  0.76143  1.0000
  H   H2294     1.0  0.43923  0.72594  0.88080  1.0000
  C   C1437     1.0  0.45969  0.96764  0.80862  1.0000
  H   H2295     1.0  0.43177  0.72728  0.97268  1.0000
  N   N141      1.0  0.43420  0.74290  0.88999  1.0000
  C   C1438     1.0  0.44115  0.75097  0.89389  1.0000
  C   C1439     1.0  0.42601  0.75174  0.88044  1.0000
  C   C1440     1.0  0.42546  0.73647  0.90208  1.0000
  C   C1441     1.0  0.44414  0.73241  0.88361  1.0000
  H   H2296     1.0  0.44741  0.74464  0.90114  1.0000
  H   H2297     1.0  0.43393  0.75885  0.89895  1.0000
  H   H2298     1.0  0.44782  0.75605  0.88504  1.0000
  H   H2299     1.0  0.42060  0.74597  0.87732  1.0000
  H   H2300     1.0  0.41839  0.75974  0.88500  1.0000
  Fe  Fe288     1.0  0.48006  0.91411  0.79824  1.0000
  H   H2301     1.0  0.45553  0.66211  0.93406  1.0000
  H   H2302     1.0  0.42812  0.96926  0.75232  1.0000
  C   C1442     1.0  0.43458  0.66984  0.88958  1.0000
  C   C1443     1.0  0.46117  0.85017  0.96601  1.0000
  H   H2303     1.0  0.43209  0.98464  0.80851  1.0000
  C   C1444     1.0  0.42987  0.69298  0.98057  1.0000
  H   H2304     1.0  0.41483  0.96327  0.76521  1.0000
  H   H2305     1.0  0.42505  0.96973  0.84543  1.0000
  H   H2306     1.0  0.45724  0.98635  0.79398  1.0000
  H   H2307     1.0  0.41269  0.98644  0.69278  1.0000
  C   C1445     1.0  0.42964  0.95001  0.78361  1.0000
  H   H2308     1.0  0.45102  0.94853  0.76309  1.0000
  C   C1446     1.0  0.44422  0.87035  0.96157  1.0000
  C   C1447     1.0  0.48458  0.85048  0.91323  1.0000
  H   H2309     1.0  0.39572  0.85980  0.95825  1.0000
  H   H2310     1.0  0.43651  0.97197  0.67444  1.0000
  H   H2311     1.0  0.42370  0.97066  0.69780  1.0000
  C   C1448     1.0  0.43041  0.73821  0.96798  1.0000
  H   H2312     1.0  0.47530  0.86707  0.96617  1.0000
  C   C1449     1.0  0.42950  0.66195  0.90192  1.0000
  H   H2313     1.0  0.42686  0.95186  0.68661  1.0000
  H   H2314     1.0  0.47618  0.86273  0.94386  1.0000
  H   H2315     1.0  0.41832  0.95433  0.67352  1.0000
  N   N142      1.0  0.45875  0.86472  0.95994  1.0000
  C   C1450     1.0  0.40318  0.97866  0.67602  1.0000
  H   H2316     1.0  0.46328  0.88240  0.96206  1.0000
  H   H2317     1.0  0.48689  0.78178  0.95871  1.0000
  H   H2318     1.0  0.47811  0.78566  0.94546  1.0000
  H   H2319     1.0  0.45523  0.72698  0.97196  1.0000
  H   H2320     1.0  0.43538  0.96711  0.82944  1.0000
  H   H2321     1.0  0.48249  0.68345  0.89043  1.0000
  C   C1451     1.0  0.43993  0.93743  0.65473  1.0000
  C   C1452     1.0  0.48712  0.96218  0.70341  1.0000
  N   N143      1.0  0.42100  0.98591  0.82862  1.0000
  H   H2322     1.0  0.39999  0.98615  0.83410  1.0000
  H   H2323     1.0  0.48776  0.69837  0.90812  1.0000
  H   H2324     1.0  0.42564  0.98763  0.66871  1.0000
  H   H2325     1.0  0.48951  0.84943  0.86329  1.0000
  C   C1453     1.0  0.48904  0.73251  0.97939  1.0000
  H   H2326     1.0  0.49002  0.86206  0.89314  1.0000
  C   C1454     1.0  0.46556  0.98778  0.80969  1.0000
  C   C1455     1.0  0.42166  0.98769  0.81415  1.0000
  H   H2327     1.0  0.50192  0.04089  0.22344  1.0000
  S   S575      1.0  0.52112  0.14973  0.02196  1.0000
  H   H2328     1.0  0.54221  0.98832  0.15072  1.0000
  H   H2329     1.0  0.56427  0.06643  0.09902  1.0000
  H   H2330     1.0  0.51765  0.29835  0.04678  1.0000
  S   S576      1.0  0.54939  0.01499  0.13867  1.0000
  S   S577      1.0  0.55712  0.04139  0.30470  1.0000
  S   S578      1.0  0.54214  0.01104  0.22669  1.0000
  H   H2331     1.0  0.56739  0.30850  0.03718  1.0000
  H   H2332     1.0  0.54632  0.30005  0.04972  1.0000
  H   H2333     1.0  0.54903  0.16952  0.99497  1.0000
  H   H2334     1.0  0.56811  0.05984  0.11537  1.0000
  C   C1456     1.0  0.51115  0.03552  0.24034  1.0000
  S   S579      1.0  0.55558  0.03835  0.11121  1.0000
  Fe  Fe289     1.0  0.53089  0.15039  0.03769  1.0000
  S   S580      1.0  0.52241  0.06125  0.09872  1.0000
  S   S581      1.0  0.52823  0.04436  0.13481  1.0000
  S   S582      1.0  0.51276  0.01284  0.15437  1.0000
  C   C1457     1.0  0.54917  0.20269  0.02850  1.0000
  H   H2335     1.0  0.51768  0.19833  0.04409  1.0000
  C   C1458     1.0  0.49582  0.22991  0.04023  1.0000
  C   C1459     1.0  0.55750  0.99211  0.10027  1.0000
  S   S583      1.0  0.52313  0.27115  0.01853  1.0000
  C   C1460     1.0  0.55520  0.18948  0.02700  1.0000
  C   C1461     1.0  0.55339  0.09177  0.10197  1.0000
  S   S584      1.0  0.49848  0.25298  0.04534  1.0000
  H   H2336     1.0  0.56310  0.07587  0.07015  1.0000
  C   C1462     1.0  0.53960  0.99268  0.09006  1.0000
  H   H2337     1.0  0.58330  0.04158  0.30561  1.0000
  Fe  Fe290     1.0  0.54224  0.02908  0.23354  1.0000
  S   S585      1.0  0.56345  0.03007  0.22276  1.0000
  S   S586      1.0  0.52344  0.04476  0.23222  1.0000
  Fe  Fe291     1.0  0.56361  0.01099  0.21735  1.0000
  S   S587      1.0  0.57147  0.00349  0.19820  1.0000
  Fe  Fe292     1.0  0.56830  0.01661  0.24220  1.0000
  S   S588      1.0  0.58314  0.01488  0.25433  1.0000
  Fe  Fe293     1.0  0.54644  0.23631  0.02194  1.0000
  H   H2338     1.0  0.49362  0.01042  0.20042  1.0000
  Fe  Fe294     1.0  0.55244  0.01725  0.11642  1.0000
  N   N144      1.0  0.50097  0.28888  0.05213  1.0000
  H   H2339     1.0  0.51699  0.31070  0.99248  1.0000
  H   H2340     1.0  0.51853  0.02804  0.25853  1.0000
  H   H2341     1.0  0.50816  0.03312  0.31005  1.0000
  C   C1463     1.0  0.55112  0.30666  0.02085  1.0000
  N   N145      1.0  0.52347  0.01654  0.30420  1.0000
  S   S589      1.0  0.55071  0.13823  0.02902  1.0000
  C   C1464     1.0  0.49081  0.18135  0.04096  1.0000
  H   H2342     1.0  0.49539  0.24083  0.99721  1.0000
  H   H2343     1.0  0.54372  0.01629  0.30413  1.0000
  H   H2344     1.0  0.52779  0.17407  0.98808  1.0000
  H   H2345     1.0  0.56266  0.09571  0.09756  1.0000
  H   H2346     1.0  0.53551  0.20225  0.00526  1.0000
  H   H2347     1.0  0.52293  0.19287  0.01424  1.0000
  S   S590      1.0  0.52376  0.13263  0.05224  1.0000
  H   H2348     1.0  0.52014  0.20598  0.99974  1.0000
  H   H2349     1.0  0.51905  0.01974  0.09521  1.0000
  H   H2350     1.0  0.59916  0.04572  0.29744  1.0000
  H   H2351     1.0  0.52108  0.03681  0.09053  1.0000
  C   C1465     1.0  0.49341  0.15918  0.05521  1.0000
  C   C1466     1.0  0.59194  0.07149  0.29931  1.0000
  C   C1467     1.0  0.49333  0.02605  0.23948  1.0000
  C   C1468     1.0  0.50796  0.14352  0.98846  1.0000
  H   H2352     1.0  0.54559  0.29998  0.99621  1.0000
  H   H2353     1.0  0.50207  0.04296  0.19728  1.0000
  H   H2354     1.0  0.58963  0.07975  0.30469  1.0000
  H   H2355     1.0  0.55225  0.18130  0.00232  1.0000
  H   H2356     1.0  0.51862  0.13836  0.98808  1.0000
  H   H2357     1.0  0.53984  0.17169  0.01144  1.0000
  C   C1469     1.0  0.52139  0.00720  0.31748  1.0000
  H   H2358     1.0  0.56571  0.18699  0.02236  1.0000
  C   C1470     1.0  0.55460  0.29300  0.02059  1.0000
  C   C1471     1.0  0.56642  0.06918  0.10744  1.0000
  H   H2359     1.0  0.51211  0.03221  0.17167  1.0000
  C   C1472     1.0  0.56612  0.28815  0.01158  1.0000
  C   C1473     1.0  0.57448  0.29683  0.00338  1.0000
  H   H2360     1.0  0.52267  0.99815  0.24552  1.0000
  S   S591      1.0  0.57054  0.99773  0.23563  1.0000
  C   C1474     1.0  0.51146  0.02755  0.25324  1.0000
  H   H2361     1.0  0.54275  0.00984  0.09482  1.0000
  S   S592      1.0  0.54707  0.01733  0.25335  1.0000
  H   H2362     1.0  0.51808  0.98845  0.11989  1.0000
  H   H2363     1.0  0.50264  0.15565  0.04798  1.0000
  C   C1475     1.0  0.52786  0.19768  0.00401  1.0000
  H   H2364     1.0  0.53776  0.31718  0.05004  1.0000
  C   C1476     1.0  0.51603  0.99791  0.13609  1.0000
  C   C1477     1.0  0.50019  0.24961  0.99384  1.0000
  H   H2365     1.0  0.51840  0.17686  0.00434  1.0000
  C   C1478     1.0  0.55873  0.08294  0.12387  1.0000
  C   C1479     1.0  0.49755  0.99343  0.13040  1.0000
  H   H2366     1.0  0.53576  0.03075  0.29337  1.0000
  H   H2367     1.0  0.53092  0.21588  0.03609  1.0000
  Fe  Fe295     1.0  0.54221  0.26488  0.02560  1.0000
  H   H2368     1.0  0.51671  0.27599  0.06174  1.0000
  N   N146      1.0  0.58484  0.06073  0.30727  1.0000
  Fe  Fe296     1.0  0.53340  0.04444  0.11279  1.0000
  H   H2369     1.0  0.53094  0.99824  0.08597  1.0000
  C   C1480     1.0  0.51478  0.01704  0.20388  1.0000
  S   S593      1.0  0.52758  0.24084  0.01462  1.0000
  H   H2370     1.0  0.55244  0.16929  0.03051  1.0000
  H   H2371     1.0  0.56939  0.99411  0.27996  1.0000
  Fe  Fe297     1.0  0.52785  0.02275  0.13833  1.0000
  H   H2372     1.0  0.54531  0.09994  0.10570  1.0000
  H   H2373     1.0  0.52257  0.03456  0.18111  1.0000
  C   C1481     1.0  0.54529  0.09057  0.06633  1.0000
  C   C1482     1.0  0.53131  0.09350  0.06954  1.0000
  C   C1483     1.0  0.52440  0.08434  0.07934  1.0000
  C   C1484     1.0  0.53140  0.07219  0.08597  1.0000
  C   C1485     1.0  0.54537  0.06910  0.08250  1.0000
  C   C1486     1.0  0.55229  0.07828  0.07275  1.0000
  H   H2374     1.0  0.52582  0.10288  0.06458  1.0000
  H   H2375     1.0  0.51359  0.08677  0.08189  1.0000
  H   H2376     1.0  0.55086  0.05960  0.08723  1.0000
  H   H2377     1.0  0.60297  0.06760  0.29729  1.0000
  C   C1487     1.0  0.56216  0.03386  0.16008  1.0000
  C   C1488     1.0  0.55953  0.03815  0.17208  1.0000
  C   C1489     1.0  0.56214  0.02886  0.18392  1.0000
  C   C1490     1.0  0.56767  0.01531  0.18369  1.0000
  C   C1491     1.0  0.57034  0.01105  0.17168  1.0000
  C   C1492     1.0  0.56752  0.02028  0.15993  1.0000
  H   H2378     1.0  0.55543  0.04864  0.17225  1.0000
  H   H2379     1.0  0.56009  0.03224  0.19314  1.0000
  H   H2380     1.0  0.57474  0.00062  0.17141  1.0000
  C   C1493     1.0  0.50199  0.03489  0.23350  1.0000
  C   C1494     1.0  0.53405  0.02347  0.30316  1.0000
  C   C1495     1.0  0.57026  0.06631  0.30976  1.0000
  C   C1496     1.0  0.50715  0.00391  0.14632  1.0000
  C   C1497     1.0  0.52348  0.18181  0.99428  1.0000
  H   H2381     1.0  0.50242  0.02176  0.30452  1.0000
  H   H2382     1.0  0.51977  0.02416  0.20555  1.0000
  H   H2383     1.0  0.49010  0.03262  0.20566  1.0000
  N   N147      1.0  0.55538  0.07961  0.11278  1.0000
  H   H2384     1.0  0.50566  0.22941  0.03376  1.0000
  C   C1498     1.0  0.58822  0.05000  0.29975  1.0000
  C   C1499     1.0  0.54769  0.17947  0.03158  1.0000
  H   H2385     1.0  0.56038  0.07390  0.13215  1.0000
  H   H2386     1.0  0.58361  0.29294  0.99674  1.0000
  C   C1500     1.0  0.52814  0.19582  0.03925  1.0000
  H   H2387     1.0  0.51104  0.11156  0.02289  1.0000
  C   C1501     1.0  0.56441  0.03381  0.29085  1.0000
  C   C1502     1.0  0.55953  0.03921  0.27907  1.0000
  C   C1503     1.0  0.56507  0.03325  0.26793  1.0000
  C   C1504     1.0  0.57583  0.02217  0.26836  1.0000
  C   C1505     1.0  0.58083  0.01685  0.28009  1.0000
  C   C1506     1.0  0.57498  0.02253  0.29140  1.0000
  H   H2388     1.0  0.55140  0.04799  0.27857  1.0000
  H   H2389     1.0  0.56125  0.03747  0.25887  1.0000
  H   H2390     1.0  0.58917  0.00828  0.28045  1.0000
  H   H2391     1.0  0.57879  0.01829  0.30045  1.0000
  S   S594      1.0  0.53386  0.11736  0.02658  1.0000
  Fe  Fe298     1.0  0.55022  0.03666  0.13358  1.0000
  C   C1507     1.0  0.49355  0.02544  0.09316  1.0000
  H   H2392     1.0  0.50187  0.13746  0.99695  1.0000
  C   C1508     1.0  0.49912  0.11060  0.01002  1.0000
  C   C1509     1.0  0.49846  0.27237  0.99528  1.0000
  H   H2393     1.0  0.56994  0.01695  0.15064  1.0000
  S   S595      1.0  0.55867  0.21516  0.02260  1.0000
  S   S596      1.0  0.56554  0.99989  0.10739  1.0000
  H   H2394     1.0  0.49978  0.17828  0.03320  1.0000
  Fe  Fe299     1.0  0.54027  0.13632  0.01414  1.0000
  S   S597      1.0  0.55878  0.04549  0.14529  1.0000
  H   H2395     1.0  0.49658  0.16261  0.06259  1.0000
  H   H2396     1.0  0.54406  0.06549  0.12628  1.0000
  C   C1510     1.0  0.54308  0.12033  0.98657  1.0000
  C   C1511     1.0  0.53561  0.20581  0.03463  1.0000
  S   S598      1.0  0.54489  0.28216  0.03235  1.0000
  C   C1512     1.0  0.54318  0.30956  0.98882  1.0000
  H   H2397     1.0  0.51758  0.02973  0.07877  1.0000
  H   H2398     1.0  0.57597  0.07265  0.10355  1.0000
  H   H2399     1.0  0.50993  0.24626  0.99688  1.0000
  H   H2400     1.0  0.50782  0.01379  0.21354  1.0000
  H   H2401     1.0  0.56721  0.29051  0.05744  1.0000
  H   H2402     1.0  0.54098  0.11648  0.99732  1.0000
  S   S599      1.0  0.53065  0.02346  0.11648  1.0000
  H   H2403     1.0  0.52264  0.00805  0.20168  1.0000
  H   H2404     1.0  0.49199  0.28133  0.99911  1.0000
  Fe  Fe300     1.0  0.54898  0.99940  0.24547  1.0000
  H   H2405     1.0  0.57136  0.99647  0.31523  1.0000
  H   H2406     1.0  0.53434  0.08215  0.12177  1.0000
  H   H2407     1.0  0.49419  0.18510  0.04797  1.0000
  H   H2408     1.0  0.52653  0.99783  0.13398  1.0000
  H   H2409     1.0  0.57298  0.31882  0.04427  1.0000
  S   S600      1.0  0.52418  0.17059  0.04334  1.0000
  C   C1513     1.0  0.49358  0.00397  0.14911  1.0000
  C   C1514     1.0  0.49404  0.29519  0.06371  1.0000
  H   H2410     1.0  0.52903  0.01573  0.28328  1.0000
  H   H2411     1.0  0.54029  0.07151  0.10993  1.0000
  C   C1515     1.0  0.50161  0.11549  0.01987  1.0000
  H   H2412     1.0  0.50407  0.30766  0.03884  1.0000
  H   H2413     1.0  0.49273  0.21267  0.03557  1.0000
  H   H2414     1.0  0.57361  0.30010  0.06469  1.0000
  Fe  Fe301     1.0  0.54262  0.12019  0.04229  1.0000
  Fe  Fe302     1.0  0.51558  0.13111  0.03568  1.0000
  H   H2415     1.0  0.55049  0.08967  0.09361  1.0000
  S   S601      1.0  0.55427  0.10229  0.05484  1.0000
  C   C1516     1.0  0.49369  0.01807  0.25238  1.0000
  H   H2416     1.0  0.51499  0.29309  0.03334  1.0000
  S   S602      1.0  0.53702  0.24596  0.03972  1.0000
  H   H2417     1.0  0.50126  0.29634  0.06885  1.0000
  H   H2418     1.0  0.50305  0.01264  0.26922  1.0000
  C   C1517     1.0  0.53413  0.18264  0.03771  1.0000
  C   C1518     1.0  0.54422  0.17714  0.00126  1.0000
  Fe  Fe303     1.0  0.53414  0.25973  0.00260  1.0000
  H   H2419     1.0  0.51450  0.27053  0.04820  1.0000
  H   H2420     1.0  0.54666  0.31733  0.07551  1.0000
  C   C1519     1.0  0.51527  0.03003  0.08958  1.0000
  C   C1520     1.0  0.49094  0.28756  0.04570  1.0000
  C   C1521     1.0  0.50908  0.27544  0.05676  1.0000
  H   H2421     1.0  0.53696  0.00140  0.29409  1.0000
  C   C1522     1.0  0.50979  0.29737  0.04235  1.0000
  S   S603      1.0  0.49118  0.98941  0.11892  1.0000
  H   H2422     1.0  0.52493  0.01853  0.17726  1.0000
  H   H2423     1.0  0.54198  0.31061  0.02743  1.0000
  H   H2424     1.0  0.58905  0.07592  0.28944  1.0000
  H   H2425     1.0  0.50666  0.10300  0.00546  1.0000
  H   H2426     1.0  0.55867  0.29409  0.07363  1.0000
  C   C1523     1.0  0.54297  0.07448  0.11791  1.0000
  H   H2427     1.0  0.56803  0.08687  0.12038  1.0000
  C   C1524     1.0  0.54386  0.30805  0.05547  1.0000
  Fe  Fe304     1.0  0.51868  0.25170  0.03141  1.0000
  H   H2428     1.0  0.55056  0.09064  0.12829  1.0000
  H   H2429     1.0  0.50835  0.00454  0.18842  1.0000
  C   C1525     1.0  0.57137  0.31034  0.00421  1.0000
  S   S604      1.0  0.55372  0.25469  0.00856  1.0000
  C   C1526     1.0  0.54618  0.99923  0.09518  1.0000
  H   H2430     1.0  0.49814  0.25297  0.01816  1.0000
  N   N148      1.0  0.50763  0.02333  0.19282  1.0000
  C   C1527     1.0  0.51723  0.02736  0.18019  1.0000
  C   C1528     1.0  0.56394  0.31607  0.04354  1.0000
  C   C1529     1.0  0.50098  0.01364  0.19110  1.0000
  H   H2431     1.0  0.56422  0.98842  0.13475  1.0000
  C   C1530     1.0  0.49167  0.12490  0.02620  1.0000
  H   H2432     1.0  0.55622  0.99411  0.30267  1.0000
  C   C1531     1.0  0.52747  0.00898  0.29343  1.0000
  S   S605      1.0  0.49413  0.13041  0.03919  1.0000
  C   C1532     1.0  0.50269  0.01888  0.25929  1.0000
  N   N149      1.0  0.55611  0.31086  0.05694  1.0000
  H   H2433     1.0  0.56887  0.27761  0.01129  1.0000
  H   H2434     1.0  0.50411  0.99330  0.23929  1.0000
  H   H2435     1.0  0.49161  0.04011  0.18815  1.0000
  C   C1533     1.0  0.49023  0.24016  0.04737  1.0000
  H   H2436     1.0  0.49066  0.30604  0.98960  1.0000
  H   H2437     1.0  0.51981  0.00344  0.29408  1.0000
  C   C1534     1.0  0.55949  0.31528  0.01275  1.0000
  H   H2438     1.0  0.49571  0.28335  0.03658  1.0000
  H   H2439     1.0  0.51191  0.03332  0.29253  1.0000
  C   C1535     1.0  0.56426  0.29834  0.06349  1.0000
  H   H2440     1.0  0.56553  0.99303  0.26507  1.0000
  H   H2441     1.0  0.50755  0.26962  0.99939  1.0000
  S   S606      1.0  0.49038  0.31570  0.01617  1.0000
  C   C1536     1.0  0.51126  0.99257  0.12817  1.0000
  C   C1537     1.0  0.51094  0.02660  0.30272  1.0000
  N   N150      1.0  0.49160  0.26111  0.99960  1.0000
  H   H2442     1.0  0.50273  0.26863  0.06391  1.0000
  H   H2443     1.0  0.51567  0.18956  0.98963  1.0000
  N   N151      1.0  0.53393  0.18784  0.99534  1.0000
  H   H2444     1.0  0.56665  0.07007  0.30023  1.0000
  S   S607      1.0  0.49446  0.21493  0.98647  1.0000
  H   H2445     1.0  0.53141  0.02918  0.31123  1.0000
  H   H2446     1.0  0.58480  0.05371  0.29011  1.0000
  H   H2447     1.0  0.53679  0.31721  0.99460  1.0000
  S   S608      1.0  0.54717  0.14287  0.99164  1.0000
  H   H2448     1.0  0.50653  0.15340  0.99092  1.0000
  C   C1538     1.0  0.49618  0.04838  0.08706  1.0000
  H   H2449     1.0  0.56739  0.07472  0.31504  1.0000
  C   C1539     1.0  0.49745  0.03530  0.19612  1.0000
  H   H2450     1.0  0.49136  0.98985  0.17867  1.0000
  N   N152      1.0  0.50080  0.03468  0.09473  1.0000
  H   H2451     1.0  0.49541  0.01816  0.18289  1.0000
  H   H2452     1.0  0.52611  0.29351  0.99392  1.0000
  H   H2453     1.0  0.49531  0.02500  0.08245  1.0000
  H   H2454     1.0  0.50372  0.04158  0.11066  1.0000
  H   H2455     1.0  0.50159  0.05554  0.08796  1.0000
  H   H2456     1.0  0.50132  0.02464  0.11529  1.0000
  H   H2457     1.0  0.49780  0.04862  0.07620  1.0000
  H   H2458     1.0  0.53744  0.30461  0.06541  1.0000
  C   C1540     1.0  0.49821  0.03486  0.10910  1.0000
  H   H2459     1.0  0.49668  0.01505  0.09900  1.0000
  C   C1541     1.0  0.52104  0.98807  0.24846  1.0000
  C   C1542     1.0  0.52398  0.30328  0.98672  1.0000
  C   C1543     1.0  0.55239  0.32098  0.06523  1.0000
  S   S609      1.0  0.58248  0.32086  0.99475  1.0000
  H   H2460     1.0  0.53976  0.24110  0.98567  1.0000
  H   H2461     1.0  0.56463  0.05856  0.31616  1.0000
  Fe  Fe305     1.0  0.56794  0.00893  0.61109  1.0000
  H   H2462     1.0  0.52300  0.99409  0.57325  1.0000
  H   H2463     1.0  0.51075  0.04366  0.32654  1.0000
  Fe  Fe306     1.0  0.56543  0.00854  0.64055  1.0000
  H   H2464     1.0  0.70880  0.04310  0.48885  1.0000
  H   H2465     1.0  0.60324  0.01684  0.61671  1.0000
  C   C1544     1.0  0.72080  0.99938  0.51161  1.0000
  S   S610      1.0  0.55622  0.02353  0.62426  1.0000
  H   H2466     1.0  0.64936  0.07071  0.43451  1.0000
  Fe  Fe307     1.0  0.64717  0.00560  0.53894  1.0000
  S   S611      1.0  0.57736  0.01688  0.58930  1.0000
  S   S612      1.0  0.63910  0.00167  0.56156  1.0000
  Fe  Fe308     1.0  0.65154  0.02418  0.51125  1.0000
  S   S613      1.0  0.66511  0.00792  0.50135  1.0000
  S   S614      1.0  0.64797  0.04492  0.49825  1.0000
  H   H2467     1.0  0.66397  0.07334  0.43763  1.0000
  H   H2468     1.0  0.63230  0.99968  0.38718  1.0000
  Fe  Fe309     1.0  0.67430  0.00153  0.51925  1.0000
  C   C1545     1.0  0.49055  0.99906  0.62584  1.0000
  S   S615      1.0  0.63563  0.01261  0.52255  1.0000
  S   S616      1.0  0.66192  0.01889  0.52841  1.0000
  C   C1546     1.0  0.54396  0.98831  0.58467  1.0000
  N   N153      1.0  0.61345  0.01022  0.48585  1.0000
  S   S617      1.0  0.55699  0.03843  0.34229  1.0000
  H   H2469     1.0  0.52776  0.03627  0.34031  1.0000
  H   H2470     1.0  0.61728  0.99232  0.36975  1.0000
  H   H2471     1.0  0.54522  0.99316  0.37586  1.0000
  H   H2472     1.0  0.60148  0.02921  0.48991  1.0000
  S   S618      1.0  0.54882  0.99752  0.64801  1.0000
  C   C1547     1.0  0.61243  0.00340  0.50017  1.0000
  H   H2473     1.0  0.67421  0.03832  0.43330  1.0000
  H   H2474     1.0  0.68411  0.04272  0.47069  1.0000
  S   S619      1.0  0.61504  0.99404  0.45249  1.0000
  H   H2475     1.0  0.59175  0.02354  0.56205  1.0000
  C   C1548     1.0  0.68908  0.99297  0.44293  1.0000
  Fe  Fe310     1.0  0.62848  0.03896  0.43449  1.0000
  S   S620      1.0  0.63190  0.04279  0.41197  1.0000
  S   S621      1.0  0.62943  0.05510  0.44387  1.0000
  Fe  Fe311     1.0  0.62284  0.01170  0.43865  1.0000
  S   S622      1.0  0.62662  0.01274  0.41664  1.0000
  H   H2476     1.0  0.49220  0.02979  0.62820  1.0000
  Fe  Fe312     1.0  0.64391  0.02157  0.41499  1.0000
  S   S623      1.0  0.66325  0.01573  0.40053  1.0000
  Fe  Fe313     1.0  0.61423  0.03364  0.41558  1.0000
  S   S624      1.0  0.64155  0.01824  0.43726  1.0000
  S   S625      1.0  0.60959  0.03214  0.43790  1.0000
  S   S626      1.0  0.59585  0.03960  0.40673  1.0000
  H   H2477     1.0  0.67240  0.01830  0.42289  1.0000
  Fe  Fe314     1.0  0.72336  0.02827  0.41976  1.0000
  S   S627      1.0  0.71437  0.03401  0.40162  1.0000
  S   S628      1.0  0.71152  0.02870  0.44078  1.0000
  C   C1549     1.0  0.67703  0.02116  0.40137  1.0000
  C   C1550     1.0  0.68613  0.02494  0.38944  1.0000
  C   C1551     1.0  0.69737  0.02907  0.38971  1.0000
  C   C1552     1.0  0.69998  0.02888  0.40195  1.0000
  C   C1553     1.0  0.69111  0.02476  0.41397  1.0000
  C   C1554     1.0  0.67942  0.02125  0.41366  1.0000
  H   H2478     1.0  0.68436  0.02487  0.37992  1.0000
  H   H2479     1.0  0.70419  0.03223  0.38038  1.0000
  H   H2480     1.0  0.51349  0.00176  0.31866  1.0000
  H   H2481     1.0  0.58362  0.04708  0.32655  1.0000
  H   H2482     1.0  0.62145  0.01064  0.37651  1.0000
  C   C1555     1.0  0.49468  0.02366  0.35352  1.0000
  Fe  Fe315     1.0  0.57246  0.00136  0.34004  1.0000
  S   S629      1.0  0.55142  0.99789  0.61610  1.0000
  H   H2483     1.0  0.70228  0.01046  0.48878  1.0000
  C   C1556     1.0  0.61157  0.02482  0.48443  1.0000
  S   S630      1.0  0.72557  0.05188  0.45484  1.0000
  H   H2484     1.0  0.63490  0.00683  0.48139  1.0000
  C   C1557     1.0  0.51861  0.03266  0.34403  1.0000
  C   C1558     1.0  0.70970  0.03311  0.48686  1.0000
  H   H2485     1.0  0.69221  0.05308  0.47512  1.0000
  H   H2486     1.0  0.71373  0.99993  0.41551  1.0000
  H   H2487     1.0  0.62448  0.99363  0.58851  1.0000
  C   C1559     1.0  0.60581  0.03607  0.36777  1.0000
  H   H2488     1.0  0.60334  0.01296  0.47008  1.0000
  H   H2489     1.0  0.65776  0.04576  0.44089  1.0000
  H   H2490     1.0  0.70744  0.01797  0.47145  1.0000
  Fe  Fe316     1.0  0.72534  0.00877  0.44601  1.0000
  S   S631      1.0  0.69662  0.99383  0.51500  1.0000
  N   N154      1.0  0.59356  0.03705  0.60868  1.0000
  H   H2491     1.0  0.71286  0.98839  0.54271  1.0000
  H   H2492     1.0  0.70020  0.99663  0.41095  1.0000
  C   C1560     1.0  0.64287  0.04700  0.48326  1.0000
  C   C1561     1.0  0.63853  0.06006  0.47624  1.0000
  C   C1562     1.0  0.63429  0.06228  0.46432  1.0000
  C   C1563     1.0  0.63443  0.05147  0.45920  1.0000
  C   C1564     1.0  0.63903  0.03832  0.46601  1.0000
  C   C1565     1.0  0.64318  0.03608  0.47811  1.0000
  H   H2493     1.0  0.63828  0.06853  0.48013  1.0000
  H   H2494     1.0  0.63081  0.07246  0.45910  1.0000
  H   H2495     1.0  0.63942  0.02993  0.46196  1.0000
  H   H2496     1.0  0.64664  0.02594  0.48341  1.0000
  C   C1566     1.0  0.70715  0.00266  0.51733  1.0000
  C   C1567     1.0  0.71126  0.99545  0.40845  1.0000
  C   C1568     1.0  0.72971  0.00562  0.51376  1.0000
  C   C1569     1.0  0.72510  0.01513  0.52172  1.0000
  C   C1570     1.0  0.71137  0.01857  0.52734  1.0000
  C   C1571     1.0  0.70238  0.01236  0.52514  1.0000
  C   C1572     1.0  0.51625  0.02421  0.35677  1.0000
  C   C1573     1.0  0.59313  0.02303  0.61573  1.0000
  H   H2497     1.0  0.70772  0.02597  0.53350  1.0000
  H   H2498     1.0  0.69185  0.01492  0.52967  1.0000
  H   H2499     1.0  0.59918  0.05379  0.61153  1.0000
  H   H2500     1.0  0.61404  0.99232  0.50157  1.0000
  C   C1574     1.0  0.49523  0.01915  0.62837  1.0000
  H   H2501     1.0  0.68809  0.05199  0.41490  1.0000
  H   H2502     1.0  0.57983  0.05533  0.60210  1.0000
  C   C1575     1.0  0.59440  0.01167  0.58160  1.0000
  H   H2503     1.0  0.61271  0.03026  0.47368  1.0000
  C   C1576     1.0  0.61245  0.01366  0.56150  1.0000
  C   C1577     1.0  0.62178  0.00534  0.56893  1.0000
  H   H2504     1.0  0.53068  0.99949  0.31894  1.0000
  C   C1578     1.0  0.60369  0.00315  0.58900  1.0000
  H   H2505     1.0  0.54964  0.98955  0.59140  1.0000
  H   H2506     1.0  0.61576  0.01781  0.55091  1.0000
  S   S632      1.0  0.71811  0.99145  0.46120  1.0000
  H   H2507     1.0  0.58664  0.06286  0.32625  1.0000
  H   H2508     1.0  0.57304  0.04475  0.61753  1.0000
  S   S633      1.0  0.51866  0.02076  0.63262  1.0000
  H   H2509     1.0  0.68837  0.02452  0.50474  1.0000
  H   H2510     1.0  0.71404  0.00159  0.39815  1.0000
  H   H2511     1.0  0.61254  0.03109  0.59556  1.0000
  C   C1579     1.0  0.60230  0.03727  0.59511  1.0000
  H   H2512     1.0  0.52136  0.99262  0.63289  1.0000
  H   H2513     1.0  0.59284  0.01123  0.48667  1.0000
  C   C1580     1.0  0.69933  0.01902  0.48057  1.0000
  C   C1581     1.0  0.62678  0.00494  0.47799  1.0000
  C   C1582     1.0  0.59884  0.04314  0.61644  1.0000
  H   H2514     1.0  0.68836  0.99082  0.54713  1.0000
  H   H2515     1.0  0.59298  0.99346  0.39341  1.0000
  H   H2516     1.0  0.71830  0.03173  0.47819  1.0000
  S   S634      1.0  0.56803  0.00796  0.35935  1.0000
  N   N155      1.0  0.54626  0.98963  0.39655  1.0000
  H   H2517     1.0  0.57560  0.04025  0.60176  1.0000
  C   C1583     1.0  0.69899  0.99642  0.44677  1.0000
  C   C1584     1.0  0.58849  0.00054  0.42945  1.0000
  H   H2518     1.0  0.55024  0.00480  0.40376  1.0000
  C   C1585     1.0  0.59696  0.00255  0.43630  1.0000
  H   H2519     1.0  0.59828  0.03315  0.58889  1.0000
  H   H2520     1.0  0.71239  0.02539  0.49573  1.0000
  H   H2521     1.0  0.52348  0.00953  0.58703  1.0000
  C   C1586     1.0  0.53161  0.99358  0.40122  1.0000
  S   S635      1.0  0.58262  0.01788  0.32757  1.0000
  H   H2522     1.0  0.65154  0.05597  0.41932  1.0000
  C   C1587     1.0  0.49702  0.03222  0.34083  1.0000
  H   H2523     1.0  0.60915  0.03761  0.61749  1.0000
  H   H2524     1.0  0.70224  0.00560  0.44148  1.0000
  H   H2525     1.0  0.54459  0.99676  0.57570  1.0000
  C   C1588     1.0  0.69358  0.04310  0.47287  1.0000
  H   H2526     1.0  0.59251  0.04292  0.62680  1.0000
  C   C1589     1.0  0.59547  0.03737  0.39099  1.0000
  H   H2527     1.0  0.60441  0.99679  0.48130  1.0000
  C   C1590     1.0  0.58277  0.03424  0.37662  1.0000
  Fe  Fe317     1.0  0.57669  0.02557  0.34661  1.0000
  H   H2528     1.0  0.61580  0.03884  0.38161  1.0000
  H   H2529     1.0  0.69326  0.02433  0.42345  1.0000
  C   C1591     1.0  0.50790  0.01203  0.63054  1.0000
  H   H2530     1.0  0.67177  0.04905  0.44456  1.0000
  H   H2531     1.0  0.68664  0.06236  0.42617  1.0000
  H   H2532     1.0  0.68214  0.06975  0.41017  1.0000
  Fe  Fe318     1.0  0.54878  0.02007  0.35338  1.0000
  H   H2533     1.0  0.61445  0.03630  0.35949  1.0000
  H   H2534     1.0  0.67665  0.03288  0.49429  1.0000
  N   N156      1.0  0.69724  0.03206  0.48413  1.0000
  H   H2535     1.0  0.52802  0.00259  0.60299  1.0000
  Fe  Fe319     1.0  0.56226  0.02919  0.32435  1.0000
  H   H2536     1.0  0.57354  0.03304  0.37528  1.0000
  C   C1592     1.0  0.68179  0.06095  0.41881  1.0000
  C   C1593     1.0  0.66197  0.05734  0.41492  1.0000
  S   S636      1.0  0.57845  0.99490  0.62691  1.0000
  H   H2537     1.0  0.51251  0.00106  0.60080  1.0000
  Fe  Fe320     1.0  0.54059  0.01118  0.63056  1.0000
  H   H2538     1.0  0.62779  0.00959  0.46708  1.0000
  C   C1594     1.0  0.59885  0.01689  0.56784  1.0000
  H   H2539     1.0  0.66777  0.04830  0.41091  1.0000
  H   H2540     1.0  0.52711  0.00192  0.39364  1.0000
  N   N157      1.0  0.66792  0.05937  0.42500  1.0000
  H   H2541     1.0  0.57481  0.03596  0.39729  1.0000
  H   H2542     1.0  0.66162  0.06607  0.40621  1.0000
  C   C1595     1.0  0.68632  0.03304  0.49620  1.0000
  H   H2543     1.0  0.68484  0.04250  0.49951  1.0000
  H   H2544     1.0  0.60042  0.99893  0.59956  1.0000
  S   S637      1.0  0.52838  0.01912  0.36664  1.0000
  C   C1596     1.0  0.66795  0.04763  0.43644  1.0000
  C   C1597     1.0  0.50294  0.99173  0.62874  1.0000
  S   S638      1.0  0.59355  0.03228  0.35012  1.0000
  C   C1598     1.0  0.50896  0.03681  0.33620  1.0000
  H   H2545     1.0  0.59554  0.00718  0.39832  1.0000
  S   S639      1.0  0.55259  0.01194  0.33515  1.0000
  C   C1599     1.0  0.60303  0.00770  0.48079  1.0000
  C   C1600     1.0  0.57991  0.04471  0.60747  1.0000
  C   C1601     1.0  0.62166  0.00434  0.38679  1.0000
  H   H2546     1.0  0.70151  0.04263  0.46355  1.0000
  Fe  Fe321     1.0  0.72782  0.03719  0.44246  1.0000
  C   C1602     1.0  0.65991  0.07157  0.42987  1.0000
  S   S640      1.0  0.73635  0.02259  0.52493  1.0000
  H   H2547     1.0  0.58904  0.01824  0.61020  1.0000
  C   C1603     1.0  0.58893  0.05510  0.32026  1.0000
  C   C1604     1.0  0.59941  0.00085  0.39068  1.0000
  H   H2548     1.0  0.51829  0.01261  0.32582  1.0000
  C   C1605     1.0  0.61733  0.00012  0.58270  1.0000
  C   C1606     1.0  0.58352  0.03587  0.38907  1.0000
  H   H2549     1.0  0.68485  0.99939  0.43465  1.0000
  C   C1607     1.0  0.60296  0.99187  0.44540  1.0000
  C   C1608     1.0  0.59393  0.03437  0.36591  1.0000
  H   H2550     1.0  0.58668  0.02245  0.62605  1.0000
  C   C1609     1.0  0.60663  0.03745  0.38029  1.0000
  H   H2551     1.0  0.65966  0.08065  0.42153  1.0000
  H   H2552     1.0  0.69011  0.01774  0.47862  1.0000
  H   H2553     1.0  0.54807  0.00988  0.38672  1.0000
  C   C1610     1.0  0.51169  0.99822  0.63094  1.0000
  H   H2554     1.0  0.72455  0.99189  0.50559  1.0000
  H   H2555     1.0  0.60320  0.04766  0.58961  1.0000
  H   H2556     1.0  0.62863  0.99388  0.47907  1.0000
  Fe  Fe322     1.0  0.65019  0.99582  0.51385  1.0000
  C   C1611     1.0  0.52320  0.00083  0.59579  1.0000
  H   H2557     1.0  0.50231  0.01327  0.37138  1.0000
  S   S641      1.0  0.73628  0.00769  0.42486  1.0000
  H   H2558     1.0  0.59885  0.01242  0.43440  1.0000
  H   H2559     1.0  0.59983  0.05052  0.31891  1.0000
  H   H2560     1.0  0.60248  0.00700  0.50643  1.0000
  S   S642      1.0  0.73834  0.03900  0.42081  1.0000
  H   H2561     1.0  0.61902  0.02705  0.48854  1.0000
  H   H2562     1.0  0.62012  0.00517  0.50430  1.0000
  C   C1612     1.0  0.55222  0.00127  0.39431  1.0000
  N   N158      1.0  0.61361  0.99412  0.39021  1.0000
  H   H2563     1.0  0.58403  0.00888  0.42235  1.0000
  C   C1613     1.0  0.50422  0.01979  0.36154  1.0000
  H   H2564     1.0  0.61774  0.01125  0.39386  1.0000
  H   H2565     1.0  0.59797  0.00747  0.38081  1.0000
  H   H2566     1.0  0.73392  0.05115  0.47876  1.0000
  H   H2567     1.0  0.56326  0.99867  0.39069  1.0000
  H   H2568     1.0  0.52891  0.99711  0.41076  1.0000
  H   H2569     1.0  0.61222  0.99129  0.41134  1.0000
  N   N159      1.0  0.52994  0.98798  0.59164  1.0000
  Fe  Fe323     1.0  0.52835  0.02675  0.75269  1.0000
  S   S643      1.0  0.53792  0.04354  0.73950  1.0000
  Fe  Fe324     1.0  0.55151  0.00520  0.74327  1.0000
  S   S644      1.0  0.56328  0.01993  0.72930  1.0000
  C   C1614     1.0  0.57701  0.22686  0.86569  1.0000
  Fe  Fe325     1.0  0.55638  0.03057  0.74646  1.0000
  S   S645      1.0  0.57164  0.03752  0.75218  1.0000
  S   S646      1.0  0.54622  0.01480  0.76086  1.0000
  S   S647      1.0  0.53247  0.01566  0.73650  1.0000
  H   H2570     1.0  0.50964  0.07283  0.76143  1.0000
  C   C1615     1.0  0.50954  0.31814  0.92200  1.0000
  H   H2571     1.0  0.50981  0.10693  0.84178  1.0000
  H   H2572     1.0  0.51547  0.99548  0.73355  1.0000
  C   C1616     1.0  0.52004  0.18315  0.91589  1.0000
  H   H2573     1.0  0.49910  0.99713  0.82639  1.0000
  H   H2574     1.0  0.51457  0.08928  0.84841  1.0000
  H   H2575     1.0  0.58535  0.21785  0.86507  1.0000
  C   C1617     1.0  0.54462  0.03266  0.67858  1.0000
  N   N160      1.0  0.50911  0.00597  0.80666  1.0000
  H   H2576     1.0  0.50931  0.11127  0.89309  1.0000
  C   C1618     1.0  0.57807  0.00403  0.77729  1.0000
  C   C1619     1.0  0.51236  0.15345  0.96471  1.0000
  Fe  Fe326     1.0  0.51897  0.07293  0.82761  1.0000
  S   S648      1.0  0.53723  0.07869  0.82849  1.0000
  S   S649      1.0  0.50160  0.08776  0.82047  1.0000
  Fe  Fe327     1.0  0.52873  0.04344  0.83955  1.0000
  S   S650      1.0  0.54763  0.04669  0.84207  1.0000
  S   S651      1.0  0.52309  0.02337  0.84560  1.0000
  Fe  Fe328     1.0  0.53497  0.06539  0.84925  1.0000
  S   S652      1.0  0.53104  0.07164  0.86914  1.0000
  Fe  Fe329     1.0  0.54805  0.05964  0.82117  1.0000
  S   S653      1.0  0.56623  0.05871  0.80418  1.0000
  S   S654      1.0  0.51594  0.06072  0.84852  1.0000
  S   S655      1.0  0.52985  0.05529  0.81841  1.0000
  Fe  Fe330     1.0  0.54058  0.12199  0.93263  1.0000
  S   S656      1.0  0.55893  0.12385  0.91631  1.0000
  S   S657      1.0  0.54120  0.10951  0.95352  1.0000
  Fe  Fe331     1.0  0.52242  0.14032  0.91447  1.0000
  S   S658      1.0  0.53927  0.14422  0.89681  1.0000
  S   S659      1.0  0.50100  0.14942  0.91349  1.0000
  Fe  Fe332     1.0  0.54719  0.12187  0.90258  1.0000
  S   S660      1.0  0.55705  0.10954  0.88654  1.0000
  Fe  Fe333     1.0  0.54927  0.14577  0.91214  1.0000
  S   S661      1.0  0.56094  0.16039  0.91204  1.0000
  S   S662      1.0  0.52967  0.11790  0.91949  1.0000
  S   S663      1.0  0.53151  0.14399  0.92928  1.0000
  H   H2577     1.0  0.57987  0.06380  0.92877  1.0000
  Fe  Fe334     1.0  0.51064  0.25638  0.90758  1.0000
  S   S664      1.0  0.52758  0.25700  0.88961  1.0000
  H   H2578     1.0  0.59111  0.00891  0.75142  1.0000
  Fe  Fe335     1.0  0.52854  0.24071  0.92690  1.0000
  S   S665      1.0  0.54720  0.23955  0.91059  1.0000
  S   S666      1.0  0.52921  0.23048  0.94840  1.0000
  Fe  Fe336     1.0  0.53844  0.26117  0.90271  1.0000
  S   S667      1.0  0.55081  0.27675  0.89429  1.0000
  Fe  Fe337     1.0  0.53483  0.23538  0.89895  1.0000
  S   S668      1.0  0.54166  0.22120  0.88499  1.0000
  S   S669      1.0  0.52063  0.26278  0.91982  1.0000
  S   S670      1.0  0.51697  0.23439  0.91602  1.0000
  H   H2579     1.0  0.49557  0.04080  0.84997  1.0000
  H   H2580     1.0  0.51955  0.18991  0.89005  1.0000
  H   H2581     1.0  0.55274  0.31276  0.98358  1.0000
  C   C1620     1.0  0.49601  0.13802  0.90790  1.0000
  H   H2582     1.0  0.50273  0.00666  0.74282  1.0000
  H   H2583     1.0  0.49042  0.04815  0.72675  1.0000
  H   H2584     1.0  0.55446  0.30111  0.96527  1.0000
  C   C1621     1.0  0.55032  0.28551  0.90627  1.0000
  C   C1622     1.0  0.55215  0.29872  0.90201  1.0000
  H   H2585     1.0  0.57768  0.99912  0.78808  1.0000
  C   C1623     1.0  0.54682  0.30086  0.92520  1.0000
  C   C1624     1.0  0.54546  0.28749  0.92947  1.0000
  C   C1625     1.0  0.54702  0.27988  0.92003  1.0000
  H   H2586     1.0  0.52320  0.14872  0.96352  1.0000
  H   H2587     1.0  0.50067  0.12516  0.98055  1.0000
  H   H2588     1.0  0.54296  0.28307  0.94011  1.0000
  H   H2589     1.0  0.54569  0.26966  0.92343  1.0000
  H   H2590     1.0  0.50996  0.00737  0.82619  1.0000
  C   C1626     1.0  0.56529  0.01900  0.66837  1.0000
  H   H2591     1.0  0.50148  0.27537  0.98414  1.0000
  C   C1627     1.0  0.51391  0.19797  0.89560  1.0000
  H   H2592     1.0  0.50168  0.06116  0.77495  1.0000
  N   N161      1.0  0.50557  0.30611  0.92140  1.0000
  H   H2593     1.0  0.55614  0.09661  0.93109  1.0000
  C   C1628     1.0  0.50298  0.20344  0.91712  1.0000
  C   C1629     1.0  0.50665  0.13177  0.97258  1.0000
  C   C1630     1.0  0.49642  0.03190  0.75771  1.0000
  C   C1631     1.0  0.55548  0.17722  0.90448  1.0000
  C   C1632     1.0  0.55185  0.18072  0.89210  1.0000
  C   C1633     1.0  0.54801  0.19430  0.88598  1.0000
  C   C1634     1.0  0.54719  0.20435  0.89252  1.0000
  C   C1635     1.0  0.55055  0.20085  0.90504  1.0000
  C   C1636     1.0  0.55502  0.18729  0.91085  1.0000
  H   H2594     1.0  0.55238  0.17295  0.88709  1.0000
  H   H2595     1.0  0.54545  0.19700  0.87626  1.0000
  H   H2596     1.0  0.54982  0.20854  0.91021  1.0000
  H   H2597     1.0  0.55785  0.18457  0.92044  1.0000
  H   H2598     1.0  0.50777  0.04276  0.73992  1.0000
  H   H2599     1.0  0.51729  0.12648  0.97180  1.0000
  N   N162      1.0  0.53641  0.30783  0.97925  1.0000
  H   H2600     1.0  0.50739  0.00024  0.78945  1.0000
  H   H2601     1.0  0.50284  0.17683  0.90547  1.0000
  C   C1637     1.0  0.50743  0.99602  0.80029  1.0000
  S   S671      1.0  0.50857  0.02822  0.76711  1.0000
  S   S672      1.0  0.54363  0.31052  0.93724  1.0000
  H   H2602     1.0  0.53881  0.10352  0.98219  1.0000
  H   H2603     1.0  0.52698  0.03993  0.77907  1.0000
  C   C1638     1.0  0.53799  0.08298  0.87314  1.0000
  C   C1639     1.0  0.53159  0.08802  0.88480  1.0000
  C   C1640     1.0  0.53702  0.09658  0.88873  1.0000
  C   C1641     1.0  0.54911  0.09996  0.88120  1.0000
  C   C1642     1.0  0.55548  0.09498  0.86951  1.0000
  C   C1643     1.0  0.54988  0.08666  0.86539  1.0000
  H   H2604     1.0  0.52240  0.08522  0.89090  1.0000
  H   H2605     1.0  0.53198  0.10034  0.89773  1.0000
  H   H2606     1.0  0.56485  0.09750  0.86362  1.0000
  H   H2607     1.0  0.55496  0.08281  0.85644  1.0000
  H   H2608     1.0  0.52384  0.01701  0.80482  1.0000
  H   H2609     1.0  0.52490  0.29782  0.91063  1.0000
  C   C1644     1.0  0.53078  0.25891  0.97278  1.0000
  C   C1645     1.0  0.53535  0.24506  0.97697  1.0000
  C   C1646     1.0  0.53464  0.23630  0.96959  1.0000
  C   C1647     1.0  0.52942  0.24141  0.95801  1.0000
  C   C1648     1.0  0.52445  0.25522  0.95417  1.0000
  C   C1649     1.0  0.52524  0.26398  0.96145  1.0000
  H   H2610     1.0  0.49042  0.31729  0.91038  1.0000
  H   H2611     1.0  0.53848  0.22564  0.97264  1.0000
  H   H2612     1.0  0.51990  0.25921  0.94570  1.0000
  H   H2613     1.0  0.52155  0.27468  0.95831  1.0000
  H   H2614     1.0  0.49172  0.08685  0.84965  1.0000
  C   C1650     1.0  0.54957  0.13753  0.96724  1.0000
  C   C1651     1.0  0.54829  0.13024  0.95868  1.0000
  C   C1652     1.0  0.54429  0.11802  0.96402  1.0000
  H   H2615     1.0  0.51388  0.30841  0.90015  1.0000
  H   H2616     1.0  0.56519  0.98917  0.77101  1.0000
  H   H2617     1.0  0.55256  0.14704  0.96302  1.0000
  H   H2618     1.0  0.55038  0.13413  0.94793  1.0000
  H   H2619     1.0  0.54023  0.29552  0.96501  1.0000
  C   C1653     1.0  0.51435  0.30078  0.90973  1.0000
  H   H2620     1.0  0.52826  0.98864  0.75157  1.0000
  C   C1654     1.0  0.49873  0.18487  0.91128  1.0000
  C   C1655     1.0  0.50182  0.11863  0.89800  1.0000
  H   H2621     1.0  0.59871  0.22946  0.87208  1.0000
  H   H2622     1.0  0.57776  0.08355  0.90138  1.0000
  H   H2623     1.0  0.57624  0.22908  0.89722  1.0000
  H   H2624     1.0  0.53475  0.03881  0.67800  1.0000
  C   C1656     1.0  0.56944  0.04293  0.76708  1.0000
  C   C1657     1.0  0.55974  0.03962  0.77872  1.0000
  C   C1658     1.0  0.55856  0.04434  0.79030  1.0000
  C   C1659     1.0  0.56711  0.05230  0.79021  1.0000
  C   C1660     1.0  0.57693  0.05524  0.77864  1.0000
  C   C1661     1.0  0.57809  0.05059  0.76719  1.0000
  H   H2625     1.0  0.55328  0.03336  0.77885  1.0000
  H   H2626     1.0  0.55129  0.04161  0.79935  1.0000
  H   H2627     1.0  0.58367  0.06124  0.77851  1.0000
  H   H2628     1.0  0.58572  0.05305  0.75832  1.0000
  H   H2629     1.0  0.51598  0.12942  0.89822  1.0000
  C   C1662     1.0  0.53313  0.32076  0.96974  1.0000
  C   C1663     1.0  0.49423  0.06500  0.82096  1.0000
  C   C1664     1.0  0.54534  0.29770  0.97173  1.0000
  H   H2630     1.0  0.57488  0.00671  0.75252  1.0000
  C   C1665     1.0  0.49240  0.24475  0.89435  1.0000
  C   C1666     1.0  0.49349  0.20467  0.97662  1.0000
  C   C1667     1.0  0.49725  0.08848  0.87215  1.0000
  H   H2631     1.0  0.49837  0.99401  0.73767  1.0000
  C   C1668     1.0  0.58490  0.00127  0.75438  1.0000
  S   S673      1.0  0.53144  0.27007  0.98178  1.0000
  C   C1669     1.0  0.53359  0.01241  0.83537  1.0000
  C   C1670     1.0  0.54297  0.01697  0.82405  1.0000
  H   H2632     1.0  0.52771  0.31983  0.96259  1.0000
  H   H2633     1.0  0.50172  0.07842  0.86973  1.0000
  H   H2634     1.0  0.54424  0.02714  0.82185  1.0000
  H   H2635     1.0  0.55802  0.01195  0.80679  1.0000
  H   H2636     1.0  0.54172  0.06350  0.77222  1.0000
  H   H2637     1.0  0.51140  0.19028  0.95023  1.0000
  C   C1671     1.0  0.54031  0.99036  0.82998  1.0000
  H   H2638     1.0  0.49542  0.99980  0.66429  1.0000
  H   H2639     1.0  0.50028  0.29959  0.94291  1.0000
  H   H2640     1.0  0.49468  0.21066  0.91279  1.0000
  H   H2641     1.0  0.51086  0.16355  0.96668  1.0000
  H   H2642     1.0  0.52269  0.01431  0.78920  1.0000
  C   C1672     1.0  0.54678  0.13272  0.98122  1.0000
  H   H2643     1.0  0.51481  0.05516  0.76185  1.0000
  H   H2644     1.0  0.49923  0.23075  0.95647  1.0000
  H   H2645     1.0  0.55142  0.31667  0.90806  1.0000
  H   H2646     1.0  0.50392  0.28657  0.93384  1.0000
  N   N163      1.0  0.50893  0.19234  0.90998  1.0000
  H   H2647     1.0  0.54483  0.18756  0.97501  1.0000
  H   H2648     1.0  0.60415  0.99441  0.76825  1.0000
  H   H2649     1.0  0.49701  0.11434  0.86933  1.0000
  C   C1673     1.0  0.49077  0.11234  0.86359  1.0000
  H   H2650     1.0  0.51341  0.20439  0.96439  1.0000
  H   H2651     1.0  0.58405  0.08566  0.91456  1.0000
  C   C1674     1.0  0.49861  0.03922  0.74443  1.0000
  H   H2652     1.0  0.52505  0.17480  0.91055  1.0000
  C   C1675     1.0  0.50171  0.03104  0.87437  1.0000
  H   H2653     1.0  0.49518  0.17990  0.92192  1.0000
  C   C1676     1.0  0.57091  0.06566  0.92456  1.0000
  H   H2654     1.0  0.58383  0.01202  0.77460  1.0000
  H   H2655     1.0  0.49684  0.24683  0.96002  1.0000
  H   H2656     1.0  0.54836  0.09302  0.91294  1.0000
  H   H2657     1.0  0.56651  0.22085  0.89218  1.0000
  C   C1677     1.0  0.49162  0.30971  0.91985  1.0000
  C   C1678     1.0  0.53431  0.06337  0.76672  1.0000
  C   C1679     1.0  0.54011  0.19471  0.98180  1.0000
  N   N164      1.0  0.52144  0.06144  0.77599  1.0000
  H   H2658     1.0  0.50273  0.24470  0.94301  1.0000
  H   H2659     1.0  0.49788  0.99267  0.80524  1.0000
  H   H2660     1.0  0.53886  0.05519  0.76111  1.0000
  C   C1680     1.0  0.50313  0.19303  0.95830  1.0000
  C   C1681     1.0  0.57605  0.22430  0.88921  1.0000
  C   C1682     1.0  0.50998  0.09911  0.85126  1.0000
  H   H2661     1.0  0.49808  0.02283  0.79454  1.0000
  H   H2662     1.0  0.52067  0.20472  0.89427  1.0000
  H   H2663     1.0  0.51681  0.99098  0.82256  1.0000
  H   H2664     1.0  0.50235  0.24645  0.88967  1.0000
  C   C1683     1.0  0.51146  0.06273  0.76821  1.0000
  C   C1684     1.0  0.56243  0.02304  0.69062  1.0000
  H   H2665     1.0  0.49896  0.19964  0.92796  1.0000
  C   C1685     1.0  0.57485  0.08712  0.91092  1.0000
  S   S674      1.0  0.54007  0.03959  0.70275  1.0000
  H   H2666     1.0  0.51363  0.04620  0.79193  1.0000
  H   H2667     1.0  0.51647  0.17855  0.92667  1.0000
  C   C1686     1.0  0.49574  0.24174  0.95269  1.0000
  H   H2668     1.0  0.57409  0.06120  0.91554  1.0000
  H   H2669     1.0  0.50366  0.09003  0.87800  1.0000
  H   H2670     1.0  0.55464  0.30314  0.89138  1.0000
  H   H2671     1.0  0.50875  0.03709  0.86722  1.0000
  C   C1687     1.0  0.55309  0.08218  0.91562  1.0000
  H   H2672     1.0  0.52524  0.99543  0.84724  1.0000
  C   C1688     1.0  0.53234  0.99906  0.83838  1.0000
  H   H2673     1.0  0.50718  0.07034  0.79146  1.0000
  H   H2674     1.0  0.51679  0.10082  0.85656  1.0000
  H   H2675     1.0  0.56367  0.06011  0.93219  1.0000
  H   H2676     1.0  0.54536  0.07708  0.92297  1.0000
  H   H2677     1.0  0.53056  0.00078  0.80087  1.0000
  C   C1689     1.0  0.50560  0.12882  0.90106  1.0000
  C   C1690     1.0  0.50610  0.99609  0.74152  1.0000
  H   H2678     1.0  0.51051  0.20913  0.91642  1.0000
  H   H2679     1.0  0.53308  0.07305  0.75919  1.0000
  C   C1691     1.0  0.54965  0.03099  0.68996  1.0000
  N   N165      1.0  0.58403  0.99419  0.76860  1.0000
  H   H2680     1.0  0.57779  0.23365  0.85555  1.0000
  H   H2681     1.0  0.55577  0.07832  0.90625  1.0000
  C   C1692     1.0  0.52211  0.00972  0.80008  1.0000
  H   H2682     1.0  0.51486  0.08205  0.77785  1.0000
  C   C1693     1.0  0.55022  0.30644  0.91145  1.0000
  C   C1694     1.0  0.55233  0.02652  0.66791  1.0000
  H   H2683     1.0  0.58032  0.01144  0.68020  1.0000
  H   H2684     1.0  0.56956  0.08469  0.93764  1.0000
  H   H2685     1.0  0.51864  0.30184  0.97978  1.0000
  H   H2686     1.0  0.58429  0.21516  0.88919  1.0000
  C   C1695     1.0  0.51666  0.07171  0.78418  1.0000
  H   H2687     1.0  0.56767  0.00914  0.77633  1.0000
  C   C1696     1.0  0.49109  0.18912  0.96045  1.0000
  H   H2688     1.0  0.50152  0.03177  0.88467  1.0000
  N   N166      1.0  0.56494  0.08017  0.92111  1.0000
  H   H2689     1.0  0.53258  0.20280  0.97701  1.0000
  H   H2690     1.0  0.51161  0.29180  0.90879  1.0000
  H   H2691     1.0  0.54801  0.19942  0.98225  1.0000
  H   H2692     1.0  0.49896  0.02570  0.81006  1.0000
  H   H2693     1.0  0.51989  0.31563  0.92362  1.0000
  C   C1697     1.0  0.57029  0.01722  0.67978  1.0000
  C   C1698     1.0  0.56088  0.08573  0.93331  1.0000
  H   H2694     1.0  0.56644  0.02177  0.69928  1.0000
  C   C1699     1.0  0.54190  0.11298  0.97798  1.0000
  C   C1700     1.0  0.55084  0.00832  0.81558  1.0000
  C   C1701     1.0  0.50427  0.20098  0.96630  1.0000
  H   H2695     1.0  0.53050  0.04666  0.79117  1.0000
  N   N167      1.0  0.50422  0.14509  0.97564  1.0000
  Fe  Fe338     1.0  0.54382  0.03126  0.72369  1.0000
  N   N168      1.0  0.49644  0.09918  0.85986  1.0000
  N   N169      1.0  0.57725  0.23371  0.87594  1.0000
  C   C1702     1.0  0.58997  0.23814  0.87244  1.0000
  C   C1703     1.0  0.56597  0.24553  0.87642  1.0000
  H   H2696     1.0  0.56754  0.22335  0.86811  1.0000
  H   H2697     1.0  0.59123  0.24522  0.86246  1.0000
  H   H2698     1.0  0.59038  0.24342  0.87997  1.0000
  H   H2699     1.0  0.56658  0.25290  0.86661  1.0000
  H   H2700     1.0  0.56573  0.25092  0.88414  1.0000
  H   H2701     1.0  0.55622  0.24256  0.87891  1.0000
  H   H2702     1.0  0.55345  0.08072  0.94129  1.0000
  C   C1704     1.0  0.52325  0.04794  0.78494  1.0000
  H   H2703     1.0  0.57075  0.09812  0.90826  1.0000
  H   H2704     1.0  0.54858  0.28799  0.97862  1.0000
  C   C1705     1.0  0.49282  0.07884  0.81576  1.0000
  C   C1706     1.0  0.51853  0.98962  0.75898  1.0000
  H   H2705     1.0  0.52774  0.18854  0.91539  1.0000
  H   H2706     1.0  0.50614  0.02042  0.87350  1.0000
  H   H2707     1.0  0.52399  0.07113  0.79010  1.0000
  H   H2708     1.0  0.54794  0.99567  0.72310  1.0000
  H   H2709     1.0  0.51555  0.00001  0.76070  1.0000
  H   H2710     1.0  0.49321  0.02398  0.85637  1.0000
  H   H2711     1.0  0.50244  0.25224  0.98266  1.0000
  H   H2712     1.0  0.58916  0.99418  0.74749  1.0000
  H   H2713     1.0  0.50973  0.15493  0.95489  1.0000
  S   S675      1.0  0.57566  0.01225  0.65460  1.0000
  C   C1707     1.0  0.50679  0.29582  0.93392  1.0000
  H   H2714     1.0  0.49997  0.06000  0.82856  1.0000
  H   H2715     1.0  0.50554  0.20405  0.89068  1.0000
  H   H2716     1.0  0.51724  0.29285  0.93536  1.0000
  C   C1708     1.0  0.49814  0.01801  0.80525  1.0000
  H   H2717     1.0  0.50412  0.13259  0.96287  1.0000
  C   C1709     1.0  0.54945  0.99503  0.81847  1.0000
  H   H2718     1.0  0.54838  0.02797  0.65916  1.0000
  H   H2719     1.0  0.49521  0.22817  0.88518  1.0000
  H   H2720     1.0  0.49186  0.99799  0.76634  1.0000
  C   C1710     1.0  0.50873  0.00012  0.82108  1.0000
  H   H2721     1.0  0.49006  0.12067  0.85456  1.0000
  C   C1711     1.0  0.61228  0.58787  0.99081  1.0000
  S   S676      1.0  0.65198  0.41766  0.00152  1.0000
  H   H2722     1.0  0.61776  0.44904  0.06281  1.0000
  Fe  Fe339     1.0  0.64158  0.45123  0.01361  1.0000
  S   S677      1.0  0.64475  0.43113  0.02782  1.0000
  S   S678      1.0  0.63308  0.47094  0.02000  1.0000
  Fe  Fe340     1.0  0.66285  0.42595  0.01169  1.0000
  S   S679      1.0  0.68338  0.41504  0.01507  1.0000
  Fe  Fe341     1.0  0.63352  0.42490  0.01630  1.0000
  S   S680      1.0  0.61505  0.41618  0.02587  1.0000
  S   S681      1.0  0.66044  0.44650  0.99828  1.0000
  S   S682      1.0  0.62906  0.44555  0.00336  1.0000
  H   H2723     1.0  0.60329  0.45924  0.03259  1.0000
  S   S683      1.0  0.58361  0.64285  0.98901  1.0000
  S   S684      1.0  0.72359  0.45106  0.01062  1.0000
  C   C1712     1.0  0.51621  0.62836  0.99170  1.0000
  H   H2724     1.0  0.53219  0.34831  0.01836  1.0000
  H   H2725     1.0  0.72121  0.51200  0.98834  1.0000
  Fe  Fe342     1.0  0.67520  0.55349  0.00850  1.0000
  S   S685      1.0  0.66287  0.53937  0.02300  1.0000
  S   S686      1.0  0.69008  0.56219  0.01267  1.0000
  H   H2726     1.0  0.71041  0.47986  0.00568  1.0000
  S   S687      1.0  0.64917  0.54190  0.99794  1.0000
  H   H2727     1.0  0.55792  0.32525  0.03808  1.0000
  Fe  Fe343     1.0  0.64593  0.55337  0.01389  1.0000
  S   S688      1.0  0.62513  0.56000  0.02593  1.0000
  Fe  Fe344     1.0  0.66717  0.52935  0.00569  1.0000
  S   S689      1.0  0.67517  0.50754  0.00499  1.0000
  S   S690      1.0  0.65798  0.56826  0.00077  1.0000
  S   S691      1.0  0.68094  0.54240  0.99205  1.0000
  Fe  Fe345     1.0  0.57859  0.63153  0.01035  1.0000
  H   H2728     1.0  0.70340  0.49542  0.01107  1.0000
  S   S692      1.0  0.59706  0.62203  0.01902  1.0000
  Fe  Fe346     1.0  0.57771  0.34066  0.00092  1.0000
  H   H2729     1.0  0.67937  0.42329  0.98652  1.0000
  H   H2730     1.0  0.67612  0.39520  0.98676  1.0000
  H   H2731     1.0  0.73596  0.53922  0.99294  1.0000
  H   H2732     1.0  0.56136  0.32367  0.06622  1.0000
  C   C1713     1.0  0.50456  0.63398  0.01712  1.0000
  H   H2733     1.0  0.71535  0.56596  0.01338  1.0000
  S   S693      1.0  0.56566  0.62032  0.00645  1.0000
  S   S694      1.0  0.52771  0.63698  0.02111  1.0000
  H   H2734     1.0  0.58755  0.38838  0.02096  1.0000
  N   N170      1.0  0.60692  0.44482  0.05071  1.0000
  S   S695      1.0  0.55191  0.64947  0.98865  1.0000
  H   H2735     1.0  0.59028  0.46077  0.05581  1.0000
  C   C1714     1.0  0.68532  0.39640  0.98880  1.0000
  H   H2736     1.0  0.50200  0.58124  0.98851  1.0000
  C   C1715     1.0  0.61105  0.43007  0.05517  1.0000
  C   C1716     1.0  0.50809  0.34003  0.05284  1.0000
  C   C1717     1.0  0.52556  0.34594  0.02799  1.0000
  H   H2737     1.0  0.72878  0.47527  0.01734  1.0000
  H   H2738     1.0  0.67922  0.44296  0.01621  1.0000
  C   C1718     1.0  0.60850  0.38000  0.01464  1.0000
  C   C1719     1.0  0.52405  0.63065  0.99911  1.0000
  H   H2739     1.0  0.63367  0.39420  0.01443  1.0000
  C   C1720     1.0  0.61683  0.45132  0.05219  1.0000
  Fe  Fe347     1.0  0.54888  0.63809  0.01009  1.0000
  H   H2740     1.0  0.59875  0.44345  0.03489  1.0000
  H   H2741     1.0  0.69508  0.45682  0.01441  1.0000
  C   C1721     1.0  0.71075  0.49070  0.00303  1.0000
  H   H2742     1.0  0.72185  0.49088  0.02272  1.0000
  C   C1722     1.0  0.51957  0.34437  0.05199  1.0000
  S   S696      1.0  0.57921  0.34289  0.02077  1.0000
  H   H2743     1.0  0.68247  0.39924  0.99870  1.0000
  C   C1723     1.0  0.72432  0.50697  0.99802  1.0000
  H   H2744     1.0  0.61687  0.57821  0.98763  1.0000
  H   H2745     1.0  0.61175  0.42706  0.06589  1.0000
  H   H2746     1.0  0.58600  0.44497  0.05804  1.0000
  C   C1724     1.0  0.50254  0.62891  0.99695  1.0000
  H   H2747     1.0  0.73891  0.48736  0.01367  1.0000
  H   H2748     1.0  0.73441  0.50874  0.99692  1.0000
  C   C1725     1.0  0.59369  0.44968  0.05897  1.0000
  C   C1726     1.0  0.61744  0.57728  0.02382  1.0000
  C   C1727     1.0  0.60348  0.58132  0.02556  1.0000
  C   C1728     1.0  0.59713  0.59504  0.02366  1.0000
  C   C1729     1.0  0.60466  0.60478  0.02053  1.0000
  C   C1730     1.0  0.61860  0.60072  0.01900  1.0000
  C   C1731     1.0  0.62499  0.58705  0.02041  1.0000
  H   H2749     1.0  0.59756  0.57382  0.02827  1.0000
  H   H2750     1.0  0.58637  0.59805  0.02504  1.0000
  H   H2751     1.0  0.62446  0.60821  0.01664  1.0000
  H   H2752     1.0  0.63572  0.58410  0.01896  1.0000
  C   C1732     1.0  0.70440  0.55061  0.01702  1.0000
  C   C1733     1.0  0.71552  0.55533  0.01665  1.0000
  C   C1734     1.0  0.72691  0.54634  0.02050  1.0000
  C   C1735     1.0  0.72716  0.53262  0.02496  1.0000
  C   C1736     1.0  0.71600  0.52789  0.02541  1.0000
  C   C1737     1.0  0.70468  0.53685  0.02129  1.0000
  H   H2753     1.0  0.70148  0.41015  0.99122  1.0000
  H   H2754     1.0  0.61586  0.44447  0.03011  1.0000
  H   H2755     1.0  0.71611  0.51729  0.02898  1.0000
  H   H2756     1.0  0.69612  0.53314  0.02164  1.0000
  H   H2757     1.0  0.59395  0.44730  0.06980  1.0000
  H   H2758     1.0  0.53748  0.37648  0.99008  1.0000
  Fe  Fe348     1.0  0.56973  0.63263  0.98551  1.0000
  H   H2759     1.0  0.73540  0.55009  0.02023  1.0000
  H   H2760     1.0  0.52154  0.34556  0.06099  1.0000
  H   H2761     1.0  0.61839  0.58883  0.99721  1.0000
  H   H2762     1.0  0.65621  0.56354  0.06934  1.0000
  S   S697      1.0  0.56132  0.64833  0.01631  1.0000
  S   S698      1.0  0.60649  0.36584  0.01027  1.0000
  S   S699      1.0  0.54261  0.35285  0.03947  1.0000
  H   H2763     1.0  0.53463  0.62998  0.99504  1.0000
  C   C1738     1.0  0.59760  0.38961  0.01950  1.0000
  C   C1739     1.0  0.51822  0.63357  0.01181  1.0000
  Fe  Fe349     1.0  0.55876  0.35633  0.02079  1.0000
  C   C1740     1.0  0.62149  0.38178  0.01283  1.0000
  H   H2764     1.0  0.62693  0.44794  0.04605  1.0000
  C   C1741     1.0  0.51387  0.34170  0.02883  1.0000
  H   H2765     1.0  0.59401  0.61101  0.98993  1.0000
  S   S700      1.0  0.55700  0.35306  0.00157  1.0000
  C   C1742     1.0  0.62361  0.39307  0.01573  1.0000
  C   C1743     1.0  0.64478  0.48111  0.01589  1.0000
  C   C1744     1.0  0.64038  0.49473  0.01641  1.0000
  C   C1745     1.0  0.64961  0.50296  0.01305  1.0000
  C   C1746     1.0  0.66330  0.49758  0.00920  1.0000
  C   C1747     1.0  0.66768  0.48399  0.00866  1.0000
  C   C1748     1.0  0.65846  0.47578  0.01202  1.0000
  H   H2766     1.0  0.62982  0.49891  0.01947  1.0000
  H   H2767     1.0  0.64615  0.51341  0.01362  1.0000
  H   H2768     1.0  0.67826  0.47972  0.00582  1.0000
  H   H2769     1.0  0.66202  0.46525  0.01194  1.0000
  C   C1749     1.0  0.61274  0.40251  0.02091  1.0000
  C   C1750     1.0  0.59973  0.40070  0.02280  1.0000
  C   C1751     1.0  0.60609  0.44820  0.03647  1.0000
  H   H2770     1.0  0.59125  0.40790  0.02686  1.0000
  Fe  Fe350     1.0  0.58699  0.36157  0.00944  1.0000
  C   C1752     1.0  0.69454  0.42519  0.01354  1.0000
  C   C1753     1.0  0.70833  0.41967  0.01151  1.0000
  C   C1754     1.0  0.71738  0.42758  0.01029  1.0000
  C   C1755     1.0  0.71263  0.44099  0.01139  1.0000
  C   C1756     1.0  0.69884  0.44649  0.01346  1.0000
  C   C1757     1.0  0.68983  0.43866  0.01442  1.0000
  H   H2771     1.0  0.71207  0.40924  0.01093  1.0000
  H   H2772     1.0  0.72798  0.42322  0.00876  1.0000
  C   C1758     1.0  0.52835  0.34741  0.03960  1.0000
  H   H2773     1.0  0.60392  0.42485  0.05392  1.0000
  S   S701      1.0  0.49024  0.33352  0.04332  1.0000
  C   C1759     1.0  0.50507  0.33883  0.04131  1.0000
  H   H2774     1.0  0.61412  0.46245  0.04870  1.0000
  S   S702      1.0  0.58740  0.35793  0.98946  1.0000
  H   H2775     1.0  0.60217  0.58709  0.99721  1.0000
  N   N171      1.0  0.72436  0.49248  0.00157  1.0000
  C   C1760     1.0  0.72867  0.48622  0.01440  1.0000
  S   S703      1.0  0.49271  0.62677  0.98720  1.0000
  H   H2776     1.0  0.50133  0.33788  0.06250  1.0000
  S   S704      1.0  0.56658  0.37531  0.01133  1.0000
  H   H2777     1.0  0.73390  0.47504  0.99321  1.0000
  H   H2778     1.0  0.51163  0.34079  0.01986  1.0000
  C   C1761     1.0  0.49676  0.63159  0.00974  1.0000
  H   H2779     1.0  0.62999  0.37431  0.00927  1.0000
  Fe  Fe351     1.0  0.66264  0.55579  0.98564  1.0000
  H   H2780     1.0  0.55686  0.32568  0.01337  1.0000
  H   H2781     1.0  0.50000  0.63611  0.02699  1.0000
  H   H2782     1.0  0.70709  0.49531  0.99358  1.0000
  N   N172      1.0  0.66167  0.56572  0.04788  1.0000
  C   C1762     1.0  0.67129  0.57413  0.04587  1.0000
  C   C1763     1.0  0.65496  0.57026  0.03646  1.0000
  C   C1764     1.0  0.65154  0.56695  0.06047  1.0000
  C   C1765     1.0  0.66889  0.55154  0.04868  1.0000
  H   H2783     1.0  0.66624  0.58492  0.04507  1.0000
  H   H2784     1.0  0.67911  0.57335  0.03645  1.0000
  H   H2785     1.0  0.67655  0.57101  0.05429  1.0000
  H   H2786     1.0  0.64773  0.56405  0.03750  1.0000
  H   H2787     1.0  0.64930  0.58088  0.03565  1.0000
  H   H2788     1.0  0.66234  0.56967  0.02678  1.0000
  H   H2789     1.0  0.64408  0.56079  0.06217  1.0000
  H   H2790     1.0  0.64593  0.57754  0.06020  1.0000
  H   H2791     1.0  0.69240  0.38644  0.98990  1.0000
  H   H2792     1.0  0.66197  0.54488  0.05017  1.0000
  H   H2793     1.0  0.67416  0.54780  0.05712  1.0000
  H   H2794     1.0  0.67661  0.55026  0.03930  1.0000
  H   H2795     1.0  0.62098  0.42604  0.04912  1.0000
  H   H2796     1.0  0.60944  0.61379  0.99093  1.0000
  H   H2797     1.0  0.71731  0.51223  0.00583  1.0000
  C   C1766     1.0  0.73371  0.48597  0.99086  1.0000
  H   H2798     1.0  0.50738  0.65108  0.03927  1.0000
  H   H2799     1.0  0.54602  0.33044  0.06067  1.0000
  H   H2800     1.0  0.62978  0.48216  0.99241  1.0000
  Fe  Fe352     1.0  0.64822  0.43879  0.98950  1.0000
  Fe  Fe353     1.0  0.56665  0.37055  0.99204  1.0000
  H   H2801     1.0  0.49342  0.59807  0.99009  1.0000
  H   H2802     1.0  0.60440  0.38956  0.98828  1.0000
  H   H2803     1.0  0.61387  0.40100  0.98838  1.0000
  H   H2804     1.0  0.63018  0.42838  0.98553  1.0000
  H   H2805     1.0  0.62638  0.37293  0.98539  1.0000
  Fe  Fe354     1.0  0.60515  0.43131  0.93868  1.0000
  S   S705      1.0  0.60849  0.41155  0.93341  1.0000
  S   S706      1.0  0.59706  0.43289  0.96020  1.0000
  Fe  Fe355     1.0  0.61595  0.44504  0.91005  1.0000
  S   S707      1.0  0.61994  0.42635  0.90215  1.0000
  S   S708      1.0  0.62159  0.46464  0.89826  1.0000
  Fe  Fe356     1.0  0.59985  0.42361  0.91564  1.0000
  S   S709      1.0  0.58115  0.41965  0.91268  1.0000
  Fe  Fe357     1.0  0.62808  0.41591  0.92078  1.0000
  S   S710      1.0  0.64698  0.40117  0.92477  1.0000
  S   S711      1.0  0.59530  0.44330  0.92184  1.0000
  S   S712      1.0  0.62545  0.43468  0.92754  1.0000
  Fe  Fe358     1.0  0.52638  0.35751  0.91272  1.0000
  S   S713      1.0  0.54699  0.34441  0.90892  1.0000
  C   C1767     1.0  0.52841  0.37224  0.97644  1.0000
  Fe  Fe359     1.0  0.72281  0.42099  0.93465  1.0000
  S   S714      1.0  0.49652  0.63849  0.90852  1.0000
  H   H2806     1.0  0.68380  0.51724  0.97246  1.0000
  Fe  Fe360     1.0  0.55270  0.35773  0.91854  1.0000
  S   S715      1.0  0.57299  0.36313  0.91152  1.0000
  C   C1768     1.0  0.63771  0.56359  0.97019  1.0000
  S   S716      1.0  0.53270  0.37204  0.92022  1.0000
  C   C1769     1.0  0.70357  0.55507  0.96277  1.0000
  Fe  Fe361     1.0  0.62022  0.52312  0.92776  1.0000
  S   S717      1.0  0.63390  0.53068  0.93500  1.0000
  S   S718      1.0  0.61580  0.50254  0.93703  1.0000
  Fe  Fe362     1.0  0.61303  0.54960  0.90803  1.0000
  S   S719      1.0  0.62670  0.55938  0.91289  1.0000
  S   S720      1.0  0.59798  0.55865  0.89494  1.0000
  Fe  Fe363     1.0  0.64132  0.53936  0.91320  1.0000
  S   S721      1.0  0.66368  0.53379  0.90566  1.0000
  Fe  Fe364     1.0  0.61831  0.54985  0.93418  1.0000
  S   S722      1.0  0.61152  0.56078  0.95088  1.0000
  S   S723      1.0  0.62848  0.53053  0.90596  1.0000
  S   S724      1.0  0.60374  0.54143  0.92938  1.0000
  Fe  Fe365     1.0  0.54662  0.62488  0.90786  1.0000
  S   S725      1.0  0.54815  0.62841  0.92708  1.0000
  S   S726      1.0  0.56669  0.61903  0.89423  1.0000
  Fe  Fe366     1.0  0.51630  0.63308  0.91458  1.0000
  S   S727      1.0  0.51553  0.63693  0.93445  1.0000
  H   H2807     1.0  0.63260  0.45703  0.94776  1.0000
  Fe  Fe367     1.0  0.53247  0.64715  0.92338  1.0000
  C   C1770     1.0  0.59248  0.34483  0.95994  1.0000
  Fe  Fe368     1.0  0.53117  0.61798  0.93638  1.0000
  S   S728      1.0  0.53182  0.60302  0.95589  1.0000
  S   S729      1.0  0.53221  0.64475  0.90319  1.0000
  S   S730      1.0  0.53067  0.61297  0.91742  1.0000
  Fe  Fe369     1.0  0.72256  0.54506  0.92471  1.0000
  C   C1771     1.0  0.58049  0.33239  0.95352  1.0000
  S   S731      1.0  0.70280  0.55876  0.92177  1.0000
  N   N173      1.0  0.57999  0.34547  0.95617  1.0000
  H   H2808     1.0  0.71912  0.56406  0.97272  1.0000
  N   N174      1.0  0.69142  0.40656  0.97805  1.0000
  H   H2809     1.0  0.61312  0.48087  0.98078  1.0000
  H   H2810     1.0  0.62353  0.38184  0.95542  1.0000
  H   H2811     1.0  0.54228  0.32430  0.96368  1.0000
  H   H2812     1.0  0.63872  0.48829  0.94959  1.0000
  C   C1772     1.0  0.57855  0.35619  0.94399  1.0000
  H   H2813     1.0  0.56873  0.34025  0.97639  1.0000
  H   H2814     1.0  0.57113  0.33238  0.95091  1.0000
  H   H2815     1.0  0.60140  0.34219  0.95194  1.0000
  N   N175      1.0  0.62109  0.39155  0.97148  1.0000
  H   H2816     1.0  0.64552  0.48594  0.98287  1.0000
  C   C1773     1.0  0.54191  0.60824  0.96293  1.0000
  H   H2817     1.0  0.63541  0.38534  0.98394  1.0000
  H   H2818     1.0  0.71118  0.55102  0.95449  1.0000
  H   H2819     1.0  0.69370  0.55409  0.96214  1.0000
  Fe  Fe370     1.0  0.73668  0.53383  0.94740  1.0000
  C   C1774     1.0  0.58931  0.57527  0.89562  1.0000
  C   C1775     1.0  0.59607  0.58576  0.89047  1.0000
  C   C1776     1.0  0.58897  0.59910  0.89005  1.0000
  C   C1777     1.0  0.57511  0.60207  0.89511  1.0000
  C   C1778     1.0  0.56836  0.59156  0.90064  1.0000
  C   C1779     1.0  0.57543  0.57819  0.90068  1.0000
  H   H2820     1.0  0.60674  0.58361  0.88639  1.0000
  H   H2821     1.0  0.59422  0.60719  0.88570  1.0000
  H   H2822     1.0  0.55766  0.59376  0.90448  1.0000
  H   H2823     1.0  0.57012  0.57013  0.90457  1.0000
  C   C1780     1.0  0.67442  0.54104  0.90995  1.0000
  C   C1781     1.0  0.68776  0.53414  0.90967  1.0000
  C   C1782     1.0  0.69654  0.53950  0.91327  1.0000
  C   C1783     1.0  0.69215  0.55201  0.91675  1.0000
  C   C1784     1.0  0.67890  0.55904  0.91678  1.0000
  C   C1785     1.0  0.66997  0.55345  0.91365  1.0000
  H   H2824     1.0  0.69127  0.52455  0.90678  1.0000
  H   H2825     1.0  0.70675  0.53402  0.91318  1.0000
  H   H2826     1.0  0.67552  0.56877  0.91934  1.0000
  H   H2827     1.0  0.65974  0.55889  0.91379  1.0000
  C   C1786     1.0  0.62590  0.56255  0.95427  1.0000
  C   C1787     1.0  0.62608  0.56253  0.96735  1.0000
  H   H2828     1.0  0.57730  0.37002  0.87739  1.0000
  H   H2829     1.0  0.73964  0.47905  0.91015  1.0000
  C   C1788     1.0  0.68396  0.41913  0.90551  1.0000
  H   H2830     1.0  0.70790  0.41603  0.97375  1.0000
  C   C1789     1.0  0.49854  0.35627  0.88644  1.0000
  H   H2831     1.0  0.49968  0.58626  0.95312  1.0000
  H   H2832     1.0  0.69959  0.40980  0.95685  1.0000
  H   H2833     1.0  0.59369  0.33714  0.96937  1.0000
  H   H2834     1.0  0.62041  0.41037  0.95701  1.0000
  C   C1790     1.0  0.56845  0.34848  0.96725  1.0000
  C   C1791     1.0  0.57603  0.41368  0.95100  1.0000
  H   H2835     1.0  0.71751  0.50036  0.94127  1.0000
  H   H2836     1.0  0.62500  0.60943  0.96297  1.0000
  S   S732      1.0  0.72774  0.40578  0.95291  1.0000
  H   H2837     1.0  0.56960  0.59551  0.97610  1.0000
  H   H2838     1.0  0.56494  0.36134  0.88848  1.0000
  H   H2839     1.0  0.55708  0.38496  0.94832  1.0000
  C   C1792     1.0  0.61995  0.47532  0.90885  1.0000
  C   C1793     1.0  0.62659  0.48595  0.90436  1.0000
  C   C1794     1.0  0.62554  0.49428  0.91299  1.0000
  C   C1795     1.0  0.61770  0.49211  0.92606  1.0000
  C   C1796     1.0  0.61107  0.48150  0.93050  1.0000
  C   C1797     1.0  0.61212  0.47320  0.92188  1.0000
  H   H2840     1.0  0.63272  0.48759  0.89428  1.0000
  H   H2841     1.0  0.63095  0.50223  0.90957  1.0000
  H   H2842     1.0  0.60495  0.47978  0.94058  1.0000
  H   H2843     1.0  0.60674  0.46523  0.92525  1.0000
  C   C1798     1.0  0.57915  0.40343  0.91366  1.0000
  C   C1799     1.0  0.56618  0.40129  0.91634  1.0000
  C   C1800     1.0  0.56416  0.38877  0.91635  1.0000
  C   C1801     1.0  0.57511  0.37844  0.91320  1.0000
  C   C1802     1.0  0.58809  0.38049  0.91074  1.0000
  C   C1803     1.0  0.59011  0.39289  0.91115  1.0000
  H   H2844     1.0  0.55764  0.40940  0.91824  1.0000
  H   H2845     1.0  0.55412  0.38729  0.91843  1.0000
  H   H2846     1.0  0.59663  0.37255  0.90829  1.0000
  H   H2847     1.0  0.60014  0.39447  0.90898  1.0000
  C   C1804     1.0  0.66111  0.40825  0.91741  1.0000
  C   C1805     1.0  0.66193  0.41728  0.90493  1.0000
  H   H2848     1.0  0.58770  0.58334  0.91883  1.0000
  H   H2849     1.0  0.65384  0.41995  0.89976  1.0000
  H   H2850     1.0  0.67107  0.39783  0.93367  1.0000
  C   C1806     1.0  0.60940  0.43825  0.96390  1.0000
  C   C1807     1.0  0.61586  0.44758  0.95411  1.0000
  C   C1808     1.0  0.67343  0.42250  0.89889  1.0000
  H   H2851     1.0  0.61188  0.45282  0.94534  1.0000
  C   C1809     1.0  0.54187  0.62191  0.96015  1.0000
  S   S733      1.0  0.72168  0.52687  0.94152  1.0000
  H   H2852     1.0  0.55750  0.41361  0.97401  1.0000
  H   H2853     1.0  0.60335  0.62069  0.97568  1.0000
  C   C1810     1.0  0.72998  0.42916  0.85866  1.0000
  Fe  Fe371     1.0  0.70840  0.44959  0.92651  1.0000
  H   H2854     1.0  0.65767  0.56596  0.93887  1.0000
  H   H2855     1.0  0.50281  0.32279  0.93037  1.0000
  S   S734      1.0  0.51782  0.36573  0.95915  1.0000
  H   H2856     1.0  0.54903  0.43088  0.96983  1.0000
  H   H2857     1.0  0.58690  0.35418  0.93527  1.0000
  C   C1811     1.0  0.73928  0.41255  0.96941  1.0000
  H   H2858     1.0  0.69089  0.57665  0.94755  1.0000
  H   H2859     1.0  0.58889  0.32993  0.94499  1.0000
  H   H2860     1.0  0.60219  0.58150  0.92508  1.0000
  C   C1812     1.0  0.70074  0.57731  0.94871  1.0000
  C   C1813     1.0  0.67165  0.40483  0.92403  1.0000
  H   H2861     1.0  0.61136  0.37685  0.97039  1.0000
  H   H2862     1.0  0.54323  0.42647  0.95050  1.0000
  H   H2863     1.0  0.60330  0.60592  0.96166  1.0000
  C   C1814     1.0  0.70865  0.47793  0.92980  1.0000
  H   H2864     1.0  0.56910  0.35719  0.94098  1.0000
  C   C1815     1.0  0.71815  0.49355  0.93515  1.0000
  H   H2865     1.0  0.71726  0.58058  0.96202  1.0000
  H   H2866     1.0  0.57027  0.39132  0.86109  1.0000
  C   C1816     1.0  0.70746  0.48737  0.93724  1.0000
  C   C1817     1.0  0.53963  0.37674  0.95296  1.0000
  H   H2867     1.0  0.56588  0.39051  0.88564  1.0000
  H   H2868     1.0  0.65076  0.48951  0.95783  1.0000
  N   N176      1.0  0.67543  0.52411  0.95486  1.0000
  C   C1818     1.0  0.68355  0.51367  0.96362  1.0000
  C   C1819     1.0  0.68137  0.53605  0.94969  1.0000
  C   C1820     1.0  0.66166  0.52794  0.96268  1.0000
  C   C1821     1.0  0.67514  0.51890  0.94344  1.0000
  H   H2869     1.0  0.73083  0.49047  0.98100  1.0000
  H   H2870     1.0  0.69406  0.51073  0.95806  1.0000
  H   H2871     1.0  0.67946  0.50444  0.96764  1.0000
  H   H2872     1.0  0.68211  0.54001  0.95800  1.0000
  H   H2873     1.0  0.69157  0.53377  0.94328  1.0000
  H   H2874     1.0  0.67522  0.54434  0.94347  1.0000
  H   H2875     1.0  0.64214  0.46997  0.98418  1.0000
  H   H2876     1.0  0.65520  0.53560  0.95626  1.0000
  C   C1822     1.0  0.62522  0.60077  0.97176  1.0000
  H   H2877     1.0  0.66892  0.52650  0.93675  1.0000
  H   H2878     1.0  0.67097  0.50974  0.94690  1.0000
  H   H2879     1.0  0.68535  0.51627  0.93711  1.0000
  N   N177      1.0  0.66314  0.45420  0.92161  1.0000
  C   C1823     1.0  0.65131  0.46299  0.91665  1.0000
  C   C1824     1.0  0.66592  0.45983  0.93153  1.0000
  C   C1825     1.0  0.67480  0.45336  0.91018  1.0000
  C   C1826     1.0  0.66056  0.44065  0.92803  1.0000
  H   H2880     1.0  0.64227  0.46387  0.92494  1.0000
  H   H2881     1.0  0.64893  0.45901  0.90914  1.0000
  H   H2882     1.0  0.65290  0.47331  0.91176  1.0000
  H   H2883     1.0  0.65730  0.46072  0.94024  1.0000
  H   H2884     1.0  0.67473  0.45336  0.93557  1.0000
  H   H2885     1.0  0.66817  0.46997  0.92700  1.0000
  H   H2886     1.0  0.68387  0.44668  0.91350  1.0000
  H   H2887     1.0  0.67715  0.46338  0.90521  1.0000
  H   H2888     1.0  0.67304  0.44922  0.90245  1.0000
  H   H2889     1.0  0.65795  0.43631  0.92096  1.0000
  H   H2890     1.0  0.65211  0.44083  0.93697  1.0000
  H   H2891     1.0  0.66946  0.43360  0.93143  1.0000
  N   N178      1.0  0.58454  0.59476  0.93360  1.0000
  C   C1827     1.0  0.59114  0.58273  0.92794  1.0000
  C   C1828     1.0  0.56991  0.59611  0.93695  1.0000
  C   C1829     1.0  0.58791  0.60686  0.92366  1.0000
  C   C1830     1.0  0.58918  0.59337  0.94587  1.0000
  H   H2892     1.0  0.58311  0.61610  0.92769  1.0000
  H   H2893     1.0  0.61730  0.56143  0.97533  1.0000
  H   H2894     1.0  0.58897  0.57341  0.93530  1.0000
  H   H2895     1.0  0.56690  0.58716  0.94435  1.0000
  H   H2896     1.0  0.56468  0.60500  0.94140  1.0000
  H   H2897     1.0  0.56603  0.59741  0.92785  1.0000
  H   H2898     1.0  0.59889  0.60615  0.92069  1.0000
  H   H2899     1.0  0.55225  0.63660  0.96013  1.0000
  H   H2900     1.0  0.58436  0.60836  0.91435  1.0000
  H   H2901     1.0  0.58475  0.60248  0.95015  1.0000
  C   C1831     1.0  0.55875  0.42368  0.96770  1.0000
  H   H2902     1.0  0.60025  0.59178  0.94374  1.0000
  N   N179      1.0  0.55699  0.38039  0.87660  1.0000
  C   C1832     1.0  0.54396  0.37700  0.87862  1.0000
  C   C1833     1.0  0.55613  0.38806  0.88658  1.0000
  C   C1834     1.0  0.56048  0.38860  0.86291  1.0000
  H   H2903     1.0  0.54419  0.37107  0.87140  1.0000
  H   H2904     1.0  0.53579  0.38614  0.87745  1.0000
  H   H2905     1.0  0.54103  0.37087  0.88889  1.0000
  H   H2906     1.0  0.55334  0.38219  0.89699  1.0000
  H   H2907     1.0  0.54849  0.39765  0.88551  1.0000
  H   H2908     1.0  0.55282  0.39812  0.86127  1.0000
  H   H2909     1.0  0.58638  0.58459  0.95376  1.0000
  H   H2910     1.0  0.66152  0.53240  0.97105  1.0000
  N   N180      1.0  0.63197  0.48640  0.97097  1.0000
  H   H2911     1.0  0.56120  0.38311  0.85513  1.0000
  H   H2912     1.0  0.63376  0.50654  0.96906  1.0000
  H   H2913     1.0  0.69860  0.48939  0.94499  1.0000
  C   C1835     1.0  0.56179  0.60289  0.97178  1.0000
  C   C1836     1.0  0.63305  0.44264  0.96654  1.0000
  H   H2914     1.0  0.73634  0.42000  0.85517  1.0000
  N   N181      1.0  0.73624  0.43334  0.86713  1.0000
  S   S735      1.0  0.71428  0.44909  0.90477  1.0000
  N   N182      1.0  0.59437  0.52109  0.89603  1.0000
  C   C1837     1.0  0.58392  0.53114  0.88973  1.0000
  C   C1838     1.0  0.59288  0.52286  0.90973  1.0000
  C   C1839     1.0  0.60769  0.52295  0.88786  1.0000
  C   C1840     1.0  0.59300  0.50742  0.89681  1.0000
  H   H2915     1.0  0.58471  0.53008  0.87940  1.0000
  H   H2916     1.0  0.58479  0.54157  0.88890  1.0000
  H   H2917     1.0  0.57373  0.53019  0.89571  1.0000
  H   H2918     1.0  0.60084  0.51575  0.91465  1.0000
  H   H2919     1.0  0.59352  0.53317  0.90955  1.0000
  H   H2920     1.0  0.58309  0.52121  0.91630  1.0000
  H   H2921     1.0  0.61583  0.51555  0.89229  1.0000
  H   H2922     1.0  0.60907  0.53316  0.88711  1.0000
  H   H2923     1.0  0.60915  0.52175  0.87744  1.0000
  H   H2924     1.0  0.60051  0.49962  0.90184  1.0000
  H   H2925     1.0  0.59447  0.50554  0.88664  1.0000
  H   H2926     1.0  0.58297  0.50575  0.90266  1.0000
  S   S736      1.0  0.73004  0.41774  0.91360  1.0000
  H   H2927     1.0  0.50197  0.61142  0.96091  1.0000
  H   H2928     1.0  0.56622  0.42670  0.97112  1.0000
  H   H2929     1.0  0.56855  0.36194  0.87084  1.0000
  C   C1841     1.0  0.56479  0.43686  0.94525  1.0000
  C   C1842     1.0  0.68297  0.41044  0.91819  1.0000
  C   C1843     1.0  0.72018  0.47522  0.91990  1.0000
  C   C1844     1.0  0.55155  0.59875  0.96925  1.0000
  S   S737      1.0  0.54788  0.34503  0.93920  1.0000
  S   S738      1.0  0.69822  0.42588  0.89764  1.0000
  Fe  Fe372     1.0  0.54040  0.33294  0.92985  1.0000
  H   H2930     1.0  0.69110  0.40773  0.92331  1.0000
  S   S739      1.0  0.70148  0.43029  0.93297  1.0000
  C   C1845     1.0  0.56741  0.36789  0.87835  1.0000
  C   C1846     1.0  0.56218  0.61651  0.96821  1.0000
  H   H2931     1.0  0.63594  0.39841  0.95435  1.0000
  S   S740      1.0  0.51938  0.34513  0.93303  1.0000
  C   C1847     1.0  0.73822  0.42238  0.87900  1.0000
  H   H2932     1.0  0.63722  0.56379  0.93383  1.0000
  C   C1848     1.0  0.62765  0.44983  0.95542  1.0000
  H   H2933     1.0  0.67414  0.42920  0.88907  1.0000
  S   S741      1.0  0.57611  0.62146  0.96907  1.0000
  C   C1849     1.0  0.69496  0.40236  0.96514  1.0000
  C   C1850     1.0  0.72993  0.49024  0.92563  1.0000
  Fe  Fe373     1.0  0.70926  0.42887  0.91137  1.0000
  N   N183      1.0  0.56313  0.42339  0.95327  1.0000
  C   C1851     1.0  0.49242  0.60789  0.96413  1.0000
  C   C1852     1.0  0.63731  0.56374  0.94398  1.0000
  Fe  Fe374     1.0  0.52753  0.35837  0.94029  1.0000
  C   C1853     1.0  0.54844  0.38114  0.96960  1.0000
  Fe  Fe375     1.0  0.73943  0.51668  0.92807  1.0000
  S   S742      1.0  0.69659  0.46836  0.93355  1.0000
  S   S743      1.0  0.49817  0.33100  0.97705  1.0000
  C   C1854     1.0  0.54908  0.38146  0.95618  1.0000
  H   H2934     1.0  0.63935  0.37643  0.97072  1.0000
  H   H2935     1.0  0.54034  0.37673  0.94263  1.0000
  N   N184      1.0  0.70358  0.56919  0.96179  1.0000
  C   C1855     1.0  0.64888  0.56500  0.94681  1.0000
  C   C1856     1.0  0.63102  0.38109  0.97815  1.0000
  H   H2936     1.0  0.57526  0.40340  0.95680  1.0000
  H   H2937     1.0  0.55878  0.34995  0.96444  1.0000
  S   S744      1.0  0.72913  0.44045  0.92993  1.0000
  C   C1857     1.0  0.69319  0.57423  0.97284  1.0000
  C   C1858     1.0  0.55197  0.62607  0.96286  1.0000
  Fe  Fe376     1.0  0.73451  0.43819  0.90863  1.0000
  H   H2938     1.0  0.53433  0.62929  0.95542  1.0000
  C   C1859     1.0  0.62759  0.40231  0.96226  1.0000
  H   H2939     1.0  0.49945  0.61306  0.92796  1.0000
  C   C1860     1.0  0.52930  0.37213  0.96309  1.0000
  H   H2940     1.0  0.69295  0.58485  0.97248  1.0000
  H   H2941     1.0  0.72010  0.42682  0.86435  1.0000
  C   C1861     1.0  0.55308  0.41930  0.94906  1.0000
  H   H2942     1.0  0.72108  0.46826  0.91387  1.0000
  S   S745      1.0  0.51493  0.36456  0.89638  1.0000
  S   S746      1.0  0.73372  0.53368  0.96904  1.0000
  C   C1862     1.0  0.64915  0.56467  0.95996  1.0000
  H   H2943     1.0  0.70592  0.54855  0.97241  1.0000
  H   H2944     1.0  0.57834  0.36615  0.94563  1.0000
  H   H2945     1.0  0.63172  0.40714  0.96775  1.0000
  H   H2946     1.0  0.59262  0.35464  0.96165  1.0000
  N   N185      1.0  0.61157  0.59939  0.97923  1.0000
  H   H2947     1.0  0.63099  0.59161  0.96793  1.0000
  C   C1863     1.0  0.61007  0.39722  0.98172  1.0000
  H   H2948     1.0  0.61718  0.48306  0.96280  1.0000
  H   H2949     1.0  0.68605  0.40129  0.96243  1.0000
  C   C1864     1.0  0.60440  0.59718  0.97029  1.0000
  H   H2950     1.0  0.72826  0.43721  0.84962  1.0000
  H   H2951     1.0  0.65697  0.51913  0.96713  1.0000
  C   C1865     1.0  0.50369  0.58522  0.96204  1.0000
  C   C1866     1.0  0.49404  0.35187  0.91070  1.0000
  H   H2952     1.0  0.62168  0.50535  0.96089  1.0000
  C   C1867     1.0  0.63760  0.48090  0.98312  1.0000
  C   C1868     1.0  0.62611  0.50091  0.96991  1.0000
  H   H2953     1.0  0.67247  0.41929  0.97484  1.0000
  S   S747      1.0  0.56128  0.38532  0.97370  1.0000
  H   H2954     1.0  0.60282  0.40573  0.97704  1.0000
  H   H2955     1.0  0.56835  0.35778  0.97014  1.0000
  H   H2956     1.0  0.55154  0.40920  0.95496  1.0000
  S   S748      1.0  0.66394  0.56484  0.96379  1.0000
  H   H2957     1.0  0.63780  0.56371  0.98028  1.0000
  C   C1869     1.0  0.53808  0.37660  0.97971  1.0000
  H   H2958     1.0  0.70055  0.58808  0.94755  1.0000
  C   C1870     1.0  0.62147  0.47939  0.97193  1.0000
  C   C1871     1.0  0.61566  0.38550  0.96380  1.0000
  H   H2959     1.0  0.71752  0.44350  0.87764  1.0000
  H   H2960     1.0  0.58187  0.32410  0.96250  1.0000
  H   H2961     1.0  0.70840  0.57372  0.94015  1.0000
  S   S749      1.0  0.73905  0.53424  0.91055  1.0000
  H   H2962     1.0  0.56804  0.43693  0.93430  1.0000
  H   H2963     1.0  0.52659  0.32874  0.97505  1.0000
  C   C1872     1.0  0.50163  0.35699  0.89811  1.0000
  S   S750      1.0  0.64831  0.44477  0.96768  1.0000
  C   C1873     1.0  0.61418  0.43185  0.97557  1.0000
  H   H2964     1.0  0.51353  0.58810  0.95824  1.0000
  H   H2965     1.0  0.49620  0.35262  0.91977  1.0000
  H   H2966     1.0  0.50557  0.57441  0.96713  1.0000
  H   H2967     1.0  0.72852  0.42004  0.88525  1.0000
  C   C1874     1.0  0.49115  0.32130  0.97132  1.0000
  H   H2968     1.0  0.50425  0.36029  0.87669  1.0000
  H   H2969     1.0  0.68622  0.42755  0.96887  1.0000
  C   C1875     1.0  0.60432  0.61175  0.98414  1.0000
  H   H2970     1.0  0.60973  0.58812  0.96615  1.0000
  H   H2971     1.0  0.58381  0.41644  0.95410  1.0000
  H   H2972     1.0  0.72493  0.56605  0.95490  1.0000
  H   H2973     1.0  0.62551  0.46838  0.97300  1.0000
  C   C1876     1.0  0.68190  0.41973  0.97702  1.0000
  H   H2974     1.0  0.49081  0.37820  0.97084  1.0000
  H   H2975     1.0  0.57961  0.41314  0.94026  1.0000
  C   C1877     1.0  0.62614  0.43390  0.97681  1.0000
  C   C1878     1.0  0.64267  0.48435  0.95893  1.0000
  H   H2976     1.0  0.72981  0.41288  0.97653  1.0000
  H   H2977     1.0  0.60752  0.39291  0.95937  1.0000
  H   H2978     1.0  0.49115  0.36090  0.97852  1.0000
  H   H2979     1.0  0.55160  0.58818  0.97137  1.0000
  C   C1879     1.0  0.71679  0.57005  0.96288  1.0000
  H   H2980     1.0  0.55629  0.41878  0.93826  1.0000
  H   H2981     1.0  0.50719  0.64796  0.96942  1.0000
  H   H2982     1.0  0.69500  0.56820  0.98284  1.0000
  H   H2983     1.0  0.68307  0.57376  0.97234  1.0000
  H   H2984     1.0  0.55530  0.44452  0.94678  1.0000
  H   H2985     1.0  0.52044  0.36865  0.98430  1.0000
  H   H2986     1.0  0.72556  0.45393  0.86287  1.0000
  H   H2987     1.0  0.70243  0.39263  0.96543  1.0000
  H   H2988     1.0  0.52076  0.62605  0.98193  1.0000
  H   H2989     1.0  0.57249  0.44016  0.94804  1.0000
  C   C1880     1.0  0.72741  0.44547  0.87156  1.0000
  C   C1881     1.0  0.73077  0.48133  0.91782  1.0000
  H   H2990     1.0  0.64730  0.47349  0.95948  1.0000
  S   S751      1.0  0.73664  0.55274  0.93144  1.0000
  H   H2991     1.0  0.60901  0.42489  0.98336  1.0000
  H   H2992     1.0  0.50988  0.59513  0.97973  1.0000
  C   C1882     1.0  0.70359  0.40779  0.98119  1.0000
  H   H2993     1.0  0.49327  0.37286  0.94863  1.0000
  H   H2994     1.0  0.59417  0.59579  0.97576  1.0000
  H   H2995     1.0  0.50931  0.32589  0.91248  1.0000
  N   N186      1.0  0.49443  0.59362  0.97125  1.0000
  H   H2996     1.0  0.63090  0.60241  0.97827  1.0000
  H   H2997     1.0  0.61803  0.50282  0.97885  1.0000
  H   H2998     1.0  0.49353  0.35577  0.95707  1.0000
  H   H2999     1.0  0.73192  0.44898  0.87785  1.0000
  H   H3000     1.0  0.71148  0.39838  0.98114  1.0000
  C   C1883     1.0  0.50018  0.59188  0.98292  1.0000
  H   H3001     1.0  0.52635  0.65246  0.97461  1.0000
  Fe  Fe377     1.0  0.54670  0.86586  0.00202  1.0000
  S   S752      1.0  0.55272  0.86033  0.02200  1.0000
  C   C1884     1.0  0.49863  0.67590  0.02566  1.0000
  Fe  Fe378     1.0  0.51768  0.86585  0.01502  1.0000
  S   S753      1.0  0.52106  0.85977  0.03590  1.0000
  S   S754      1.0  0.49688  0.87160  0.01160  1.0000
  Fe  Fe379     1.0  0.53377  0.87515  0.02875  1.0000
  S   S755      1.0  0.52649  0.89059  0.04185  1.0000
  Fe  Fe380     1.0  0.53944  0.84561  0.02761  1.0000
  S   S756      1.0  0.54535  0.82377  0.03725  1.0000
  S   S757      1.0  0.52918  0.88204  0.00813  1.0000
  S   S758      1.0  0.53476  0.85018  0.00738  1.0000
  Fe  Fe381     1.0  0.53780  0.94886  0.09388  1.0000
  S   S759      1.0  0.55622  0.93283  0.09706  1.0000
  S   S760      1.0  0.53567  0.97081  0.08405  1.0000
  Fe  Fe382     1.0  0.51938  0.93034  0.11012  1.0000
  S   S761      1.0  0.53606  0.91288  0.11447  1.0000
  S   S762      1.0  0.49864  0.92841  0.12060  1.0000
  Fe  Fe383     1.0  0.54471  0.92794  0.11851  1.0000
  S   S763      1.0  0.55142  0.92313  0.13812  1.0000
  Fe  Fe384     1.0  0.54556  0.91939  0.09267  1.0000
  S   S764      1.0  0.55555  0.90376  0.07993  1.0000
  S   S765      1.0  0.52723  0.94487  0.11546  1.0000
  S   S766      1.0  0.52797  0.93588  0.08804  1.0000
  Fe  Fe385     1.0  0.51921  0.94647  0.20471  1.0000
  S   S767      1.0  0.49876  0.94736  0.21799  1.0000
  S   S768      1.0  0.51964  0.95629  0.18288  1.0000
  Fe  Fe386     1.0  0.53267  0.93221  0.22813  1.0000
  S   S769      1.0  0.51339  0.93128  0.24338  1.0000
  S   S770      1.0  0.55269  0.92379  0.23353  1.0000
  Fe  Fe387     1.0  0.50701  0.92612  0.22742  1.0000
  H   H3002     1.0  0.56517  0.96319  0.27373  1.0000
  Fe  Fe388     1.0  0.50692  0.95247  0.23256  1.0000
  C   C1885     1.0  0.49146  0.89293  0.05193  1.0000
  S   S771      1.0  0.52702  0.92472  0.21314  1.0000
  S   S772      1.0  0.52665  0.95395  0.21842  1.0000
  H   H3003     1.0  0.50002  0.68569  0.01874  1.0000
  C   C1886     1.0  0.54611  0.71124  0.01236  1.0000
  H   H3004     1.0  0.49703  0.92900  0.18293  1.0000
  H   H3005     1.0  0.51125  0.98061  0.07112  1.0000
  C   C1887     1.0  0.55010  0.68850  0.00907  1.0000
  C   C1888     1.0  0.50175  0.72536  0.99671  1.0000
  H   H3006     1.0  0.51505  0.92422  0.16148  1.0000
  H   H3007     1.0  0.51020  0.95915  0.09696  1.0000
  C   C1889     1.0  0.50200  0.96823  0.09634  1.0000
  H   H3008     1.0  0.55516  0.95905  0.24391  1.0000
  C   C1890     1.0  0.56091  0.95667  0.15050  1.0000
  H   H3009     1.0  0.54697  0.98250  0.12795  1.0000
  N   N187      1.0  0.55604  0.97096  0.14452  1.0000
  C   C1891     1.0  0.57383  0.96737  0.22267  1.0000
  H   H3010     1.0  0.55253  0.95149  0.15515  1.0000
  H   H3011     1.0  0.59910  0.97071  0.26475  1.0000
  H   H3012     1.0  0.53385  0.90433  0.16073  1.0000
  Fe  Fe389     1.0  0.52387  0.77472  0.01098  1.0000
  C   C1892     1.0  0.53728  0.81970  0.99417  1.0000
  S   S773      1.0  0.51257  0.79165  0.02145  1.0000
  Fe  Fe390     1.0  0.53494  0.74494  0.01038  1.0000
  C   C1893     1.0  0.53085  0.89496  0.27953  1.0000
  C   C1894     1.0  0.50231  0.90032  0.10036  1.0000
  H   H3013     1.0  0.54810  0.67854  0.01250  1.0000
  H   H3014     1.0  0.57124  0.97296  0.10373  1.0000
  S   S774      1.0  0.54439  0.76138  0.01064  1.0000
  H   H3015     1.0  0.51368  0.91423  0.09986  1.0000
  H   H3016     1.0  0.50288  0.97360  0.06307  1.0000
  H   H3017     1.0  0.54349  0.86302  0.09165  1.0000
  H   H3018     1.0  0.50439  0.92469  0.20406  1.0000
  N   N188      1.0  0.49624  0.97034  0.08460  1.0000
  H   H3019     1.0  0.51892  0.92096  0.27435  1.0000
  C   C1895     1.0  0.55685  0.95485  0.23494  1.0000
  H   H3020     1.0  0.51364  0.88176  0.07801  1.0000
  H   H3021     1.0  0.52259  0.68093  0.02332  1.0000
  C   C1896     1.0  0.52933  0.97776  0.25577  1.0000
  Fe  Fe391     1.0  0.54152  0.92531  0.30925  1.0000
  H   H3022     1.0  0.50312  0.69259  0.03802  1.0000
  S   S775      1.0  0.54343  0.98056  0.25891  1.0000
  H   H3023     1.0  0.56448  0.79379  0.99209  1.0000
  H   H3024     1.0  0.50772  0.86739  0.07874  1.0000
  C   C1897     1.0  0.56718  0.98721  0.27513  1.0000
  H   H3025     1.0  0.51518  0.92534  0.14426  1.0000
  H   H3026     1.0  0.52684  0.66823  0.03761  1.0000
  H   H3027     1.0  0.53384  0.87933  0.08574  1.0000
  H   H3028     1.0  0.49903  0.88329  0.05219  1.0000
  C   C1898     1.0  0.49596  0.92100  0.20413  1.0000
  C   C1899     1.0  0.56041  0.82111  0.98599  1.0000
  H   H3029     1.0  0.50553  0.71771  0.00473  1.0000
  H   H3030     1.0  0.51422  0.87283  0.10263  1.0000
  H   H3031     1.0  0.55141  0.97758  0.16301  1.0000
  C   C1900     1.0  0.51629  0.96213  0.25656  1.0000
  N   N189      1.0  0.57816  0.97521  0.27408  1.0000
  S   S776      1.0  0.55089  0.91067  0.29571  1.0000
  H   H3032     1.0  0.53313  0.95696  0.26585  1.0000
  H   H3033     1.0  0.51446  0.95210  0.25966  1.0000
  C   C1901     1.0  0.55241  0.92095  0.25071  1.0000
  C   C1902     1.0  0.56161  0.91017  0.25632  1.0000
  C   C1903     1.0  0.56131  0.90742  0.27008  1.0000
  C   C1904     1.0  0.55218  0.91576  0.27823  1.0000
  C   C1905     1.0  0.54341  0.92699  0.27250  1.0000
  C   C1906     1.0  0.54328  0.92935  0.25881  1.0000
  H   H3034     1.0  0.56874  0.90367  0.25010  1.0000
  H   H3035     1.0  0.56811  0.89871  0.27444  1.0000
  H   H3036     1.0  0.53635  0.93348  0.27874  1.0000
  H   H3037     1.0  0.53618  0.93768  0.25447  1.0000
  H   H3038     1.0  0.51519  0.96294  0.07226  1.0000
  H   H3039     1.0  0.50287  0.89834  0.30447  1.0000
  H   H3040     1.0  0.49343  0.65962  0.05005  1.0000
  C   C1907     1.0  0.50817  0.97237  0.24901  1.0000
  H   H3041     1.0  0.52154  0.84434  0.08586  1.0000
  H   H3042     1.0  0.57715  0.97498  0.21357  1.0000
  H   H3043     1.0  0.57336  0.97635  0.14630  1.0000
  H   H3044     1.0  0.50832  0.88936  0.27806  1.0000
  C   C1908     1.0  0.52678  0.96487  0.26007  1.0000
  H   H3045     1.0  0.53600  0.84897  0.07383  1.0000
  C   C1909     1.0  0.54416  0.97892  0.09028  1.0000
  C   C1910     1.0  0.51329  0.89401  0.29964  1.0000
  H   H3046     1.0  0.51407  0.88316  0.30050  1.0000
  C   C1911     1.0  0.49078  0.95862  0.08575  1.0000
  C   C1912     1.0  0.50680  0.97196  0.07219  1.0000
  C   C1913     1.0  0.55550  0.97181  0.09536  1.0000
  H   H3047     1.0  0.51323  0.90552  0.13744  1.0000
  H   H3048     1.0  0.50317  0.90550  0.02765  1.0000
  C   C1914     1.0  0.51592  0.91538  0.28487  1.0000
  H   H3049     1.0  0.55921  0.96124  0.09536  1.0000
  C   C1915     1.0  0.54162  0.93178  0.15082  1.0000
  C   C1916     1.0  0.53244  0.94390  0.14790  1.0000
  C   C1917     1.0  0.52531  0.95101  0.15797  1.0000
  C   C1918     1.0  0.52735  0.94613  0.17107  1.0000
  C   C1919     1.0  0.53628  0.93384  0.17416  1.0000
  C   C1920     1.0  0.54342  0.92672  0.16404  1.0000
  H   H3050     1.0  0.53129  0.94824  0.13778  1.0000
  H   H3051     1.0  0.51854  0.96058  0.15546  1.0000
  H   H3052     1.0  0.53809  0.93007  0.18418  1.0000
  H   H3053     1.0  0.55059  0.91742  0.16640  1.0000
  C   C1921     1.0  0.49601  0.91511  0.11584  1.0000
  H   H3054     1.0  0.56712  0.96500  0.20113  1.0000
  H   H3055     1.0  0.55438  0.95574  0.21018  1.0000
  H   H3056     1.0  0.57127  0.94854  0.21163  1.0000
  H   H3057     1.0  0.53325  0.71371  0.98777  1.0000
  H   H3058     1.0  0.53728  0.82154  0.00397  1.0000
  H   H3059     1.0  0.55549  0.96566  0.12658  1.0000
  N   N190      1.0  0.52537  0.86289  0.08657  1.0000
  H   H3060     1.0  0.50178  0.66816  0.01950  1.0000
  Fe  Fe392     1.0  0.54623  0.76633  0.98829  1.0000
  C   C1922     1.0  0.53506  0.89451  0.05182  1.0000
  C   C1923     1.0  0.54858  0.88889  0.05172  1.0000
  C   C1924     1.0  0.55479  0.89198  0.06023  1.0000
  C   C1925     1.0  0.54757  0.90073  0.06886  1.0000
  C   C1926     1.0  0.53407  0.90638  0.06890  1.0000
  C   C1927     1.0  0.52786  0.90329  0.06042  1.0000
  H   H3061     1.0  0.55426  0.88217  0.04511  1.0000
  H   H3062     1.0  0.56525  0.88758  0.06012  1.0000
  H   H3063     1.0  0.52837  0.91306  0.07552  1.0000
  H   H3064     1.0  0.51740  0.90770  0.06058  1.0000
  C   C1928     1.0  0.53618  0.81444  0.03355  1.0000
  C   C1929     1.0  0.54138  0.80083  0.03326  1.0000
  C   C1930     1.0  0.53432  0.79367  0.02943  1.0000
  C   C1931     1.0  0.52188  0.80006  0.02626  1.0000
  C   C1932     1.0  0.51660  0.81353  0.02692  1.0000
  C   C1933     1.0  0.52377  0.82075  0.03040  1.0000
  H   H3065     1.0  0.55098  0.79589  0.03577  1.0000
  H   H3066     1.0  0.53840  0.78320  0.02912  1.0000
  H   H3067     1.0  0.50712  0.81850  0.02437  1.0000
  H   H3068     1.0  0.51974  0.83125  0.03057  1.0000
  H   H3069     1.0  0.57443  0.97327  0.13013  1.0000
  C   C1934     1.0  0.55507  0.71443  0.00013  1.0000
  H   H3070     1.0  0.56625  0.95551  0.15850  1.0000
  S   S777      1.0  0.53845  0.74892  0.98799  1.0000
  C   C1935     1.0  0.49624  0.83727  0.00264  1.0000
  C   C1936     1.0  0.51751  0.86261  0.10049  1.0000
  C   C1937     1.0  0.49757  0.89808  0.02771  1.0000
  S   S778      1.0  0.51418  0.75789  0.01297  1.0000
  H   H3071     1.0  0.58874  0.95903  0.28719  1.0000
  H   H3072     1.0  0.52242  0.87114  0.06644  1.0000
  N   N191      1.0  0.55071  0.81281  0.98793  1.0000
  C   C1938     1.0  0.50083  0.84711  0.00543  1.0000
  H   H3073     1.0  0.55383  0.98423  0.21162  1.0000
  H   H3074     1.0  0.49980  0.92619  0.31269  1.0000
  H   H3075     1.0  0.53706  0.69562  0.02647  1.0000
  H   H3076     1.0  0.51040  0.90522  0.26705  1.0000
  C   C1939     1.0  0.50419  0.65913  0.04506  1.0000
  H   H3077     1.0  0.57299  0.97151  0.25753  1.0000
  H   H3078     1.0  0.50736  0.68007  0.05240  1.0000
  C   C1940     1.0  0.50456  0.73813  0.99350  1.0000
  C   C1941     1.0  0.52068  0.67119  0.02994  1.0000
  H   H3079     1.0  0.51120  0.89038  0.14982  1.0000
  H   H3080     1.0  0.50483  0.88828  0.02774  1.0000
  S   S779      1.0  0.52612  0.94435  0.30502  1.0000
  H   H3081     1.0  0.50556  0.92046  0.28892  1.0000
  C   C1942     1.0  0.49186  0.92334  0.19209  1.0000
  C   C1943     1.0  0.53007  0.84908  0.08430  1.0000
  C   C1944     1.0  0.56233  0.97847  0.10005  1.0000
  H   H3082     1.0  0.52342  0.85613  0.10798  1.0000
  H   H3083     1.0  0.55565  0.80073  0.00655  1.0000
  C   C1945     1.0  0.54652  0.97767  0.15501  1.0000
  H   H3084     1.0  0.53421  0.90042  0.26901  1.0000
  H   H3085     1.0  0.53794  0.89516  0.28538  1.0000
  H   H3086     1.0  0.49482  0.83912  0.03373  1.0000
  S   S780      1.0  0.53766  0.72341  0.02201  1.0000
  C   C1946     1.0  0.54381  0.69818  0.01691  1.0000
  H   H3087     1.0  0.57124  0.96414  0.29394  1.0000
  H   H3088     1.0  0.49865  0.94918  0.08625  1.0000
  H   H3089     1.0  0.49442  0.96701  0.10591  1.0000
  H   H3090     1.0  0.51043  0.84458  0.00799  1.0000
  C   C1947     1.0  0.54924  0.97199  0.13381  1.0000
  H   H3091     1.0  0.56070  0.82296  0.99572  1.0000
  N   N192      1.0  0.56129  0.96429  0.22234  1.0000
  H   H3092     1.0  0.49725  0.90460  0.28199  1.0000
  S   S781      1.0  0.49358  0.91209  0.23140  1.0000
  H   H3093     1.0  0.53797  0.97266  0.15993  1.0000
  C   C1948     1.0  0.50174  0.68256  0.04434  1.0000
  H   H3094     1.0  0.55730  0.72430  0.99677  1.0000
  C   C1949     1.0  0.49425  0.72247  0.98944  1.0000
  H   H3095     1.0  0.49834  0.78271  0.99859  1.0000
  H   H3096     1.0  0.54331  0.86887  0.07414  1.0000
  H   H3097     1.0  0.50787  0.97199  0.28467  1.0000
  H   H3098     1.0  0.49451  0.97556  0.19210  1.0000
  H   H3099     1.0  0.49796  0.90523  0.14986  1.0000
  H   H3100     1.0  0.50483  0.67467  0.98704  1.0000
  C   C1950     1.0  0.53701  0.86876  0.08445  1.0000
  H   H3101     1.0  0.53197  0.88429  0.27936  1.0000
  H   H3102     1.0  0.56786  0.95121  0.14280  1.0000
  C   C1951     1.0  0.57463  0.96632  0.26777  1.0000
  H   H3103     1.0  0.53384  0.90538  0.14366  1.0000
  Fe  Fe393     1.0  0.56537  0.65863  0.99450  1.0000
  Fe  Fe394     1.0  0.53789  0.95279  0.31392  1.0000
  N   N193      1.0  0.51460  0.90579  0.15715  1.0000
  C   C1952     1.0  0.50905  0.89992  0.17131  1.0000
  C   C1953     1.0  0.51106  0.92061  0.15485  1.0000
  C   C1954     1.0  0.50901  0.90150  0.14820  1.0000
  C   C1955     1.0  0.52930  0.90114  0.15424  1.0000
  H   H3104     1.0  0.51256  0.90346  0.17836  1.0000
  H   H3105     1.0  0.51197  0.88876  0.17353  1.0000
  H   H3106     1.0  0.49795  0.90272  0.17369  1.0000
  H   H3107     1.0  0.50003  0.92446  0.15692  1.0000
  C   C1956     1.0  0.50782  0.90002  0.27781  1.0000
  H   H3108     1.0  0.52000  0.89473  0.30567  1.0000
  H   H3109     1.0  0.49733  0.95974  0.30735  1.0000
  C   C1957     1.0  0.50498  0.91013  0.10504  1.0000
  H   H3110     1.0  0.58929  0.98507  0.25550  1.0000
  H   H3111     1.0  0.53239  0.89002  0.15582  1.0000
  H   H3112     1.0  0.58205  0.95822  0.22316  1.0000
  S   S782      1.0  0.49073  0.70653  0.99346  1.0000
  C   C1958     1.0  0.55087  0.97681  0.22102  1.0000
  H   H3113     1.0  0.50876  0.89729  0.09140  1.0000
  H   H3114     1.0  0.51067  0.74012  0.99894  1.0000
  S   S783      1.0  0.54264  0.97317  0.30594  1.0000
  Fe  Fe395     1.0  0.51849  0.76303  0.99052  1.0000
  H   H3115     1.0  0.52244  0.91649  0.29087  1.0000
  C   C1959     1.0  0.51692  0.87113  0.07702  1.0000
  N   N194      1.0  0.50632  0.67219  0.03625  1.0000
  H   H3116     1.0  0.50235  0.82721  0.00294  1.0000
  C   C1960     1.0  0.58025  0.96791  0.28763  1.0000
  H   H3117     1.0  0.53659  0.84258  0.09124  1.0000
  H   H3118     1.0  0.49748  0.98229  0.27329  1.0000
  C   C1961     1.0  0.55884  0.69182  0.99672  1.0000
  H   H3119     1.0  0.50828  0.85884  0.10231  1.0000
  H   H3120     1.0  0.52447  0.66355  0.02366  1.0000
  C   C1962     1.0  0.55469  0.79960  0.99678  1.0000
  H   H3121     1.0  0.54728  0.95253  0.23510  1.0000
  S   S784      1.0  0.52659  0.78087  0.98857  1.0000
  H   H3122     1.0  0.49093  0.68355  0.04930  1.0000
  N   N195      1.0  0.51696  0.90109  0.28546  1.0000
  C   C1963     1.0  0.56363  0.95815  0.21078  1.0000
  H   H3123     1.0  0.59332  0.98634  0.27023  1.0000
  H   H3124     1.0  0.54118  0.97487  0.22095  1.0000
  C   C1964     1.0  0.56147  0.70473  0.99240  1.0000
  S   S785      1.0  0.49589  0.96857  0.24371  1.0000
  H   H3125     1.0  0.53962  0.96874  0.13794  1.0000
  H   H3126     1.0  0.58258  0.95705  0.26695  1.0000
  C   C1965     1.0  0.56754  0.97749  0.13872  1.0000
  H   H3127     1.0  0.56433  0.94515  0.23620  1.0000
  H   H3128     1.0  0.49634  0.82889  0.05006  1.0000
  H   H3129     1.0  0.54723  0.79332  0.99903  1.0000
  C   C1966     1.0  0.55348  0.97472  0.31484  1.0000
  C   C1967     1.0  0.49793  0.97882  0.28409  1.0000
  S   S786      1.0  0.56568  0.68057  0.98585  1.0000
  H   H3130     1.0  0.50634  0.97681  0.09577  1.0000
  H   H3131     1.0  0.49415  0.90102  0.01811  1.0000
  H   H3132     1.0  0.54899  0.98166  0.22958  1.0000
  H   H3133     1.0  0.58236  0.97447  0.29296  1.0000
  H   H3134     1.0  0.49644  0.90052  0.05269  1.0000
  C   C1968     1.0  0.49259  0.85990  0.00572  1.0000
  S   S787      1.0  0.55421  0.93426  0.31644  1.0000
  H   H3135     1.0  0.57253  0.97149  0.23159  1.0000
  H   H3136     1.0  0.50997  0.65588  0.05307  1.0000
  H   H3137     1.0  0.52970  0.81362  0.99612  1.0000
  H   H3138     1.0  0.53387  0.82964  0.98769  1.0000
  C   C1969     1.0  0.59054  0.97945  0.26579  1.0000
  H   H3139     1.0  0.50392  0.65749  0.98943  1.0000
  C   C1970     1.0  0.51045  0.98536  0.24506  1.0000
  H   H3140     1.0  0.55758  0.98442  0.28098  1.0000
  C   C1971     1.0  0.55877  0.98620  0.31104  1.0000
  H   H3141     1.0  0.49736  0.95316  0.28687  1.0000
  C   C1972     1.0  0.49081  0.89528  0.10670  1.0000
  H   H3142     1.0  0.49127  0.96125  0.17898  1.0000
  H   H3143     1.0  0.49744  0.98785  0.28769  1.0000
  Fe  Fe396     1.0  0.52063  0.91803  0.60640  1.0000
  S   S788      1.0  0.52937  0.92732  0.61745  1.0000
  H   H3144     1.0  0.63424  0.95791  0.42010  1.0000
  Fe  Fe397     1.0  0.54787  0.90094  0.59604  1.0000
  S   S789      1.0  0.55858  0.90808  0.60716  1.0000
  S   S790      1.0  0.55752  0.88449  0.58470  1.0000
  Fe  Fe398     1.0  0.54072  0.90651  0.62433  1.0000
  C   C1973     1.0  0.56015  0.94939  0.60397  1.0000
  Fe  Fe399     1.0  0.54624  0.92818  0.59932  1.0000
  S   S791      1.0  0.55607  0.94573  0.59076  1.0000
  S   S792      1.0  0.53127  0.89711  0.61405  1.0000
  S   S793      1.0  0.53635  0.92118  0.58727  1.0000
  Fe  Fe400     1.0  0.61954  0.89728  0.52745  1.0000
  S   S794      1.0  0.63281  0.89938  0.53946  1.0000
  S   S795      1.0  0.60608  0.88278  0.53418  1.0000
  Fe  Fe401     1.0  0.62859  0.91806  0.50301  1.0000
  S   S796      1.0  0.64236  0.92235  0.51294  1.0000
  S   S797      1.0  0.62779  0.93008  0.48199  1.0000
  Fe  Fe402     1.0  0.64840  0.90020  0.52012  1.0000
  S   S798      1.0  0.67055  0.89123  0.51580  1.0000
  Fe  Fe403     1.0  0.62569  0.92134  0.53124  1.0000
  S   S799      1.0  0.62015  0.93647  0.54392  1.0000
  S   S800      1.0  0.63577  0.89583  0.50879  1.0000
  S   S801      1.0  0.61125  0.91923  0.52069  1.0000
  C   C1974     1.0  0.63459  0.97013  0.52869  1.0000
  H   H3145     1.0  0.72453  0.89114  0.56865  1.0000
  S   S802      1.0  0.71068  0.89708  0.54699  1.0000
  C   C1975     1.0  0.67641  0.90098  0.45938  1.0000
  H   H3146     1.0  0.66558  0.92631  0.52282  1.0000
  Fe  Fe404     1.0  0.59335  0.93426  0.42736  1.0000
  S   S803      1.0  0.59984  0.93026  0.40635  1.0000
  S   S804      1.0  0.59595  0.91803  0.44612  1.0000
  Fe  Fe405     1.0  0.58538  0.96414  0.41754  1.0000
  S   S805      1.0  0.59162  0.96276  0.39609  1.0000
  H   H3147     1.0  0.65777  0.94559  0.43292  1.0000
  Fe  Fe406     1.0  0.58106  0.94573  0.40247  1.0000
  S   S806      1.0  0.56671  0.95117  0.38849  1.0000
  Fe  Fe407     1.0  0.60954  0.94774  0.40162  1.0000
  S   S807      1.0  0.62984  0.95057  0.38945  1.0000
  S   S808      1.0  0.57372  0.94812  0.42393  1.0000
  S   S809      1.0  0.60433  0.95072  0.42251  1.0000
  Fe  Fe408     1.0  0.54145  0.92881  0.33706  1.0000
  S   S810      1.0  0.52603  0.94802  0.33493  1.0000
  S   S811      1.0  0.54915  0.91913  0.35622  1.0000
  Fe  Fe409     1.0  0.51576  0.93757  0.32646  1.0000
  H   H3148     1.0  0.63787  0.97686  0.53240  1.0000
  H   H3149     1.0  0.66835  0.94056  0.52672  1.0000
  S   S812      1.0  0.53028  0.91786  0.33013  1.0000
  C   C1976     1.0  0.68973  0.97970  0.54956  1.0000
  H   H3150     1.0  0.61933  0.93192  0.34726  1.0000
  H   H3151     1.0  0.70329  0.97389  0.42603  1.0000
  S   S813      1.0  0.69390  0.94927  0.41925  1.0000
  S   S814      1.0  0.49358  0.93968  0.33484  1.0000
  C   C1977     1.0  0.63268  0.95684  0.43112  1.0000
  H   H3152     1.0  0.54980  0.98159  0.41655  1.0000
  H   H3153     1.0  0.68079  0.97710  0.55724  1.0000
  C   C1978     1.0  0.56362  0.95705  0.62568  1.0000
  C   C1979     1.0  0.52292  0.98590  0.58247  1.0000
  H   H3154     1.0  0.68805  0.96283  0.46471  1.0000
  C   C1980     1.0  0.73812  0.91291  0.48249  1.0000
  C   C1981     1.0  0.69100  0.97226  0.45978  1.0000
  Fe  Fe410     1.0  0.69689  0.92654  0.45422  1.0000
  C   C1982     1.0  0.71419  0.97358  0.42326  1.0000
  H   H3155     1.0  0.69299  0.97283  0.57500  1.0000
  H   H3156     1.0  0.73061  0.96284  0.49940  1.0000
  C   C1983     1.0  0.56228  0.94190  0.37954  1.0000
  C   C1984     1.0  0.56582  0.92788  0.38196  1.0000
  C   C1985     1.0  0.56182  0.92103  0.37467  1.0000
  C   C1986     1.0  0.55450  0.92813  0.36474  1.0000
  C   C1987     1.0  0.55116  0.94215  0.36220  1.0000
  C   C1988     1.0  0.55495  0.94898  0.36963  1.0000
  H   H3157     1.0  0.57139  0.92230  0.38961  1.0000
  H   H3158     1.0  0.56437  0.91017  0.37675  1.0000
  H   H3159     1.0  0.54556  0.94775  0.35459  1.0000
  H   H3160     1.0  0.55230  0.95984  0.36755  1.0000
  C   C1989     1.0  0.72811  0.90821  0.49296  1.0000
  H   H3161     1.0  0.65662  0.95368  0.38651  1.0000
  H   H3162     1.0  0.61598  0.91369  0.58507  1.0000
  H   H3163     1.0  0.66202  0.93953  0.49444  1.0000
  C   C1990     1.0  0.59196  0.97709  0.44071  1.0000
  N   N196      1.0  0.66656  0.89924  0.47231  1.0000
  H   H3164     1.0  0.58996  0.96725  0.44251  1.0000
  H   H3165     1.0  0.65683  0.92017  0.46965  1.0000
  H   H3166     1.0  0.68128  0.89159  0.48445  1.0000
  H   H3167     1.0  0.67033  0.91533  0.47821  1.0000
  C   C1991     1.0  0.61839  0.92642  0.47282  1.0000
  C   C1992     1.0  0.61767  0.91325  0.47372  1.0000
  C   C1993     1.0  0.61076  0.91070  0.46550  1.0000
  C   C1994     1.0  0.60440  0.92133  0.45654  1.0000
  C   C1995     1.0  0.60474  0.93449  0.45612  1.0000
  C   C1996     1.0  0.61193  0.93700  0.46400  1.0000
  H   H3168     1.0  0.62269  0.90502  0.48046  1.0000
  H   H3169     1.0  0.61049  0.90049  0.46591  1.0000
  H   H3170     1.0  0.59923  0.94278  0.44993  1.0000
  H   H3171     1.0  0.61229  0.94720  0.46343  1.0000
  C   C1997     1.0  0.68138  0.89337  0.52452  1.0000
  C   C1998     1.0  0.67658  0.89873  0.53604  1.0000
  C   C1999     1.0  0.68563  0.89997  0.54282  1.0000
  C   C2000     1.0  0.69949  0.89623  0.53791  1.0000
  C   C2001     1.0  0.70424  0.89113  0.52627  1.0000
  C   C2002     1.0  0.69521  0.88947  0.51977  1.0000
  H   H3172     1.0  0.66593  0.90160  0.53989  1.0000
  H   H3173     1.0  0.68187  0.90378  0.55192  1.0000
  H   H3174     1.0  0.71488  0.88807  0.52248  1.0000
  H   H3175     1.0  0.69898  0.88519  0.51095  1.0000
  C   C2003     1.0  0.56590  0.96565  0.33252  1.0000
  H   H3176     1.0  0.62467  0.94183  0.35514  1.0000
  C   C2004     1.0  0.66189  0.91200  0.47691  1.0000
  H   H3177     1.0  0.62221  0.94632  0.51555  1.0000
  H   H3178     1.0  0.65465  0.91096  0.48676  1.0000
  C   C2005     1.0  0.57103  0.88494  0.57064  1.0000
  C   C2006     1.0  0.57572  0.87367  0.56494  1.0000
  C   C2007     1.0  0.58648  0.87323  0.55384  1.0000
  C   C2008     1.0  0.59285  0.88398  0.54839  1.0000
  C   C2009     1.0  0.58820  0.89541  0.55396  1.0000
  C   C2010     1.0  0.57717  0.89594  0.56506  1.0000
  H   H3179     1.0  0.57100  0.86519  0.56916  1.0000
  H   H3180     1.0  0.58994  0.86442  0.54956  1.0000
  H   H3181     1.0  0.59297  0.90384  0.54963  1.0000
  H   H3182     1.0  0.57335  0.90479  0.56924  1.0000
  C   C2011     1.0  0.60063  0.95785  0.36181  1.0000
  S   S815      1.0  0.72850  0.92277  0.51908  1.0000
  H   H3183     1.0  0.57891  0.92722  0.57240  1.0000
  C   C2012     1.0  0.61694  0.94186  0.34994  1.0000
  H   H3184     1.0  0.60429  0.92395  0.36898  1.0000
  C   C2013     1.0  0.55762  0.94138  0.61693  1.0000
  H   H3185     1.0  0.68531  0.90376  0.46040  1.0000
  H   H3186     1.0  0.55407  0.93236  0.61869  1.0000
  H   H3187     1.0  0.50421  0.92172  0.58389  1.0000
  C   C2014     1.0  0.56528  0.96074  0.60174  1.0000
  H   H3188     1.0  0.59247  0.93596  0.37781  1.0000
  Fe  Fe411     1.0  0.68596  0.95448  0.43952  1.0000
  H   H3189     1.0  0.57928  0.92464  0.59621  1.0000
  C   C2015     1.0  0.58980  0.92709  0.56967  1.0000
  C   C2016     1.0  0.59496  0.90507  0.58394  1.0000
  H   H3190     1.0  0.56031  0.98199  0.38000  1.0000
  H   H3191     1.0  0.59084  0.93771  0.56697  1.0000
  C   C2017     1.0  0.63149  0.96315  0.51015  1.0000
  N   N197      1.0  0.64188  0.96303  0.43426  1.0000
  H   H3192     1.0  0.60152  0.96597  0.35256  1.0000
  C   C2018     1.0  0.60252  0.93408  0.37104  1.0000
  H   H3193     1.0  0.52770  0.97621  0.57926  1.0000
  H   H3194     1.0  0.64699  0.91759  0.42669  1.0000
  C   C2019     1.0  0.65580  0.95662  0.42889  1.0000
  H   H3195     1.0  0.50360  0.91718  0.39103  1.0000
  S   S816      1.0  0.58017  0.97981  0.33885  1.0000
  H   H3196     1.0  0.59432  0.92300  0.56043  1.0000
  H   H3197     1.0  0.61582  0.91503  0.56787  1.0000
  H   H3198     1.0  0.59966  0.90038  0.57509  1.0000
  H   H3199     1.0  0.73114  0.94279  0.44164  1.0000
  C   C2020     1.0  0.62497  0.95083  0.53301  1.0000
  S   S817      1.0  0.67703  0.93659  0.44934  1.0000
  H   H3200     1.0  0.57379  0.91803  0.64986  1.0000
  S   S818      1.0  0.67359  0.92010  0.42388  1.0000
  S   S819      1.0  0.67535  0.97518  0.44223  1.0000
  H   H3201     1.0  0.56781  0.96664  0.59167  1.0000
  H   H3202     1.0  0.50134  0.89438  0.63557  1.0000
  H   H3203     1.0  0.59484  0.91933  0.60143  1.0000
  H   H3204     1.0  0.58427  0.90444  0.58689  1.0000
  H   H3205     1.0  0.63416  0.94589  0.43578  1.0000
  C   C2021     1.0  0.55846  0.90935  0.64824  1.0000
  N   N198      1.0  0.50465  0.93225  0.37267  1.0000
  C   C2022     1.0  0.73247  0.96801  0.48858  1.0000
  N   N199      1.0  0.58441  0.90561  0.50533  1.0000
  C   C2023     1.0  0.59724  0.89574  0.50309  1.0000
  C   C2024     1.0  0.57982  0.90568  0.51981  1.0000
  C   C2025     1.0  0.57434  0.90183  0.50085  1.0000
  C   C2026     1.0  0.58626  0.91912  0.49756  1.0000
  H   H3206     1.0  0.60079  0.89505  0.49237  1.0000
  H   H3207     1.0  0.59634  0.88551  0.50922  1.0000
  H   H3208     1.0  0.60518  0.89847  0.50602  1.0000
  H   H3209     1.0  0.57846  0.89558  0.52598  1.0000
  H   H3210     1.0  0.58723  0.90841  0.52354  1.0000
  H   H3211     1.0  0.57014  0.91295  0.52196  1.0000
  H   H3212     1.0  0.56451  0.90903  0.50243  1.0000
  H   H3213     1.0  0.57276  0.89165  0.50649  1.0000
  H   H3214     1.0  0.57748  0.90169  0.48995  1.0000
  H   H3215     1.0  0.57690  0.92690  0.49937  1.0000
  H   H3216     1.0  0.58922  0.91954  0.48655  1.0000
  H   H3217     1.0  0.59421  0.92209  0.50025  1.0000
  C   C2027     1.0  0.67290  0.88867  0.48245  1.0000
  C   C2028     1.0  0.65506  0.89537  0.47047  1.0000
  H   H3218     1.0  0.67699  0.87899  0.47915  1.0000
  H   H3219     1.0  0.66564  0.88679  0.49223  1.0000
  H   H3220     1.0  0.65821  0.88581  0.46692  1.0000
  H   H3221     1.0  0.64743  0.89395  0.48003  1.0000
  C   C2029     1.0  0.72394  0.91735  0.46680  1.0000
  H   H3222     1.0  0.67802  0.95782  0.50842  1.0000
  H   H3223     1.0  0.68307  0.95563  0.49139  1.0000
  H   H3224     1.0  0.66566  0.95959  0.49926  1.0000
  H   H3225     1.0  0.71432  0.97550  0.53414  1.0000
  C   C2030     1.0  0.62904  0.95967  0.53778  1.0000
  H   H3226     1.0  0.72334  0.97214  0.54703  1.0000
  C   C2031     1.0  0.63610  0.97164  0.51487  1.0000
  C   C2032     1.0  0.50610  0.89720  0.64215  1.0000
  H   H3227     1.0  0.68973  0.97679  0.54028  1.0000
  H   H3228     1.0  0.51926  0.97605  0.60891  1.0000
  H   H3229     1.0  0.59971  0.89878  0.59238  1.0000
  H   H3230     1.0  0.64558  0.98268  0.43115  1.0000
  C   C2033     1.0  0.70422  0.95822  0.55611  1.0000
  H   H3231     1.0  0.71079  0.97138  0.57078  1.0000
  H   H3232     1.0  0.71360  0.95276  0.55960  1.0000
  C   C2034     1.0  0.63958  0.97752  0.42799  1.0000
  H   H3233     1.0  0.62923  0.96602  0.45336  1.0000
  C   C2035     1.0  0.52718  0.93983  0.65058  1.0000
  H   H3234     1.0  0.51425  0.92648  0.35392  1.0000
  H   H3235     1.0  0.57067  0.97356  0.61092  1.0000
  N   N200      1.0  0.60338  0.94458  0.35851  1.0000
  H   H3236     1.0  0.67379  0.94203  0.40011  1.0000
  H   H3237     1.0  0.61791  0.94963  0.34040  1.0000
  H   H3238     1.0  0.69235  0.93510  0.51537  1.0000
  H   H3239     1.0  0.65566  0.94279  0.51780  1.0000
  Fe  Fe412     1.0  0.71253  0.93825  0.42710  1.0000
  H   H3240     1.0  0.68956  0.92069  0.51182  1.0000
  C   C2036     1.0  0.58630  0.98773  0.43134  1.0000
  C   C2037     1.0  0.61071  0.91943  0.57685  1.0000
  H   H3241     1.0  0.59469  0.93455  0.34918  1.0000
  H   H3242     1.0  0.53482  0.96698  0.60083  1.0000
  H   H3243     1.0  0.59411  0.95203  0.34152  1.0000
  C   C2038     1.0  0.62582  0.95283  0.51924  1.0000
  H   H3244     1.0  0.56288  0.97543  0.40357  1.0000
  S   S820      1.0  0.69810  0.91404  0.47466  1.0000
  H   H3245     1.0  0.61003  0.93372  0.37665  1.0000
  H   H3246     1.0  0.59027  0.96044  0.36785  1.0000
  C   C2039     1.0  0.55715  0.96440  0.32551  1.0000
  C   C2040     1.0  0.66148  0.92915  0.41441  1.0000
  Fe  Fe413     1.0  0.68626  0.93045  0.42960  1.0000
  S   S821      1.0  0.70566  0.91879  0.43543  1.0000
  H   H3247     1.0  0.62542  0.97943  0.40324  1.0000
  H   H3248     1.0  0.55731  0.93908  0.63781  1.0000
  H   H3249     1.0  0.70528  0.96909  0.47184  1.0000
  H   H3250     1.0  0.60837  0.97807  0.40673  1.0000
  Fe  Fe414     1.0  0.56105  0.98518  0.63306  1.0000
  H   H3251     1.0  0.55307  0.95554  0.32860  1.0000
  H   H3252     1.0  0.70810  0.90504  0.49851  1.0000
  H   H3253     1.0  0.53477  0.97805  0.61087  1.0000
  H   H3254     1.0  0.71948  0.96288  0.42441  1.0000
  H   H3255     1.0  0.53197  0.94670  0.64170  1.0000
  S   S822      1.0  0.57746  0.98494  0.42110  1.0000
  C   C2041     1.0  0.52968  0.97680  0.60362  1.0000
  H   H3256     1.0  0.71753  0.87171  0.56664  1.0000
  C   C2042     1.0  0.61834  0.98600  0.37986  1.0000
  C   C2043     1.0  0.73279  0.98002  0.40596  1.0000
  H   H3257     1.0  0.65803  0.95835  0.41776  1.0000
  H   H3258     1.0  0.73824  0.96935  0.40643  1.0000
  C   C2044     1.0  0.73165  0.88405  0.57471  1.0000
  H   H3259     1.0  0.71933  0.96489  0.40058  1.0000
  H   H3260     1.0  0.72970  0.90440  0.50306  1.0000
  H   H3261     1.0  0.64117  0.95029  0.45408  1.0000
  C   C2045     1.0  0.72480  0.86501  0.57276  1.0000
  S   S823      1.0  0.73519  0.94893  0.53347  1.0000
  H   H3262     1.0  0.49240  0.95219  0.37259  1.0000
  H   H3263     1.0  0.62206  0.96147  0.43498  1.0000
  H   H3264     1.0  0.54773  0.96952  0.40867  1.0000
  S   S824      1.0  0.73356  0.93930  0.41484  1.0000
  C   C2046     1.0  0.49727  0.92644  0.38608  1.0000
  H   H3265     1.0  0.54922  0.97882  0.58120  1.0000
  S   S825      1.0  0.66059  0.98770  0.53097  1.0000
  C   C2047     1.0  0.60012  0.97922  0.44790  1.0000
  N   N201      1.0  0.70225  0.97290  0.55422  1.0000
  H   H3266     1.0  0.51571  0.91305  0.36832  1.0000
  C   C2048     1.0  0.71367  0.97745  0.54410  1.0000
  H   H3267     1.0  0.73635  0.87946  0.54993  1.0000
  N   N202      1.0  0.67577  0.93919  0.50599  1.0000
  C   C2049     1.0  0.68923  0.93165  0.50798  1.0000
  C   C2050     1.0  0.67224  0.93428  0.49601  1.0000
  C   C2051     1.0  0.67566  0.95367  0.50105  1.0000
  C   C2052     1.0  0.66592  0.93711  0.51890  1.0000
  C   C2053     1.0  0.66414  0.93940  0.40310  1.0000
  H   H3268     1.0  0.69688  0.93277  0.49838  1.0000
  H   H3269     1.0  0.61260  0.97808  0.38220  1.0000
  H   H3270     1.0  0.67933  0.93595  0.48609  1.0000
  H   H3271     1.0  0.67259  0.92328  0.49926  1.0000
  H   H3272     1.0  0.58306  0.94728  0.35722  1.0000
  H   H3273     1.0  0.56838  0.95781  0.34100  1.0000
  H   H3274     1.0  0.65003  0.90324  0.46294  1.0000
  H   H3275     1.0  0.60449  0.97098  0.45511  1.0000
  C   C2054     1.0  0.65444  0.94593  0.39538  1.0000
  C   C2055     1.0  0.64202  0.94234  0.39904  1.0000
  H   H3276     1.0  0.72245  0.92066  0.45664  1.0000
  C   C2056     1.0  0.64907  0.92560  0.41803  1.0000
  C   C2057     1.0  0.73611  0.91736  0.46937  1.0000
  C   C2058     1.0  0.63961  0.96112  0.44900  1.0000
  C   C2059     1.0  0.59005  0.92492  0.59284  1.0000
  H   H3277     1.0  0.68003  0.89161  0.45548  1.0000
  H   H3278     1.0  0.56126  0.91111  0.63739  1.0000
  H   H3279     1.0  0.67200  0.90899  0.45157  1.0000
  C   C2060     1.0  0.63932  0.93227  0.41049  1.0000
  H   H3280     1.0  0.62981  0.92936  0.41337  1.0000
  S   S826      1.0  0.70492  0.94510  0.44651  1.0000
  C   C2061     1.0  0.50884  0.92232  0.36412  1.0000
  N   N203      1.0  0.59638  0.91912  0.58083  1.0000
  C   C2062     1.0  0.71593  0.90837  0.49040  1.0000
  H   H3281     1.0  0.60770  0.95811  0.36764  1.0000
  C   C2063     1.0  0.59342  0.94456  0.35128  1.0000
  Fe  Fe415     1.0  0.72969  0.90383  0.53503  1.0000
  H   H3282     1.0  0.69574  0.95437  0.56356  1.0000
  H   H3283     1.0  0.73612  0.98587  0.39565  1.0000
  H   H3284     1.0  0.50580  0.98106  0.62915  1.0000
  H   H3285     1.0  0.72445  0.96723  0.48422  1.0000
  H   H3286     1.0  0.61216  0.92992  0.57415  1.0000
  H   H3287     1.0  0.52244  0.94010  0.36411  1.0000
  N   N204      1.0  0.71818  0.98120  0.40940  1.0000
  C   C2064     1.0  0.49423  0.92008  0.58847  1.0000
  C   C2065     1.0  0.49589  0.94447  0.36641  1.0000
  H   H3288     1.0  0.52356  0.92668  0.37851  1.0000
  H   H3289     1.0  0.66298  0.96078  0.43147  1.0000
  C   C2066     1.0  0.54934  0.98510  0.38385  1.0000
  C   C2067     1.0  0.56689  0.96466  0.61263  1.0000
  H   H3290     1.0  0.64648  0.96559  0.45174  1.0000
  S   S827      1.0  0.56352  0.96298  0.63947  1.0000
  C   C2068     1.0  0.55186  0.97856  0.40682  1.0000
  H   H3291     1.0  0.50113  0.94914  0.35627  1.0000
  H   H3292     1.0  0.71732  0.98119  0.38943  1.0000
  H   H3293     1.0  0.49395  0.93367  0.39280  1.0000
  S   S828      1.0  0.49811  0.92247  0.61226  1.0000
  H   H3294     1.0  0.54504  0.97628  0.38521  1.0000
  H   H3295     1.0  0.59064  0.93563  0.59074  1.0000
  H   H3296     1.0  0.71929  0.86337  0.58345  1.0000
  H   H3297     1.0  0.52679  0.98505  0.40299  1.0000
  C   C2069     1.0  0.71376  0.91306  0.47739  1.0000
  H   H3298     1.0  0.63246  0.96442  0.49948  1.0000
  C   C2070     1.0  0.71441  0.97571  0.40000  1.0000
  H   H3299     1.0  0.62830  0.95821  0.54844  1.0000
  C   C2071     1.0  0.55948  0.94515  0.62776  1.0000
  H   H3300     1.0  0.72794  0.85519  0.56972  1.0000
  H   H3301     1.0  0.51050  0.90592  0.63606  1.0000
  C   C2072     1.0  0.70143  0.97622  0.56708  1.0000
  H   H3302     1.0  0.51228  0.98565  0.58741  1.0000
  C   C2073     1.0  0.56741  0.98751  0.31812  1.0000
  H   H3303     1.0  0.51390  0.94315  0.38046  1.0000
  C   C2074     1.0  0.51661  0.93571  0.37404  1.0000
  C   C2075     1.0  0.70073  0.97581  0.46382  1.0000
  H   H3304     1.0  0.73594  0.98383  0.41308  1.0000
  C   C2076     1.0  0.57081  0.97732  0.32900  1.0000
  H   H3305     1.0  0.70514  0.95543  0.54648  1.0000
  C   C2077     1.0  0.68533  0.98075  0.44918  1.0000
  H   H3306     1.0  0.53385  0.92966  0.65101  1.0000
  H   H3307     1.0  0.69985  0.98726  0.56593  1.0000
  N   N205      1.0  0.73637  0.87095  0.57074  1.0000
  H   H3308     1.0  0.51454  0.88873  0.64469  1.0000
  C   C2078     1.0  0.70492  0.98778  0.45712  1.0000
  H   H3309     1.0  0.50010  0.91944  0.36282  1.0000
  C   C2079     1.0  0.61500  0.98533  0.40347  1.0000
  H   H3310     1.0  0.73127  0.97888  0.48804  1.0000
  H   H3311     1.0  0.72635  0.88296  0.58546  1.0000
  H   H3312     1.0  0.71654  0.97763  0.43071  1.0000
  S   S829      1.0  0.64417  0.98373  0.50332  1.0000
  H   H3313     1.0  0.73821  0.97596  0.52219  1.0000
  H   H3314     1.0  0.51764  0.93928  0.64871  1.0000
  H   H3315     1.0  0.73905  0.94675  0.47733  1.0000
  H   H3316     1.0  0.64235  0.97935  0.41683  1.0000
  H   H3317     1.0  0.70341  0.97651  0.40233  1.0000
  H   H3318     1.0  0.62905  0.98081  0.37919  1.0000
  S   S830      1.0  0.53805  0.89903  0.64678  1.0000
  H   H3319     1.0  0.62892  0.98253  0.43084  1.0000
  Fe  Fe416     1.0  0.53636  0.85945  0.89608  1.0000
  S   S831      1.0  0.54058  0.87030  0.90914  1.0000
  H   H3320     1.0  0.56450  0.77994  0.92741  1.0000
  Fe  Fe417     1.0  0.56360  0.84067  0.89339  1.0000
  S   S832      1.0  0.57055  0.85002  0.90600  1.0000
  S   S833      1.0  0.57532  0.82195  0.88615  1.0000
  Fe  Fe418     1.0  0.55026  0.84990  0.91960  1.0000
  S   S834      1.0  0.54569  0.84183  0.94209  1.0000
  Fe  Fe419     1.0  0.56033  0.86958  0.89437  1.0000
  S   S835      1.0  0.56863  0.88822  0.88575  1.0000
  S   S836      1.0  0.54411  0.83910  0.90781  1.0000
  S   S837      1.0  0.55535  0.86017  0.88048  1.0000
  Fe  Fe420     1.0  0.56018  0.93847  0.80263  1.0000
  S   S838      1.0  0.56179  0.94484  0.82052  1.0000
  S   S839      1.0  0.57626  0.92238  0.79418  1.0000
  Fe  Fe421     1.0  0.53257  0.95563  0.80226  1.0000
  S   S840      1.0  0.53131  0.96334  0.82018  1.0000
  S   S841      1.0  0.51523  0.96286  0.79231  1.0000
  Fe  Fe422     1.0  0.55230  0.96548  0.81027  1.0000
  H   H3321     1.0  0.56135  0.82073  0.92805  1.0000
  Fe  Fe423     1.0  0.54074  0.94215  0.82897  1.0000
  S   S842      1.0  0.53151  0.93117  0.84942  1.0000
  S   S843      1.0  0.55282  0.95934  0.79152  1.0000
  S   S844      1.0  0.53990  0.93416  0.81193  1.0000
  Fe  Fe424     1.0  0.56054  0.91405  0.72872  1.0000
  S   S845      1.0  0.53878  0.92313  0.73478  1.0000
  S   S846      1.0  0.57341  0.90346  0.74374  1.0000
  Fe  Fe425     1.0  0.55914  0.91785  0.69933  1.0000
  S   S847      1.0  0.53718  0.92682  0.70336  1.0000
  S   S848      1.0  0.56987  0.91743  0.67791  1.0000
  Fe  Fe426     1.0  0.54229  0.93815  0.71537  1.0000
  C   C2080     1.0  0.56759  0.76448  0.96011  1.0000
  Fe  Fe427     1.0  0.53621  0.91066  0.72223  1.0000
  S   S849      1.0  0.52230  0.89665  0.73180  1.0000
  S   S850      1.0  0.56440  0.93023  0.71025  1.0000
  S   S851      1.0  0.55777  0.90066  0.71717  1.0000
  Fe  Fe428     1.0  0.53971  0.76687  0.89904  1.0000
  S   S852      1.0  0.53939  0.76523  0.92060  1.0000
  S   S853      1.0  0.53438  0.78831  0.88776  1.0000
  Fe  Fe429     1.0  0.54617  0.73614  0.90233  1.0000
  S   S854      1.0  0.54636  0.73265  0.92404  1.0000
  S   S855      1.0  0.55103  0.71799  0.89313  1.0000
  Fe  Fe430     1.0  0.52806  0.74920  0.92469  1.0000
  H   H3322     1.0  0.54973  0.89727  0.90955  1.0000
  Fe  Fe431     1.0  0.55768  0.74886  0.91733  1.0000
  S   S856      1.0  0.57648  0.74530  0.92435  1.0000
  S   S857      1.0  0.52699  0.75187  0.90337  1.0000
  S   S858      1.0  0.55891  0.75153  0.89540  1.0000
  C   C2081     1.0  0.57314  0.75207  0.93848  1.0000
  H   H3323     1.0  0.55059  0.78927  0.94762  1.0000
  C   C2082     1.0  0.52766  0.72932  0.96463  1.0000
  H   H3324     1.0  0.55204  0.75264  0.94339  1.0000
  H   H3325     1.0  0.55775  0.83111  0.97928  1.0000
  C   C2083     1.0  0.53777  0.67965  0.91961  1.0000
  C   C2084     1.0  0.54209  0.68098  0.90568  1.0000
  C   C2085     1.0  0.54624  0.69273  0.89760  1.0000
  C   C2086     1.0  0.54596  0.70321  0.90340  1.0000
  C   C2087     1.0  0.54189  0.70164  0.91734  1.0000
  C   C2088     1.0  0.53786  0.68993  0.92540  1.0000
  H   H3326     1.0  0.50828  0.90804  0.83976  1.0000
  H   H3327     1.0  0.54951  0.69378  0.88682  1.0000
  H   H3328     1.0  0.54163  0.70948  0.92198  1.0000
  H   H3329     1.0  0.53453  0.68898  0.93615  1.0000
  H   H3330     1.0  0.56408  0.95900  0.69905  1.0000
  C   C2089     1.0  0.49567  0.89483  0.70594  1.0000
  H   H3331     1.0  0.51153  0.93221  0.81536  1.0000
  C   C2090     1.0  0.56185  0.91117  0.66937  1.0000
  C   C2091     1.0  0.55112  0.90507  0.67635  1.0000
  C   C2092     1.0  0.54416  0.90103  0.66931  1.0000
  H   H3332     1.0  0.51507  0.91456  0.70753  1.0000
  H   H3333     1.0  0.54820  0.90344  0.68719  1.0000
  H   H3334     1.0  0.53587  0.89630  0.67479  1.0000
  C   C2093     1.0  0.56601  0.85689  0.95935  1.0000
  C   C2094     1.0  0.57462  0.91772  0.78015  1.0000
  C   C2095     1.0  0.56480  0.92493  0.77278  1.0000
  C   C2096     1.0  0.56421  0.92081  0.76144  1.0000
  C   C2097     1.0  0.57339  0.90945  0.75762  1.0000
  C   C2098     1.0  0.58293  0.90221  0.76520  1.0000
  C   C2099     1.0  0.58359  0.90635  0.77633  1.0000
  H   H3335     1.0  0.55789  0.93380  0.77562  1.0000
  H   H3336     1.0  0.55682  0.92648  0.75562  1.0000
  H   H3337     1.0  0.59005  0.89346  0.76230  1.0000
  H   H3338     1.0  0.59122  0.90078  0.78191  1.0000
  C   C2100     1.0  0.55360  0.97651  0.73618  1.0000
  C   C2101     1.0  0.50330  0.90440  0.66252  1.0000
  H   H3339     1.0  0.53268  0.93791  0.78668  1.0000
  H   H3340     1.0  0.53822  0.69800  0.98263  1.0000
  C   C2102     1.0  0.54973  0.84985  0.95235  1.0000
  C   C2103     1.0  0.56280  0.85123  0.95049  1.0000
  H   H3341     1.0  0.57051  0.84769  0.94238  1.0000
  C   C2104     1.0  0.55820  0.90054  0.87603  1.0000
  C   C2105     1.0  0.54554  0.89890  0.87647  1.0000
  C   C2106     1.0  0.53736  0.90853  0.86846  1.0000
  C   C2107     1.0  0.54189  0.91972  0.85973  1.0000
  C   C2108     1.0  0.55450  0.92146  0.85934  1.0000
  C   C2109     1.0  0.56263  0.91190  0.86754  1.0000
  H   H3342     1.0  0.54200  0.89020  0.88297  1.0000
  H   H3343     1.0  0.52757  0.90718  0.86890  1.0000
  H   H3344     1.0  0.55796  0.93020  0.85279  1.0000
  H   H3345     1.0  0.57239  0.91325  0.86722  1.0000
  C   C2110     1.0  0.56440  0.81267  0.88537  1.0000
  C   C2111     1.0  0.56831  0.79866  0.88737  1.0000
  C   C2112     1.0  0.55910  0.79108  0.88825  1.0000
  C   C2113     1.0  0.54613  0.79755  0.88660  1.0000
  C   C2114     1.0  0.54240  0.81158  0.88418  1.0000
  C   C2115     1.0  0.55144  0.81912  0.88374  1.0000
  H   H3346     1.0  0.57836  0.79363  0.88852  1.0000
  H   H3347     1.0  0.56211  0.78026  0.89001  1.0000
  H   H3348     1.0  0.53247  0.81664  0.88282  1.0000
  H   H3349     1.0  0.54840  0.82995  0.88205  1.0000
  S   S859      1.0  0.50197  0.91061  0.78848  1.0000
  H   H3350     1.0  0.49017  0.77021  0.94812  1.0000
  H   H3351     1.0  0.49106  0.67091  0.98335  1.0000
  H   H3352     1.0  0.51821  0.85336  0.91796  1.0000
  H   H3353     1.0  0.55970  0.88431  0.77028  1.0000
  H   H3354     1.0  0.57728  0.69867  0.92491  1.0000
  H   H3355     1.0  0.54890  0.94704  0.73366  1.0000
  H   H3356     1.0  0.57307  0.97692  0.65714  1.0000
  C   C2116     1.0  0.58068  0.76148  0.95265  1.0000
  H   H3357     1.0  0.50729  0.67916  0.88215  1.0000
  H   H3358     1.0  0.57829  0.70019  0.89536  1.0000
  H   H3359     1.0  0.54708  0.76404  0.96211  1.0000
  H   H3360     1.0  0.59361  0.75284  0.93615  1.0000
  H   H3361     1.0  0.57354  0.87229  0.92887  1.0000
  H   H3362     1.0  0.50329  0.97047  0.72231  1.0000
  C   C2117     1.0  0.49858  0.67200  0.91628  1.0000
  S   S860      1.0  0.53179  0.66560  0.93029  1.0000
  H   H3363     1.0  0.55871  0.95600  0.74692  1.0000
  H   H3364     1.0  0.51924  0.83689  0.86467  1.0000
  H   H3365     1.0  0.59348  0.72286  0.88755  1.0000
  S   S861      1.0  0.53453  0.96029  0.71252  1.0000
  H   H3366     1.0  0.49132  0.78949  0.92125  1.0000
  H   H3367     1.0  0.51009  0.68852  0.96406  1.0000
  S   S862      1.0  0.50934  0.74736  0.94044  1.0000
  H   H3368     1.0  0.54766  0.88379  0.94626  1.0000
  H   H3369     1.0  0.53945  0.98003  0.83249  1.0000
  C   C2118     1.0  0.50696  0.68132  0.96040  1.0000
  H   H3370     1.0  0.57514  0.71646  0.92308  1.0000
  C   C2119     1.0  0.49457  0.80221  0.93818  1.0000
  C   C2120     1.0  0.51174  0.72545  0.93072  1.0000
  C   C2121     1.0  0.58775  0.69843  0.89875  1.0000
  H   H3371     1.0  0.50903  0.81805  0.89120  1.0000
  C   C2122     1.0  0.52402  0.66289  0.96856  1.0000
  H   H3372     1.0  0.51004  0.78391  0.95365  1.0000
  H   H3373     1.0  0.50071  0.94123  0.84851  1.0000
  H   H3374     1.0  0.52012  0.91854  0.83543  1.0000
  S   S863      1.0  0.56402  0.77264  0.97334  1.0000
  H   H3375     1.0  0.55335  0.72071  0.95251  1.0000
  C   C2123     1.0  0.51060  0.90601  0.71003  1.0000
  H   H3376     1.0  0.49613  0.68517  0.96041  1.0000
  H   H3377     1.0  0.51074  0.65823  0.95288  1.0000
  N   N206      1.0  0.58721  0.70884  0.90577  1.0000
  C   C2124     1.0  0.50176  0.90575  0.70259  1.0000
  H   H3378     1.0  0.54159  0.81319  0.92676  1.0000
  H   H3379     1.0  0.57578  0.72436  0.89295  1.0000
  H   H3380     1.0  0.56845  0.87742  0.91319  1.0000
  H   H3381     1.0  0.50891  0.87646  0.73281  1.0000
  H   H3382     1.0  0.51150  0.89598  0.66574  1.0000
  H   H3383     1.0  0.52859  0.73480  0.97173  1.0000
  N   N207      1.0  0.54230  0.88290  0.76490  1.0000
  C   C2125     1.0  0.55000  0.87912  0.75207  1.0000
  C   C2126     1.0  0.53112  0.87590  0.77054  1.0000
  C   C2127     1.0  0.53685  0.89753  0.76252  1.0000
  C   C2128     1.0  0.55118  0.87913  0.77442  1.0000
  H   H3384     1.0  0.55843  0.88432  0.74743  1.0000
  H   H3385     1.0  0.54366  0.88185  0.74459  1.0000
  H   H3386     1.0  0.55431  0.86815  0.75349  1.0000
  H   H3387     1.0  0.52492  0.87872  0.78011  1.0000
  H   H3388     1.0  0.52436  0.87857  0.76343  1.0000
  H   H3389     1.0  0.53480  0.86481  0.77260  1.0000
  H   H3390     1.0  0.53060  0.90068  0.77190  1.0000
  H   H3391     1.0  0.53042  0.90074  0.75508  1.0000
  H   H3392     1.0  0.54501  0.90316  0.75863  1.0000
  H   H3393     1.0  0.54572  0.88199  0.78415  1.0000
  C   C2129     1.0  0.51269  0.97269  0.75201  1.0000
  H   H3394     1.0  0.57617  0.85779  0.95798  1.0000
  N   N208      1.0  0.56067  0.80039  0.92923  1.0000
  C   C2130     1.0  0.55627  0.79738  0.94402  1.0000
  C   C2131     1.0  0.54886  0.80445  0.92320  1.0000
  C   C2132     1.0  0.56969  0.78835  0.92475  1.0000
  C   C2133     1.0  0.56786  0.81142  0.92498  1.0000
  C   C2134     1.0  0.53993  0.85401  0.96317  1.0000
  H   H3395     1.0  0.56495  0.79397  0.94891  1.0000
  C   C2135     1.0  0.50057  0.78519  0.92523  1.0000
  H   H3396     1.0  0.55176  0.80736  0.91206  1.0000
  H   H3397     1.0  0.49574  0.69952  0.89070  1.0000
  C   C2136     1.0  0.51634  0.95807  0.66192  1.0000
  H   H3398     1.0  0.57852  0.78473  0.92942  1.0000
  H   H3399     1.0  0.53925  0.69778  0.95890  1.0000
  C   C2137     1.0  0.49643  0.93752  0.78725  1.0000
  H   H3400     1.0  0.57143  0.81393  0.91389  1.0000
  H   H3401     1.0  0.54969  0.80638  0.94768  1.0000
  C   C2138     1.0  0.50536  0.85794  0.90411  1.0000
  C   C2139     1.0  0.49024  0.73302  0.94469  1.0000
  H   H3402     1.0  0.52739  0.91702  0.78564  1.0000
  S   S864      1.0  0.51676  0.86453  0.89019  1.0000
  C   C2140     1.0  0.54853  0.95767  0.73143  1.0000
  H   H3403     1.0  0.52980  0.85290  0.96472  1.0000
  H   H3404     1.0  0.54218  0.67302  0.90114  1.0000
  H   H3405     1.0  0.51948  0.78632  0.93654  1.0000
  C   C2141     1.0  0.53323  0.70828  0.95774  1.0000
  C   C2142     1.0  0.55413  0.96274  0.73891  1.0000
  H   H3406     1.0  0.51407  0.77088  0.94471  1.0000
  H   H3407     1.0  0.50330  0.84126  0.93681  1.0000
  H   H3408     1.0  0.54360  0.79611  0.92570  1.0000
  C   C2143     1.0  0.56005  0.75510  0.94592  1.0000
  N   N209      1.0  0.50822  0.98652  0.75426  1.0000
  C   C2144     1.0  0.50334  0.73445  0.93850  1.0000
  C   C2145     1.0  0.54216  0.96642  0.72141  1.0000
  H   H3409     1.0  0.52167  0.72672  0.92555  1.0000
  C   C2146     1.0  0.50728  0.71480  0.92946  1.0000
  N   N210      1.0  0.57140  0.89536  0.83171  1.0000
  C   C2147     1.0  0.56675  0.88804  0.84558  1.0000
  C   C2148     1.0  0.56271  0.89522  0.82312  1.0000
  C   C2149     1.0  0.58533  0.88886  0.82633  1.0000
  C   C2150     1.0  0.57081  0.90939  0.83177  1.0000
  H   H3410     1.0  0.55626  0.89273  0.84988  1.0000
  H   H3411     1.0  0.57298  0.88806  0.85241  1.0000
  H   H3412     1.0  0.56710  0.87738  0.84599  1.0000
  H   H3413     1.0  0.56286  0.88480  0.82286  1.0000
  H   H3414     1.0  0.55216  0.90024  0.82678  1.0000
  H   H3415     1.0  0.56599  0.90065  0.81257  1.0000
  H   H3416     1.0  0.58620  0.87822  0.82618  1.0000
  H   H3417     1.0  0.59216  0.88895  0.83250  1.0000
  H   H3418     1.0  0.58905  0.89418  0.81582  1.0000
  H   H3419     1.0  0.56033  0.91494  0.83472  1.0000
  H   H3420     1.0  0.57515  0.91495  0.82166  1.0000
  H   H3421     1.0  0.57649  0.90992  0.83885  1.0000
  C   C2151     1.0  0.56557  0.91320  0.65531  1.0000
  C   C2152     1.0  0.52255  0.93778  0.78689  1.0000
  H   H3422     1.0  0.51787  0.67442  0.89398  1.0000
  H   H3423     1.0  0.57348  0.79046  0.91366  1.0000
  C   C2153     1.0  0.58348  0.75515  0.94192  1.0000
  H   H3424     1.0  0.57679  0.80869  0.92943  1.0000
  C   C2154     1.0  0.55620  0.86104  0.97019  1.0000
  C   C2155     1.0  0.50710  0.88454  0.72425  1.0000
  H   H3425     1.0  0.55548  0.86814  0.77651  1.0000
  H   H3426     1.0  0.53077  0.73518  0.95428  1.0000
  H   H3427     1.0  0.50764  0.96286  0.70114  1.0000
  C   C2156     1.0  0.51305  0.89553  0.72104  1.0000
  C   C2157     1.0  0.56899  0.89933  0.92019  1.0000
  C   C2158     1.0  0.50890  0.85246  0.91656  1.0000
  C   C2159     1.0  0.55727  0.76134  0.95669  1.0000
  C   C2160     1.0  0.55503  0.89026  0.94117  1.0000
  C   C2161     1.0  0.54187  0.98014  0.71850  1.0000
  C   C2162     1.0  0.51959  0.92602  0.78610  1.0000
  C   C2163     1.0  0.49937  0.94924  0.78803  1.0000
  H   H3428     1.0  0.57210  0.90003  0.90911  1.0000
  H   H3429     1.0  0.59605  0.69836  0.88966  1.0000
  C   C2164     1.0  0.50041  0.84572  0.92727  1.0000
  H   H3430     1.0  0.50634  0.95818  0.66059  1.0000
  C   C2165     1.0  0.49557  0.98765  0.76452  1.0000
  H   H3431     1.0  0.50515  0.96998  0.74846  1.0000
  C   C2166     1.0  0.56864  0.96675  0.69109  1.0000
  N   N211      1.0  0.53574  0.71543  0.96657  1.0000
  H   H3432     1.0  0.58918  0.68822  0.90541  1.0000
  H   H3433     1.0  0.53929  0.89087  0.92521  1.0000
  H   H3434     1.0  0.49878  0.88011  0.66550  1.0000
  H   H3435     1.0  0.49143  0.95805  0.78918  1.0000
  H   H3436     1.0  0.58438  0.73033  0.90164  1.0000
  C   C2167     1.0  0.54311  0.85974  0.97195  1.0000
  H   H3437     1.0  0.56496  0.90973  0.92183  1.0000
  H   H3438     1.0  0.57815  0.89507  0.92434  1.0000
  H   H3439     1.0  0.49634  0.90708  0.67178  1.0000
  H   H3440     1.0  0.52477  0.92467  0.67570  1.0000
  C   C2168     1.0  0.49759  0.96456  0.70725  1.0000
  C   C2169     1.0  0.50640  0.92577  0.78675  1.0000
  C   C2170     1.0  0.56485  0.87726  0.92411  1.0000
  C   C2171     1.0  0.59986  0.70625  0.91010  1.0000
  H   H3441     1.0  0.50911  0.91676  0.85169  1.0000
  C   C2172     1.0  0.50976  0.91761  0.84084  1.0000
  C   C2173     1.0  0.51232  0.94920  0.78839  1.0000
  C   C2174     1.0  0.50152  0.93040  0.82104  1.0000
  H   H3442     1.0  0.50860  0.93467  0.67337  1.0000
  C   C2175     1.0  0.51849  0.93506  0.67457  1.0000
  H   H3443     1.0  0.56851  0.70723  0.98304  1.0000
  H   H3444     1.0  0.55206  0.72156  0.96943  1.0000
  H   H3445     1.0  0.58562  0.95110  0.67469  1.0000
  C   C2176     1.0  0.49515  0.96879  0.71926  1.0000
  H   H3446     1.0  0.51059  0.83507  0.88891  1.0000
  H   H3447     1.0  0.53536  0.86331  0.98000  1.0000
  H   H3448     1.0  0.50886  0.92448  0.72733  1.0000
  H   H3449     1.0  0.49685  0.98062  0.77427  1.0000
  H   H3450     1.0  0.50790  0.91308  0.65677  1.0000
  C   C2177     1.0  0.50202  0.66766  0.98278  1.0000
  H   H3451     1.0  0.56638  0.71027  0.91471  1.0000
  H   H3452     1.0  0.57432  0.95260  0.66436  1.0000
  H   H3453     1.0  0.49948  0.91411  0.69442  1.0000
  H   H3454     1.0  0.49462  0.90799  0.74024  1.0000
  H   H3455     1.0  0.50224  0.80756  0.93112  1.0000
  H   H3456     1.0  0.57063  0.94483  0.68182  1.0000
  N   N212      1.0  0.56758  0.96637  0.67762  1.0000
  C   C2178     1.0  0.58514  0.72218  0.89658  1.0000
  H   H3457     1.0  0.59965  0.71403  0.91541  1.0000
  C   C2179     1.0  0.49160  0.74540  0.97636  1.0000
  H   H3458     1.0  0.50054  0.92110  0.81891  1.0000
  N   N213      1.0  0.50957  0.66758  0.96880  1.0000
  C   C2180     1.0  0.54773  0.90326  0.65525  1.0000
  H   H3459     1.0  0.60234  0.97969  0.76434  1.0000
  N   N214      1.0  0.55899  0.89094  0.92652  1.0000
  H   H3460     1.0  0.53718  0.98691  0.71058  1.0000
  H   H3461     1.0  0.58868  0.76390  0.95526  1.0000
  H   H3462     1.0  0.60855  0.70640  0.90138  1.0000
  H   H3463     1.0  0.57923  0.96497  0.69173  1.0000
  H   H3464     1.0  0.53575  0.71340  0.94700  1.0000
  H   H3465     1.0  0.51822  0.81986  0.86649  1.0000
  C   C2181     1.0  0.49431  0.71323  0.93575  1.0000
  C   C2182     1.0  0.51113  0.78198  0.94359  1.0000
  C   C2183     1.0  0.55004  0.71579  0.96321  1.0000
  H   H3466     1.0  0.49460  0.95070  0.83364  1.0000
  H   H3467     1.0  0.51566  0.98689  0.80096  1.0000
  H   H3468     1.0  0.51689  0.72949  0.96622  1.0000
  H   H3469     1.0  0.50321  0.77427  0.92537  1.0000
  H   H3470     1.0  0.50800  0.67290  0.91816  1.0000
  H   H3471     1.0  0.49400  0.93895  0.81677  1.0000
  H   H3472     1.0  0.55646  0.70549  0.96506  1.0000
  H   H3473     1.0  0.54256  0.90729  0.92197  1.0000
  H   H3474     1.0  0.60171  0.69630  0.91713  1.0000
  H   H3475     1.0  0.59723  0.98176  0.78139  1.0000
  C   C2184     1.0  0.54711  0.89686  0.92057  1.0000
  H   H3476     1.0  0.55220  0.96854  0.66732  1.0000
  H   H3477     1.0  0.55739  0.87083  0.92819  1.0000
  H   H3478     1.0  0.52138  0.70749  0.98345  1.0000
  H   H3479     1.0  0.55041  0.90038  0.94343  1.0000
  H   H3480     1.0  0.54294  0.95185  0.65701  1.0000
  H   H3481     1.0  0.51011  0.83318  0.85478  1.0000
  C   C2185     1.0  0.57601  0.70855  0.91767  1.0000
  S   S865      1.0  0.55943  0.98300  0.74637  1.0000
  C   C2186     1.0  0.53789  0.94474  0.66532  1.0000
  H   H3482     1.0  0.54482  0.93475  0.66589  1.0000
  H   H3483     1.0  0.49908  0.85347  0.87255  1.0000
  N   N215      1.0  0.49856  0.78761  0.93879  1.0000
  H   H3484     1.0  0.54874  0.96048  0.68485  1.0000
  H   H3485     1.0  0.56376  0.88594  0.94600  1.0000
  H   H3486     1.0  0.51375  0.70794  0.92331  1.0000
  H   H3487     1.0  0.51449  0.96523  0.76139  1.0000
  C   C2187     1.0  0.55043  0.81083  0.97480  1.0000
  H   H3488     1.0  0.49441  0.66161  0.96354  1.0000
  C   C2188     1.0  0.57487  0.95317  0.67450  1.0000
  C   C2189     1.0  0.50009  0.92290  0.75379  1.0000
  H   H3489     1.0  0.54325  0.80454  0.97598  1.0000
  H   H3490     1.0  0.50436  0.93099  0.75459  1.0000
  H   H3491     1.0  0.52040  0.98260  0.76854  1.0000
  H   H3492     1.0  0.54750  0.97827  0.68000  1.0000
  H   H3493     1.0  0.49894  0.66113  0.91780  1.0000
  H   H3494     1.0  0.51199  0.94334  0.83243  1.0000
  C   C2190     1.0  0.51249  0.83049  0.86488  1.0000
  H   H3495     1.0  0.50872  0.78969  0.91791  1.0000
  H   H3496     1.0  0.56791  0.98721  0.66934  1.0000
  H   H3497     1.0  0.51471  0.96191  0.67112  1.0000
  N   N216      1.0  0.49189  0.92771  0.74357  1.0000
  N   N217      1.0  0.49641  0.90057  0.65435  1.0000
  H   H3498     1.0  0.52248  0.70794  0.96006  1.0000
  H   H3499     1.0  0.52218  0.97153  0.74431  1.0000
  N   N218      1.0  0.49981  0.92926  0.83557  1.0000
  C   C2191     1.0  0.50815  0.67375  0.89258  1.0000
  C   C2192     1.0  0.57341  0.97710  0.66747  1.0000
  H   H3500     1.0  0.51672  0.93819  0.68420  1.0000
  H   H3501     1.0  0.53662  0.94781  0.67487  1.0000
  C   C2193     1.0  0.49857  0.88409  0.71657  1.0000
  H   H3502     1.0  0.56043  0.80562  0.96985  1.0000
  N   N219      1.0  0.52496  0.94441  0.66310  1.0000
  C   C2194     1.0  0.50527  0.65845  0.96343  1.0000
  H   H3503     1.0  0.52762  0.66941  0.97270  1.0000
  H   H3504     1.0  0.53004  0.66281  0.95816  1.0000
  C   C2195     1.0  0.50022  0.93255  0.73032  1.0000
  H   H3505     1.0  0.50852  0.66298  0.89337  1.0000
  H   H3506     1.0  0.50432  0.94105  0.73042  1.0000
  H   H3507     1.0  0.57070  0.81618  0.98144  1.0000
  N   N220      1.0  0.50022  0.83233  0.87552  1.0000
  C   C2196     1.0  0.50181  0.94167  0.83766  1.0000
  C   C2197     1.0  0.49285  0.84649  0.87295  1.0000
  H   H3508     1.0  0.51234  0.68162  0.94971  1.0000
  H   H3509     1.0  0.49488  0.83050  0.89690  1.0000
  H   H3510     1.0  0.49375  0.87573  0.71925  1.0000
  C   C2198     1.0  0.50387  0.82881  0.88871  1.0000
  C   C2199     1.0  0.49298  0.85738  0.90260  1.0000
  H   H3511     1.0  0.49440  0.93605  0.72231  1.0000
  H   H3512     1.0  0.57515  0.97835  0.78252  1.0000
  H   H3513     1.0  0.56336  0.97665  0.69365  1.0000
  H   H3514     1.0  0.58403  0.97605  0.66756  1.0000
  H   H3515     1.0  0.50852  0.91442  0.75137  1.0000
  C   C2200     1.0  0.49649  0.69372  0.90104  1.0000
  H   H3516     1.0  0.50561  0.69507  0.90317  1.0000
  C   C2201     1.0  0.55337  0.96852  0.67741  1.0000
  S   S866      1.0  0.55892  0.98461  0.80733  1.0000
  C   C2202     1.0  0.54778  0.98514  0.72573  1.0000
  S   S867      1.0  0.56049  0.86777  0.98138  1.0000
  H   H3517     1.0  0.49403  0.91925  0.76388  1.0000
  N   N221      1.0  0.49684  0.67936  0.90262  1.0000
  H   H3518     1.0  0.49262  0.98411  0.67536  1.0000
  H   H3519     1.0  0.57950  0.97701  0.76526  1.0000
  C   C2203     1.0  0.59757  0.98720  0.77073  1.0000
  C   C2204     1.0  0.57563  0.98425  0.77200  1.0000
  C   C2205     1.0  0.53197  0.70836  0.98072  1.0000
  H   H3520     1.0  0.54743  0.82060  0.96786  1.0000
  H   H3521     1.0  0.49696  0.81275  0.87731  1.0000
  H   H3522     1.0  0.52088  0.96530  0.65322  1.0000
  S   S868      1.0  0.50352  0.76398  0.97896  1.0000
  C   C2206     1.0  0.49953  0.74817  0.98330  1.0000
  H   H3523     1.0  0.49292  0.80445  0.94822  1.0000
  C   C2207     1.0  0.49169  0.82351  0.87556  1.0000
  C   C2208     1.0  0.49081  0.88879  0.66228  1.0000
  H   H3524     1.0  0.49025  0.67599  0.92412  1.0000
  S   S869      1.0  0.49017  0.95622  0.68885  1.0000
  H   H3525     1.0  0.87598  0.14930  0.38070  1.0000
  H   H3526     1.0  0.80595  0.01415  0.45717  1.0000
  Fe  Fe432     1.0  0.95691  0.30744  0.53010  1.0000
  H   H3527     1.0  0.98972  0.16528  0.54280  1.0000
  H   H3528     1.0  0.98853  0.09602  0.44423  1.0000
  H   H3529     1.0  0.94345  0.24207  0.47013  1.0000
  C   C2209     1.0  0.74142  0.04829  0.45847  1.0000
  S   S870      1.0  0.77282  0.01204  0.42263  1.0000
  H   H3530     1.0  0.75191  0.04433  0.43899  1.0000
  Fe  Fe433     1.0  0.84229  0.02144  0.42937  1.0000
  S   S871      1.0  0.84494  0.03312  0.40798  1.0000
  S   S872      1.0  0.84281  0.99948  0.43791  1.0000
  Fe  Fe434     1.0  0.83658  0.04657  0.44035  1.0000
  S   S873      1.0  0.83817  0.06028  0.42009  1.0000
  S   S874      1.0  0.83212  0.05491  0.45860  1.0000
  Fe  Fe435     1.0  0.82656  0.04759  0.41620  1.0000
  S   S875      1.0  0.80716  0.05612  0.40932  1.0000
  Fe  Fe436     1.0  0.85633  0.04459  0.41427  1.0000
  S   S876      1.0  0.87672  0.04948  0.40474  1.0000
  S   S877      1.0  0.82347  0.03525  0.43719  1.0000
  S   S878      1.0  0.85520  0.03137  0.43494  1.0000
  Fe  Fe437     1.0  0.88088  0.01842  0.52116  1.0000
  S   S879      1.0  0.87037  0.03329  0.53431  1.0000
  H   H3531     1.0  0.94290  0.13575  0.44803  1.0000
  Fe  Fe438     1.0  0.88294  0.04044  0.49587  1.0000
  S   S880      1.0  0.87238  0.05684  0.50688  1.0000
  S   S881      1.0  0.88757  0.04592  0.47341  1.0000
  Fe  Fe439     1.0  0.88540  0.04562  0.52153  1.0000
  S   S882      1.0  0.89273  0.05929  0.52959  1.0000
  Fe  Fe440     1.0  0.85855  0.04312  0.51840  1.0000
  S   S883      1.0  0.83628  0.05076  0.52226  1.0000
  S   S884      1.0  0.89706  0.02988  0.50966  1.0000
  S   S885      1.0  0.86810  0.02761  0.50610  1.0000
  Fe  Fe441     1.0  0.95072  0.09706  0.51058  1.0000
  S   S886      1.0  0.95934  0.10827  0.49010  1.0000
  S   S887      1.0  0.94883  0.07569  0.51320  1.0000
  Fe  Fe442     1.0  0.94761  0.12043  0.52344  1.0000
  S   S888      1.0  0.95540  0.13362  0.50392  1.0000
  S   S889      1.0  0.93906  0.12690  0.54311  1.0000
  Fe  Fe443     1.0  0.94306  0.12565  0.49547  1.0000
  S   S890      1.0  0.93091  0.13830  0.48053  1.0000
  Fe  Fe444     1.0  0.97103  0.11505  0.50053  1.0000
  C   C2210     1.0  0.97826  0.28037  0.47472  1.0000
  S   S891      1.0  0.93366  0.11416  0.51532  1.0000
  S   S892      1.0  0.96403  0.10218  0.52067  1.0000
  Fe  Fe445     1.0  0.90871  0.10302  0.41648  1.0000
  S   S893      1.0  0.92214  0.08820  0.42947  1.0000
  S   S894      1.0  0.89073  0.10193  0.40987  1.0000
  Fe  Fe446     1.0  0.91677  0.12715  0.41980  1.0000
  S   S895      1.0  0.93066  0.11465  0.43312  1.0000
  S   S896      1.0  0.90992  0.14951  0.41635  1.0000
  Fe  Fe447     1.0  0.93719  0.10117  0.41853  1.0000
  S   S897      1.0  0.95936  0.09252  0.41291  1.0000
  Fe  Fe448     1.0  0.91478  0.10290  0.44282  1.0000
  S   S898      1.0  0.90776  0.09780  0.46505  1.0000
  S   S899      1.0  0.92441  0.11472  0.40421  1.0000
  S   S900      1.0  0.90038  0.11658  0.43098  1.0000
  Fe  Fe449     1.0  0.95186  0.19774  0.52869  1.0000
  S   S901      1.0  0.96330  0.19160  0.50948  1.0000
  S   S902      1.0  0.94850  0.18174  0.54752  1.0000
  Fe  Fe450     1.0  0.94755  0.22788  0.51566  1.0000
  S   S903      1.0  0.95855  0.22383  0.49535  1.0000
  S   S904      1.0  0.93873  0.25011  0.51397  1.0000
  Fe  Fe451     1.0  0.94744  0.20750  0.50061  1.0000
  S   S905      1.0  0.93696  0.20474  0.48645  1.0000
  Fe  Fe452     1.0  0.97317  0.20854  0.50631  1.0000
  C   C2211     1.0  0.93821  0.16245  0.43956  1.0000
  S   S906      1.0  0.93514  0.21256  0.52005  1.0000
  S   S907      1.0  0.96305  0.21355  0.52646  1.0000
  Fe  Fe453     1.0  0.95165  0.21900  0.40976  1.0000
  S   S908      1.0  0.97215  0.21510  0.41346  1.0000
  S   S909      1.0  0.93716  0.23580  0.41871  1.0000
  Fe  Fe454     1.0  0.95867  0.19486  0.39708  1.0000
  N   N222      1.0  0.98638  0.27293  0.37616  1.0000
  S   S910      1.0  0.95612  0.18036  0.38673  1.0000
  Fe  Fe455     1.0  0.97031  0.19366  0.42044  1.0000
  C   C2212     1.0  0.74270  0.04824  0.47123  1.0000
  Fe  Fe456     1.0  0.97924  0.21099  0.39276  1.0000
  C   C2213     1.0  0.94973  0.13964  0.43854  1.0000
  S   S911      1.0  0.94929  0.19766  0.41808  1.0000
  S   S912      1.0  0.95885  0.21666  0.38832  1.0000
  H   H3532     1.0  0.85653  0.02595  0.46592  1.0000
  C   C2214     1.0  0.80642  0.03390  0.52291  1.0000
  C   C2215     1.0  0.75282  0.04433  0.44885  1.0000
  H   H3533     1.0  0.97702  0.28159  0.46435  1.0000
  S   S913      1.0  0.95158  0.28811  0.54299  1.0000
  H   H3534     1.0  0.75627  0.04364  0.48441  1.0000
  H   H3535     1.0  0.91484  0.14152  0.38859  1.0000
  H   H3536     1.0  0.85695  0.99297  0.55239  1.0000
  H   H3537     1.0  0.88200  0.16265  0.38273  1.0000
  H   H3538     1.0  0.96998  0.24993  0.48769  1.0000
  C   C2216     1.0  0.81244  0.02021  0.52503  1.0000
  H   H3539     1.0  0.82575  0.01260  0.47645  1.0000
  H   H3540     1.0  0.91172  0.15128  0.37257  1.0000
  C   C2217     1.0  0.98321  0.09769  0.41295  1.0000
  Fe  Fe457     1.0  0.77936  0.02290  0.49002  1.0000
  H   H3541     1.0  0.84332  0.00122  0.54421  1.0000
  C   C2218     1.0  0.86392  0.99258  0.52034  1.0000
  N   N223      1.0  0.97086  0.27058  0.48453  1.0000
  C   C2219     1.0  0.94306  0.27759  0.39517  1.0000
  C   C2220     1.0  0.94759  0.31038  0.46967  1.0000
  C   C2221     1.0  0.76671  0.03991  0.46479  1.0000
  S   S914      1.0  0.77233  0.03063  0.50901  1.0000
  H   H3542     1.0  0.85975  0.01705  0.56036  1.0000
  H   H3543     1.0  0.77985  0.00413  0.46108  1.0000
  C   C2222     1.0  0.94282  0.26030  0.52208  1.0000
  C   C2223     1.0  0.94981  0.25488  0.53239  1.0000
  C   C2224     1.0  0.95259  0.26348  0.53872  1.0000
  C   C2225     1.0  0.94880  0.27748  0.53445  1.0000
  C   C2226     1.0  0.94226  0.28287  0.52381  1.0000
  C   C2227     1.0  0.93904  0.27430  0.51784  1.0000
  H   H3544     1.0  0.95278  0.24410  0.53570  1.0000
  H   H3545     1.0  0.95764  0.25925  0.54696  1.0000
  H   H3546     1.0  0.93919  0.29364  0.52053  1.0000
  H   H3547     1.0  0.93350  0.27856  0.50997  1.0000
  C   C2228     1.0  0.76545  0.04022  0.45197  1.0000
  H   H3548     1.0  0.98717  0.27414  0.39579  1.0000
  H   H3549     1.0  0.94539  0.13994  0.43004  1.0000
  H   H3550     1.0  0.82681  0.99939  0.56565  1.0000
  S   S915      1.0  0.74055  0.01723  0.44966  1.0000
  H   H3551     1.0  0.98993  0.09683  0.47871  1.0000
  C   C2229     1.0  0.98501  0.25881  0.38040  1.0000
  H   H3552     1.0  0.84863  0.01453  0.49623  1.0000
  H   H3553     1.0  0.78818  0.00358  0.47366  1.0000
  Fe  Fe458     1.0  0.75820  0.01659  0.51493  1.0000
  C   C2230     1.0  0.94806  0.19685  0.47401  1.0000
  C   C2231     1.0  0.94333  0.19543  0.46363  1.0000
  C   C2232     1.0  0.95227  0.19009  0.45302  1.0000
  C   C2233     1.0  0.96593  0.18604  0.45285  1.0000
  C   C2234     1.0  0.97058  0.18697  0.46353  1.0000
  C   C2235     1.0  0.96166  0.19245  0.47408  1.0000
  H   H3554     1.0  0.93279  0.19879  0.46357  1.0000
  H   H3555     1.0  0.94854  0.18912  0.44502  1.0000
  C   C2236     1.0  0.83444  0.98837  0.40790  1.0000
  H   H3556     1.0  0.96541  0.19370  0.48196  1.0000
  C   C2237     1.0  0.96964  0.10301  0.41275  1.0000
  H   H3557     1.0  0.97688  0.11476  0.45559  1.0000
  C   C2238     1.0  0.95650  0.27528  0.48438  1.0000
  S   S916      1.0  0.78251  0.03436  0.46875  1.0000
  C   C2239     1.0  0.97247  0.12478  0.41304  1.0000
  C   C2240     1.0  0.96437  0.11665  0.41256  1.0000
  C   C2241     1.0  0.94625  0.26706  0.38850  1.0000
  H   H3558     1.0  0.96834  0.13535  0.41261  1.0000
  H   H3559     1.0  0.95410  0.12098  0.41187  1.0000
  C   C2242     1.0  0.92296  0.15787  0.40854  1.0000
  C   C2243     1.0  0.93502  0.15136  0.40148  1.0000
  C   C2244     1.0  0.94515  0.15839  0.39470  1.0000
  C   C2245     1.0  0.94339  0.17176  0.39538  1.0000
  C   C2246     1.0  0.93150  0.17812  0.40284  1.0000
  C   C2247     1.0  0.92117  0.17124  0.40920  1.0000
  H   H3560     1.0  0.93645  0.14101  0.40096  1.0000
  H   H3561     1.0  0.95440  0.15344  0.38899  1.0000
  H   H3562     1.0  0.93010  0.18847  0.40332  1.0000
  H   H3563     1.0  0.91182  0.17628  0.41467  1.0000
  C   C2248     1.0  0.78482  0.99218  0.39179  1.0000
  H   H3564     1.0  0.97071  0.27862  0.39260  1.0000
  H   H3565     1.0  0.85681  0.00925  0.54159  1.0000
  H   H3566     1.0  0.79229  0.99533  0.44109  1.0000
  C   C2249     1.0  0.75534  0.04390  0.47445  1.0000
  H   H3567     1.0  0.78535  0.98830  0.47206  1.0000
  H   H3568     1.0  0.85131  0.99108  0.47467  1.0000
  H   H3569     1.0  0.95619  0.15886  0.41667  1.0000
  H   H3570     1.0  0.93503  0.28346  0.41417  1.0000
  C   C2250     1.0  0.83431  0.00066  0.57042  1.0000
  C   C2251     1.0  0.94246  0.14185  0.54417  1.0000
  C   C2252     1.0  0.93593  0.14722  0.55552  1.0000
  C   C2253     1.0  0.93792  0.15941  0.55643  1.0000
  C   C2254     1.0  0.94625  0.16649  0.54589  1.0000
  C   C2255     1.0  0.95288  0.16110  0.53453  1.0000
  C   C2256     1.0  0.95111  0.14872  0.53375  1.0000
  H   H3571     1.0  0.92928  0.14197  0.56366  1.0000
  H   H3572     1.0  0.93287  0.16342  0.56530  1.0000
  H   H3573     1.0  0.95970  0.16621  0.52656  1.0000
  H   H3574     1.0  0.95656  0.14444  0.52517  1.0000
  C   C2257     1.0  0.92329  0.12747  0.47694  1.0000
  C   C2258     1.0  0.92418  0.11425  0.48444  1.0000
  C   C2259     1.0  0.91856  0.10538  0.48138  1.0000
  C   C2260     1.0  0.91249  0.10955  0.47043  1.0000
  C   C2261     1.0  0.91149  0.12279  0.46293  1.0000
  C   C2262     1.0  0.91672  0.13181  0.46630  1.0000
  H   H3575     1.0  0.92943  0.11067  0.49246  1.0000
  H   H3576     1.0  0.91945  0.09515  0.48717  1.0000
  H   H3577     1.0  0.90678  0.12607  0.45443  1.0000
  H   H3578     1.0  0.91595  0.14201  0.46045  1.0000
  C   C2263     1.0  0.90834  0.06395  0.52319  1.0000
  C   C2264     1.0  0.90887  0.07742  0.52135  1.0000
  C   C2265     1.0  0.92121  0.08124  0.51771  1.0000
  C   C2266     1.0  0.93315  0.07154  0.51634  1.0000
  C   C2267     1.0  0.93264  0.05810  0.51800  1.0000
  C   C2268     1.0  0.92029  0.05433  0.52126  1.0000
  H   H3579     1.0  0.89966  0.08492  0.52281  1.0000
  H   H3580     1.0  0.92146  0.09166  0.51615  1.0000
  H   H3581     1.0  0.94184  0.05052  0.51700  1.0000
  H   H3582     1.0  0.92001  0.04388  0.52292  1.0000
  C   C2269     1.0  0.88036  0.06355  0.40771  1.0000
  C   C2270     1.0  0.89366  0.06369  0.40701  1.0000
  C   C2271     1.0  0.89694  0.07515  0.40832  1.0000
  C   C2272     1.0  0.88696  0.08671  0.40992  1.0000
  C   C2273     1.0  0.87365  0.08651  0.41084  1.0000
  C   C2274     1.0  0.87034  0.07493  0.40992  1.0000
  H   H3583     1.0  0.90148  0.05496  0.40522  1.0000
  H   H3584     1.0  0.90724  0.07520  0.40749  1.0000
  H   H3585     1.0  0.86588  0.09543  0.41196  1.0000
  H   H3586     1.0  0.86011  0.07504  0.41028  1.0000
  C   C2275     1.0  0.84744  0.05404  0.46210  1.0000
  C   C2276     1.0  0.85932  0.05238  0.45228  1.0000
  C   C2277     1.0  0.87171  0.04988  0.45568  1.0000
  C   C2278     1.0  0.87218  0.04937  0.46884  1.0000
  C   C2279     1.0  0.86024  0.05186  0.47839  1.0000
  C   C2280     1.0  0.84791  0.05412  0.47506  1.0000
  H   H3587     1.0  0.85902  0.05304  0.44204  1.0000
  H   H3588     1.0  0.88087  0.04828  0.44812  1.0000
  H   H3589     1.0  0.86038  0.05207  0.48841  1.0000
  H   H3590     1.0  0.83876  0.05560  0.48266  1.0000
  C   C2281     1.0  0.78220  0.02449  0.41880  1.0000
  C   C2282     1.0  0.79599  0.02057  0.41835  1.0000
  C   C2283     1.0  0.80363  0.03022  0.41557  1.0000
  C   C2284     1.0  0.79765  0.04391  0.41284  1.0000
  C   C2285     1.0  0.78394  0.04786  0.41303  1.0000
  C   C2286     1.0  0.77623  0.03819  0.41607  1.0000
  H   H3591     1.0  0.80084  0.01008  0.42030  1.0000
  H   H3592     1.0  0.81423  0.02706  0.41530  1.0000
  H   H3593     1.0  0.77925  0.05843  0.41086  1.0000
  H   H3594     1.0  0.76570  0.04138  0.41618  1.0000
  C   C2287     1.0  0.98583  0.11937  0.41393  1.0000
  H   H3595     1.0  0.98645  0.25303  0.48180  1.0000
  H   H3596     1.0  0.79521  0.99739  0.40889  1.0000
  C   C2288     1.0  0.93774  0.27530  0.40901  1.0000
  C   C2289     1.0  0.98754  0.17626  0.54229  1.0000
  H   H3597     1.0  0.97466  0.29047  0.47721  1.0000
  S   S917      1.0  0.97951  0.18911  0.40021  1.0000
  S   S918      1.0  0.79553  0.00619  0.49726  1.0000
  H   H3598     1.0  0.86616  0.01200  0.47563  1.0000
  H   H3599     1.0  0.96842  0.24560  0.43723  1.0000
  C   C2290     1.0  0.98680  0.11573  0.45616  1.0000
  C   C2291     1.0  0.82741  0.03912  0.52225  1.0000
  C   C2292     1.0  0.81387  0.04334  0.52172  1.0000
  H   H3600     1.0  0.82717  0.02186  0.55134  1.0000
  H   H3601     1.0  0.84392  0.02221  0.52410  1.0000
  H   H3602     1.0  0.80908  0.05388  0.52062  1.0000
  H   H3603     1.0  0.96767  0.26165  0.50564  1.0000
  H   H3604     1.0  0.94501  0.22311  0.44504  1.0000
  C   C2293     1.0  0.98857  0.22888  0.50933  1.0000
  S   S919      1.0  0.96414  0.29741  0.41161  1.0000
  H   H3605     1.0  0.98525  0.12009  0.46500  1.0000
  S   S920      1.0  0.80304  0.00801  0.52870  1.0000
  H   H3606     1.0  0.96746  0.14542  0.44870  1.0000
  H   H3607     1.0  0.79590  0.03717  0.52279  1.0000
  C   C2294     1.0  0.84824  0.99626  0.48320  1.0000
  H   H3608     1.0  0.98915  0.27710  0.47443  1.0000
  C   C2295     1.0  0.83702  0.99617  0.41528  1.0000
  H   H3609     1.0  0.84123  0.02920  0.54822  1.0000
  H   H3610     1.0  0.98153  0.17805  0.55230  1.0000
  N   N224      1.0  0.84567  0.01102  0.47838  1.0000
  C   C2296     1.0  0.95736  0.15218  0.44955  1.0000
  H   H3611     1.0  0.83712  0.00665  0.41098  1.0000
  H   H3612     1.0  0.89023  0.12620  0.38265  1.0000
  H   H3613     1.0  0.92507  0.15585  0.52743  1.0000
  N   N225      1.0  0.87369  0.08965  0.45594  1.0000
  C   C2297     1.0  0.87350  0.10416  0.45212  1.0000
  C   C2298     1.0  0.86247  0.08734  0.45198  1.0000
  C   C2299     1.0  0.87235  0.08496  0.47064  1.0000
  C   C2300     1.0  0.88645  0.08223  0.44899  1.0000
  H   H3614     1.0  0.88174  0.10629  0.45513  1.0000
  H   H3615     1.0  0.86396  0.11008  0.45708  1.0000
  H   H3616     1.0  0.87466  0.10798  0.44105  1.0000
  H   H3617     1.0  0.85268  0.09305  0.45672  1.0000
  H   H3618     1.0  0.86351  0.09028  0.44086  1.0000
  H   H3619     1.0  0.86202  0.07659  0.45511  1.0000
  H   H3620     1.0  0.87272  0.07400  0.47388  1.0000
  H   H3621     1.0  0.86271  0.09013  0.47624  1.0000
  H   H3622     1.0  0.88058  0.08681  0.47392  1.0000
  H   H3623     1.0  0.89513  0.08382  0.45171  1.0000
  H   H3624     1.0  0.88782  0.08552  0.43787  1.0000
  H   H3625     1.0  0.88691  0.07124  0.45161  1.0000
  S   S921      1.0  0.76440  0.01018  0.49530  1.0000
  H   H3626     1.0  0.84800  0.98978  0.51340  1.0000
  H   H3627     1.0  0.95848  0.16220  0.44978  1.0000
  C   C2301     1.0  0.97276  0.26931  0.49812  1.0000
  H   H3628     1.0  0.98257  0.24432  0.52068  1.0000
  H   H3629     1.0  0.95477  0.27727  0.47407  1.0000
  C   C2302     1.0  0.85814  0.01491  0.46989  1.0000
  H   H3630     1.0  0.79628  0.01621  0.44521  1.0000
  H   H3631     1.0  0.96795  0.27985  0.36948  1.0000
  H   H3632     1.0  0.83068  0.00546  0.52686  1.0000
  H   H3633     1.0  0.98063  0.26239  0.55896  1.0000
  H   H3634     1.0  0.93907  0.17278  0.43905  1.0000
  H   H3635     1.0  0.97040  0.15114  0.42412  1.0000
  C   C2303     1.0  0.88511  0.15318  0.37901  1.0000
  H   H3636     1.0  0.81226  0.99217  0.47184  1.0000
  C   C2304     1.0  0.83500  0.02261  0.55598  1.0000
  H   H3637     1.0  0.94998  0.26884  0.37773  1.0000
  C   C2305     1.0  0.94171  0.23099  0.45105  1.0000
  H   H3638     1.0  0.97881  0.23062  0.50731  1.0000
  H   H3639     1.0  0.93333  0.16308  0.43135  1.0000
  H   H3640     1.0  0.84013  0.99045  0.57415  1.0000
  S   S922      1.0  0.77244  0.99922  0.52467  1.0000
  C   C2306     1.0  0.94472  0.25415  0.39572  1.0000
  C   C2307     1.0  0.90707  0.14875  0.38346  1.0000
  H   H3641     1.0  0.93553  0.31481  0.55037  1.0000
  H   H3642     1.0  0.91960  0.07505  0.54628  1.0000
  H   H3643     1.0  0.93790  0.08719  0.53586  1.0000
  N   N226      1.0  0.92322  0.17076  0.50922  1.0000
  C   C2308     1.0  0.93752  0.17121  0.50494  1.0000
  C   C2309     1.0  0.92068  0.16123  0.50290  1.0000
  C   C2310     1.0  0.91507  0.18429  0.50503  1.0000
  C   C2311     1.0  0.91964  0.16631  0.52401  1.0000
  H   H3644     1.0  0.94065  0.17420  0.49381  1.0000
  H   H3645     1.0  0.94397  0.16128  0.50825  1.0000
  H   H3646     1.0  0.93972  0.17859  0.50921  1.0000
  H   H3647     1.0  0.92664  0.15089  0.50587  1.0000
  H   H3648     1.0  0.90998  0.16068  0.50582  1.0000
  H   H3649     1.0  0.92341  0.16420  0.49172  1.0000
  H   H3650     1.0  0.90420  0.18442  0.50816  1.0000
  H   H3651     1.0  0.91751  0.18792  0.49390  1.0000
  H   H3652     1.0  0.91691  0.19178  0.50945  1.0000
  H   H3653     1.0  0.90878  0.16652  0.52771  1.0000
  H   H3654     1.0  0.92220  0.17281  0.52911  1.0000
  H   H3655     1.0  0.96862  0.27897  0.50150  1.0000
  H   H3656     1.0  0.98571  0.28513  0.56764  1.0000
  H   H3657     1.0  0.93135  0.15918  0.44928  1.0000
  N   N227      1.0  0.95141  0.15306  0.43827  1.0000
  H   H3658     1.0  0.95868  0.22034  0.46772  1.0000
  S   S923      1.0  0.93585  0.32003  0.41003  1.0000
  H   H3659     1.0  0.93082  0.26097  0.42670  1.0000
  H   H3660     1.0  0.94105  0.09785  0.54455  1.0000
  H   H3661     1.0  0.97900  0.29111  0.36271  1.0000
  H   H3662     1.0  0.92421  0.04109  0.49568  1.0000
  H   H3663     1.0  0.91679  0.03800  0.48389  1.0000
  H   H3664     1.0  0.93403  0.03901  0.47931  1.0000
  H   H3665     1.0  0.86127  0.00332  0.51734  1.0000
  H   H3666     1.0  0.88051  0.13560  0.40283  1.0000
  S   S924      1.0  0.96433  0.31818  0.54095  1.0000
  S   S925      1.0  0.97511  0.30601  0.51342  1.0000
  C   C2312     1.0  0.88938  0.14007  0.40050  1.0000
  H   H3667     1.0  0.92592  0.06822  0.56129  1.0000
  H   H3668     1.0  0.94454  0.07995  0.55063  1.0000
  H   H3669     1.0  0.86198  0.01011  0.46107  1.0000
  H   H3670     1.0  0.82872  0.00510  0.57927  1.0000
  H   H3671     1.0  0.90337  0.13267  0.36977  1.0000
  H   H3672     1.0  0.95654  0.25052  0.46003  1.0000
  H   H3673     1.0  0.94740  0.24603  0.39054  1.0000
  C   C2313     1.0  0.91931  0.07706  0.55612  1.0000
  C   C2314     1.0  0.93738  0.08861  0.54598  1.0000
  C   C2315     1.0  0.92395  0.04337  0.48485  1.0000
  N   N228      1.0  0.80105  0.99602  0.45671  1.0000
  H   H3674     1.0  0.98755  0.29646  0.55152  1.0000
  H   H3675     1.0  0.89678  0.13268  0.40592  1.0000
  H   H3676     1.0  0.91772  0.11067  0.54567  1.0000
  H   H3677     1.0  0.77466  0.08260  0.45574  1.0000
  H   H3678     1.0  0.78085  0.09032  0.43855  1.0000
  H   H3679     1.0  0.95944  0.13221  0.43778  1.0000
  S   S926      1.0  0.94594  0.29342  0.38597  1.0000
  H   H3680     1.0  0.90890  0.07751  0.56215  1.0000
  H   H3681     1.0  0.98253  0.27742  0.53673  1.0000
  C   C2316     1.0  0.78392  0.08389  0.44791  1.0000
  H   H3682     1.0  0.93411  0.23910  0.44641  1.0000
  H   H3683     1.0  0.82981  0.02791  0.56430  1.0000
  H   H3684     1.0  0.98631  0.31287  0.42053  1.0000
  H   H3685     1.0  0.98741  0.08719  0.41282  1.0000
  N   N229      1.0  0.92365  0.08963  0.55428  1.0000
  H   H3686     1.0  0.78931  0.08941  0.45135  1.0000
  C   C2317     1.0  0.83530  0.01538  0.47039  1.0000
  H   H3687     1.0  0.83259  0.99289  0.39794  1.0000
  H   H3688     1.0  0.90455  0.15802  0.38745  1.0000
  H   H3689     1.0  0.84791  0.01538  0.57618  1.0000
  C   C2318     1.0  0.93543  0.26257  0.41610  1.0000
  C   C2319     1.0  0.91454  0.10106  0.54749  1.0000
  N   N230      1.0  0.92000  0.05797  0.47953  1.0000
  H   H3690     1.0  0.90650  0.06108  0.49826  1.0000
  H   H3691     1.0  0.93011  0.06347  0.49137  1.0000
  H   H3692     1.0  0.94008  0.06075  0.47524  1.0000
  H   H3693     1.0  0.77527  0.06282  0.44804  1.0000
  H   H3694     1.0  0.78281  0.06929  0.43088  1.0000
  C   C2320     1.0  0.92983  0.06474  0.48070  1.0000
  H   H3695     1.0  0.91654  0.07136  0.46090  1.0000
  H   H3696     1.0  0.91223  0.05547  0.46398  1.0000
  H   H3697     1.0  0.89891  0.05881  0.48624  1.0000
  Fe  Fe459     1.0  0.98173  0.31807  0.52343  1.0000
  C   C2321     1.0  0.93922  0.25189  0.40952  1.0000
  H   H3698     1.0  0.97454  0.28720  0.55691  1.0000
  H   H3699     1.0  0.93028  0.08346  0.57285  1.0000
  H   H3700     1.0  0.90411  0.10229  0.55359  1.0000
  H   H3701     1.0  0.91429  0.09963  0.53759  1.0000
  C   C2322     1.0  0.91954  0.06046  0.46524  1.0000
  C   C2323     1.0  0.90666  0.06328  0.48735  1.0000
  N   N231      1.0  0.79239  0.07078  0.44560  1.0000
  C   C2324     1.0  0.78495  0.06384  0.44090  1.0000
  H   H3702     1.0  0.79236  0.99558  0.38273  1.0000
  H   H3703     1.0  0.80224  0.07928  0.42561  1.0000
  H   H3704     1.0  0.95068  0.26777  0.49097  1.0000
  C   C2325     1.0  0.92341  0.09183  0.56749  1.0000
  Fe  Fe460     1.0  0.77992  0.99415  0.50447  1.0000
  C   C2326     1.0  0.84104  0.01754  0.48998  1.0000
  N   N232      1.0  0.89515  0.14319  0.38592  1.0000
  H   H3705     1.0  0.95104  0.14830  0.45939  1.0000
  H   H3706     1.0  0.80197  0.06726  0.46200  1.0000
  H   H3707     1.0  0.95236  0.25114  0.43302  1.0000
  H   H3708     1.0  0.96186  0.16805  0.42497  1.0000
  Fe  Fe461     1.0  0.78723  0.01245  0.51692  1.0000
  H   H3709     1.0  0.92663  0.10130  0.56633  1.0000
  H   H3710     1.0  0.91321  0.09263  0.57407  1.0000
  C   C2327     1.0  0.78802  0.99804  0.46631  1.0000
  H   H3711     1.0  0.77885  0.00124  0.39577  1.0000
  C   C2328     1.0  0.97589  0.25732  0.48091  1.0000
  C   C2329     1.0  0.83354  0.02550  0.52363  1.0000
  H   H3712     1.0  0.90355  0.07435  0.48406  1.0000
  H   H3713     1.0  0.92731  0.07573  0.47642  1.0000
  H   H3714     1.0  0.96667  0.21694  0.45136  1.0000
  C   C2330     1.0  0.80460  0.07288  0.43529  1.0000
  C   C2331     1.0  0.79611  0.06248  0.45826  1.0000
  H   H3715     1.0  0.79074  0.05353  0.43986  1.0000
  Fe  Fe462     1.0  0.95082  0.31267  0.42330  1.0000
  H   H3716     1.0  0.81086  0.07755  0.43864  1.0000
  C   C2332     1.0  0.83962  0.99030  0.42812  1.0000
  N   N233      1.0  0.95309  0.23615  0.45134  1.0000
  H   H3717     1.0  0.83312  0.02647  0.46661  1.0000
  H   H3718     1.0  0.83161  0.01487  0.49660  1.0000
  H   H3719     1.0  0.93017  0.30757  0.56780  1.0000
  H   H3720     1.0  0.92945  0.05662  0.45905  1.0000
  C   C2333     1.0  0.98129  0.27921  0.38791  1.0000
  H   H3721     1.0  0.80241  0.05245  0.45690  1.0000
  C   C2334     1.0  0.96305  0.22497  0.45720  1.0000
  C   C2335     1.0  0.95936  0.24224  0.43751  1.0000
  H   H3722     1.0  0.94064  0.25494  0.45547  1.0000
  C   C2336     1.0  0.80443  0.00920  0.44995  1.0000
  H   H3723     1.0  0.98871  0.25367  0.37183  1.0000
  H   H3724     1.0  0.94009  0.30448  0.47445  1.0000
  C   C2337     1.0  0.82602  0.01604  0.52527  1.0000
  H   H3725     1.0  0.90647  0.12296  0.38582  1.0000
  C   C2338     1.0  0.94824  0.24638  0.45961  1.0000
  H   H3726     1.0  0.93663  0.22647  0.46134  1.0000
  C   C2339     1.0  0.96142  0.32089  0.44948  1.0000
  C   C2340     1.0  0.95261  0.31568  0.47753  1.0000
  H   H3727     1.0  0.77418  0.03705  0.44452  1.0000
  S   S927      1.0  0.88396  0.99600  0.53009  1.0000
  S   S928      1.0  0.97721  0.18056  0.43896  1.0000
  H   H3728     1.0  0.83919  0.99295  0.49005  1.0000
  H   H3729     1.0  0.83901  0.02869  0.48664  1.0000
  C   C2341     1.0  0.89897  0.13077  0.38076  1.0000
  H   H3730     1.0  0.88913  0.15578  0.36797  1.0000
  H   H3731     1.0  0.81081  0.06318  0.43305  1.0000
  H   H3732     1.0  0.78713  0.06069  0.46632  1.0000
  C   C2342     1.0  0.98509  0.28657  0.55704  1.0000
  C   C2343     1.0  0.96033  0.15798  0.42546  1.0000
  H   H3733     1.0  0.91916  0.31144  0.55652  1.0000
  Fe  Fe463     1.0  0.75026  0.01845  0.42790  1.0000
  H   H3734     1.0  0.97190  0.22841  0.45742  1.0000
  H   H3735     1.0  0.96233  0.23503  0.43080  1.0000
  H   H3736     1.0  0.88641  0.14915  0.40483  1.0000
  C   C2344     1.0  0.85033  0.00290  0.54926  1.0000
  C   C2345     1.0  0.92679  0.31504  0.55905  1.0000
  H   H3737     1.0  0.95215  0.28475  0.48805  1.0000
  H   H3738     1.0  0.94906  0.31377  0.48833  1.0000
  C   C2346     1.0  0.97865  0.28028  0.36575  1.0000
  H   H3739     1.0  0.83852  0.01077  0.46145  1.0000
  C   C2347     1.0  0.85293  0.01067  0.56741  1.0000
  H   H3740     1.0  0.97440  0.25808  0.38470  1.0000
  Fe  Fe464     1.0  0.95025  0.30604  0.39742  1.0000
  C   C2348     1.0  0.95199  0.31297  0.45562  1.0000
  H   H3741     1.0  0.98111  0.18408  0.46339  1.0000
  N   N234      1.0  0.84313  0.00922  0.56077  1.0000
  H   H3742     1.0  0.85640  0.99254  0.48882  1.0000
  H   H3743     1.0  0.97553  0.25798  0.47038  1.0000
  H   H3744     1.0  0.98140  0.09164  0.46934  1.0000
  H   H3745     1.0  0.98353  0.26612  0.49850  1.0000
  S   S929      1.0  0.94564  0.30606  0.44605  1.0000
  H   H3746     1.0  0.98173  0.29002  0.38504  1.0000
  Fe  Fe465     1.0  0.97432  0.31404  0.39950  1.0000
  C   C2349     1.0  0.80024  0.98932  0.44661  1.0000
  H   H3747     1.0  0.80899  0.98986  0.39737  1.0000
  H   H3748     1.0  0.85933  0.00076  0.57101  1.0000
  H   H3749     1.0  0.98244  0.27598  0.35663  1.0000
  H   H3750     1.0  0.81374  0.00821  0.44195  1.0000
  H   H3751     1.0  0.98099  0.18136  0.53498  1.0000
  H   H3752     1.0  0.77795  0.98819  0.38855  1.0000
  H   H3753     1.0  0.74019  0.00295  0.50938  1.0000
  H   H3754     1.0  0.94641  0.39299  0.31143  1.0000
  C   C2350     1.0  0.75176  0.54993  0.98697  1.0000
  C   C2351     1.0  0.91008  0.47844  0.17840  1.0000
  S   S930      1.0  0.78481  0.42069  0.02616  1.0000
  H   H3755     1.0  0.98787  0.50571  0.13539  1.0000
  C   C2352     1.0  0.80882  0.49617  0.07372  1.0000
  C   C2353     1.0  0.87590  0.37685  0.03616  1.0000
  H   H3756     1.0  0.97105  0.45107  0.26719  1.0000
  C   C2354     1.0  0.92953  0.55199  0.29292  1.0000
  C   C2355     1.0  0.98070  0.44097  0.07948  1.0000
  C   C2356     1.0  0.86752  0.39531  0.04744  1.0000
  H   H3757     1.0  0.83995  0.49590  0.00816  1.0000
  Fe  Fe466     1.0  0.97188  0.42866  0.29877  1.0000
  Fe  Fe467     1.0  0.88287  0.51208  0.05719  1.0000
  S   S931      1.0  0.88115  0.49491  0.04977  1.0000
  S   S932      1.0  0.89713  0.50574  0.07124  1.0000
  Fe  Fe468     1.0  0.85785  0.52992  0.04776  1.0000
  S   S933      1.0  0.85390  0.51402  0.04036  1.0000
  S   S934      1.0  0.84357  0.54992  0.04754  1.0000
  Fe  Fe469     1.0  0.85945  0.50031  0.05910  1.0000
  S   S935      1.0  0.84791  0.48523  0.07264  1.0000
  Fe  Fe470     1.0  0.87591  0.51032  0.03162  1.0000
  S   S936      1.0  0.88360  0.50564  0.01105  1.0000
  S   S937      1.0  0.86123  0.51651  0.06749  1.0000
  S   S938      1.0  0.87977  0.52715  0.03796  1.0000
  Fe  Fe471     1.0  0.86395  0.44706  0.99311  1.0000
  S   S939      1.0  0.87563  0.42637  0.00022  1.0000
  C   C2357     1.0  0.79702  0.51331  0.05822  1.0000
  Fe  Fe472     1.0  0.84877  0.44970  0.02114  1.0000
  S   S940      1.0  0.85897  0.42934  0.03081  1.0000
  S   S941      1.0  0.83157  0.46136  0.03367  1.0000
  Fe  Fe473     1.0  0.87768  0.43463  0.01678  1.0000
  S   S942      1.0  0.89778  0.42929  0.02254  1.0000
  Fe  Fe474     1.0  0.85596  0.42295  0.01367  1.0000
  S   S943      1.0  0.84785  0.40448  0.01812  1.0000
  S   S944      1.0  0.86765  0.45580  0.00841  1.0000
  S   S945      1.0  0.84419  0.44290  0.00526  1.0000
  Fe  Fe475     1.0  0.94893  0.44159  0.08301  1.0000
  S   S946      1.0  0.94391  0.42136  0.08759  1.0000
  S   S947      1.0  0.96799  0.44757  0.07035  1.0000
  Fe  Fe476     1.0  0.92363  0.45265  0.10203  1.0000
  S   S948      1.0  0.91702  0.43329  0.10852  1.0000
  S   S949      1.0  0.91064  0.47075  0.10960  1.0000
  Fe  Fe477     1.0  0.93850  0.42379  0.10901  1.0000
  S   S950      1.0  0.94709  0.40905  0.12592  1.0000
  Fe  Fe478     1.0  0.92279  0.43308  0.08642  1.0000
  S   S951      1.0  0.90509  0.43124  0.07946  1.0000
  S   S952      1.0  0.94453  0.44335  0.10435  1.0000
  S   S953      1.0  0.92851  0.45310  0.08003  1.0000
  Fe  Fe479     1.0  0.94232  0.52347  0.10795  1.0000
  S   S954      1.0  0.95296  0.50182  0.11298  1.0000
  S   S955      1.0  0.93323  0.53275  0.08947  1.0000
  Fe  Fe480     1.0  0.94980  0.53017  0.13078  1.0000
  S   S956      1.0  0.96053  0.50908  0.13767  1.0000
  S   S957      1.0  0.95224  0.54492  0.14110  1.0000
  Fe  Fe481     1.0  0.96929  0.50946  0.11593  1.0000
  H   H3758     1.0  0.98213  0.46601  0.23112  1.0000
  Fe  Fe482     1.0  0.94337  0.50339  0.13435  1.0000
  S   S958      1.0  0.93552  0.48601  0.14874  1.0000
  S   S959      1.0  0.95966  0.53103  0.10902  1.0000
  S   S960      1.0  0.93153  0.52454  0.12933  1.0000
  Fe  Fe483     1.0  0.96339  0.44239  0.18798  1.0000
  S   S961      1.0  0.96020  0.42140  0.19416  1.0000
  Fe  Fe484     1.0  0.74580  0.44350  0.00362  1.0000
  Fe  Fe485     1.0  0.93657  0.45335  0.20481  1.0000
  S   S962      1.0  0.93132  0.43329  0.21311  1.0000
  S   S963      1.0  0.92273  0.47254  0.20881  1.0000
  Fe  Fe486     1.0  0.95278  0.42576  0.21490  1.0000
  S   S964      1.0  0.96306  0.41308  0.23151  1.0000
  Fe  Fe487     1.0  0.93917  0.43102  0.19167  1.0000
  S   S965      1.0  0.92530  0.42758  0.18116  1.0000
  S   S966      1.0  0.95712  0.44622  0.20872  1.0000
  S   S967      1.0  0.94332  0.45158  0.18338  1.0000
  Fe  Fe488     1.0  0.93907  0.53053  0.21751  1.0000
  S   S968      1.0  0.95459  0.51134  0.21945  1.0000
  S   S969      1.0  0.92533  0.53634  0.20318  1.0000
  Fe  Fe489     1.0  0.94289  0.53760  0.24171  1.0000
  S   S970      1.0  0.95848  0.51893  0.24620  1.0000
  S   S971      1.0  0.93677  0.55401  0.25306  1.0000
  Fe  Fe490     1.0  0.96652  0.52315  0.22391  1.0000
  H   H3759     1.0  0.98185  0.56246  0.26981  1.0000
  Fe  Fe491     1.0  0.94531  0.50859  0.24147  1.0000
  S   S972      1.0  0.94200  0.48803  0.25210  1.0000
  S   S973      1.0  0.95201  0.54280  0.21968  1.0000
  S   S974      1.0  0.92876  0.52686  0.23933  1.0000
  H   H3760     1.0  0.95473  0.51323  0.16498  1.0000
  H   H3761     1.0  0.92808  0.45687  0.00942  1.0000
  H   H3762     1.0  0.96575  0.48134  0.09254  1.0000
  H   H3763     1.0  0.91535  0.44742  0.01416  1.0000
  N   N235      1.0  0.80969  0.50832  0.06286  1.0000
  H   H3764     1.0  0.92088  0.45122  0.02687  1.0000
  Fe  Fe492     1.0  0.78972  0.51766  0.01261  1.0000
  H   H3765     1.0  0.96901  0.56342  0.12467  1.0000
  H   H3766     1.0  0.80026  0.49822  0.08225  1.0000
  C   C2358     1.0  0.93184  0.54867  0.27058  1.0000
  C   C2359     1.0  0.93279  0.55635  0.27891  1.0000
  C   C2360     1.0  0.96375  0.47795  0.08442  1.0000
  C   C2361     1.0  0.91847  0.56462  0.21824  1.0000
  C   C2362     1.0  0.92321  0.53284  0.29037  1.0000
  C   C2363     1.0  0.92711  0.53686  0.27631  1.0000
  H   H3767     1.0  0.93628  0.56558  0.27454  1.0000
  H   H3768     1.0  0.90385  0.45222  0.17061  1.0000
  H   H3769     1.0  0.97984  0.44491  0.22731  1.0000
  H   H3770     1.0  0.92621  0.53098  0.26992  1.0000
  C   C2364     1.0  0.92644  0.47652  0.22207  1.0000
  C   C2365     1.0  0.93257  0.46645  0.23154  1.0000
  C   C2366     1.0  0.93662  0.46991  0.24137  1.0000
  C   C2367     1.0  0.93500  0.48343  0.24139  1.0000
  C   C2368     1.0  0.92861  0.49342  0.23208  1.0000
  C   C2369     1.0  0.92416  0.48997  0.22257  1.0000
  H   H3771     1.0  0.93413  0.45600  0.23134  1.0000
  H   H3772     1.0  0.94124  0.46213  0.24872  1.0000
  H   H3773     1.0  0.92713  0.50386  0.23209  1.0000
  H   H3774     1.0  0.91939  0.49779  0.21529  1.0000
  C   C2370     1.0  0.94471  0.54258  0.15833  1.0000
  C   C2371     1.0  0.93274  0.53816  0.16330  1.0000
  C   C2372     1.0  0.92670  0.53663  0.17704  1.0000
  C   C2373     1.0  0.93288  0.53893  0.18595  1.0000
  C   C2374     1.0  0.94497  0.54313  0.18103  1.0000
  C   C2375     1.0  0.95076  0.54517  0.16720  1.0000
  H   H3775     1.0  0.92798  0.53626  0.15649  1.0000
  H   H3776     1.0  0.91729  0.53348  0.18079  1.0000
  H   H3777     1.0  0.94978  0.54496  0.18785  1.0000
  H   H3778     1.0  0.96001  0.54860  0.16340  1.0000
  C   C2376     1.0  0.94149  0.41466  0.14103  1.0000
  C   C2377     1.0  0.94842  0.40881  0.15142  1.0000
  C   C2378     1.0  0.94388  0.41314  0.16360  1.0000
  C   C2379     1.0  0.93216  0.42306  0.16553  1.0000
  C   C2380     1.0  0.92531  0.42893  0.15511  1.0000
  C   C2381     1.0  0.93008  0.42491  0.14282  1.0000
  H   H3779     1.0  0.95719  0.40078  0.15009  1.0000
  H   H3780     1.0  0.94907  0.40840  0.17169  1.0000
  H   H3781     1.0  0.91616  0.43646  0.15656  1.0000
  H   H3782     1.0  0.92465  0.42941  0.13490  1.0000
  C   C2382     1.0  0.91636  0.47430  0.12186  1.0000
  C   C2383     1.0  0.91263  0.48738  0.12393  1.0000
  C   C2384     1.0  0.91838  0.49090  0.13241  1.0000
  C   C2385     1.0  0.92734  0.48116  0.13937  1.0000
  C   C2386     1.0  0.93044  0.46786  0.13799  1.0000
  C   C2387     1.0  0.92510  0.46446  0.12907  1.0000
  H   H3783     1.0  0.90565  0.49495  0.11863  1.0000
  H   H3784     1.0  0.91595  0.50120  0.13345  1.0000
  H   H3785     1.0  0.93723  0.46030  0.14350  1.0000
  H   H3786     1.0  0.92774  0.45425  0.12776  1.0000
  C   C2388     1.0  0.89966  0.42974  0.03846  1.0000
  C   C2389     1.0  0.88861  0.43267  0.04878  1.0000
  C   C2390     1.0  0.89050  0.43302  0.06126  1.0000
  C   C2391     1.0  0.90341  0.43083  0.06345  1.0000
  C   C2392     1.0  0.91446  0.42806  0.05306  1.0000
  C   C2393     1.0  0.91257  0.42730  0.04070  1.0000
  H   H3787     1.0  0.87862  0.43454  0.04722  1.0000
  H   H3788     1.0  0.88188  0.43493  0.06930  1.0000
  H   H3789     1.0  0.92445  0.42615  0.05467  1.0000
  H   H3790     1.0  0.92119  0.42483  0.03283  1.0000
  C   C2394     1.0  0.92195  0.52615  0.08507  1.0000
  C   C2395     1.0  0.91823  0.53178  0.07262  1.0000
  C   C2396     1.0  0.91012  0.52606  0.06838  1.0000
  C   C2397     1.0  0.90566  0.51465  0.07661  1.0000
  C   C2398     1.0  0.90909  0.50930  0.08915  1.0000
  C   C2399     1.0  0.91718  0.51500  0.09339  1.0000
  H   H3791     1.0  0.92202  0.54034  0.06606  1.0000
  H   H3792     1.0  0.90786  0.53006  0.05853  1.0000
  H   H3793     1.0  0.90573  0.50043  0.09549  1.0000
  H   H3794     1.0  0.91997  0.51059  0.10297  1.0000
  C   C2400     1.0  0.84499  0.47654  0.06243  1.0000
  C   C2401     1.0  0.85196  0.47777  0.04901  1.0000
  C   C2402     1.0  0.84823  0.47254  0.04025  1.0000
  C   C2403     1.0  0.83728  0.46646  0.04485  1.0000
  C   C2404     1.0  0.83051  0.46494  0.05833  1.0000
  C   C2405     1.0  0.83458  0.46970  0.06721  1.0000
  H   H3795     1.0  0.86003  0.48303  0.04528  1.0000
  H   H3796     1.0  0.85345  0.47372  0.02982  1.0000
  H   H3797     1.0  0.82214  0.46008  0.06189  1.0000
  H   H3798     1.0  0.82931  0.46857  0.07763  1.0000
  H   H3799     1.0  0.93770  0.46959  0.29581  1.0000
  H   H3800     1.0  0.88787  0.47474  0.02630  1.0000
  H   H3801     1.0  0.97131  0.45607  0.12454  1.0000
  C   C2406     1.0  0.93993  0.48339  0.09306  1.0000
  S   S975      1.0  0.97746  0.55252  0.29842  1.0000
  H   H3802     1.0  0.93408  0.50540  0.17070  1.0000
  H   H3803     1.0  0.92996  0.48804  0.09065  1.0000
  N   N236      1.0  0.97442  0.43605  0.13680  1.0000
  N   N237      1.0  0.84581  0.49344  0.98778  1.0000
  C   C2407     1.0  0.98943  0.54771  0.13565  1.0000
  H   H3804     1.0  0.85633  0.48567  0.00382  1.0000
  C   C2408     1.0  0.95649  0.48617  0.17302  1.0000
  H   H3805     1.0  0.95202  0.50415  0.08455  1.0000
  C   C2409     1.0  0.87815  0.51347  0.98589  1.0000
  H   H3806     1.0  0.81297  0.52801  0.06013  1.0000
  C   C2410     1.0  0.97908  0.56557  0.11956  1.0000
  H   H3807     1.0  0.91453  0.47506  0.99500  1.0000
  H   H3808     1.0  0.90496  0.54488  0.22865  1.0000
  H   H3809     1.0  0.97548  0.43161  0.24140  1.0000
  H   H3810     1.0  0.95807  0.45005  0.26015  1.0000
  H   H3811     1.0  0.81363  0.48338  0.98687  1.0000
  H   H3812     1.0  0.98509  0.42860  0.20459  1.0000
  C   C2411     1.0  0.97924  0.43055  0.09086  1.0000
  C   C2412     1.0  0.93962  0.47836  0.28744  1.0000
  H   H3813     1.0  0.93077  0.49224  0.18521  1.0000
  C   C2413     1.0  0.98960  0.45502  0.18188  1.0000
  H   H3814     1.0  0.87019  0.55719  0.04107  1.0000
  H   H3815     1.0  0.97067  0.42604  0.09364  1.0000
  H   H3816     1.0  0.90902  0.48600  0.16888  1.0000
  H   H3817     1.0  0.98379  0.44382  0.11642  1.0000
  H   H3818     1.0  0.90109  0.58693  0.22421  1.0000
  H   H3819     1.0  0.95918  0.55410  0.26436  1.0000
  H   H3820     1.0  0.82728  0.50805  0.99045  1.0000
  H   H3821     1.0  0.75142  0.55016  0.99717  1.0000
  H   H3822     1.0  0.95317  0.43773  0.14237  1.0000
  H   H3823     1.0  0.95412  0.47382  0.30526  1.0000
  C   C2414     1.0  0.78247  0.48103  0.98734  1.0000
  H   H3824     1.0  0.93527  0.50483  0.27676  1.0000
  C   C2415     1.0  0.94860  0.48083  0.07020  1.0000
  H   H3825     1.0  0.91805  0.56646  0.20750  1.0000
  C   C2416     1.0  0.90467  0.45790  0.19316  1.0000
  H   H3826     1.0  0.88000  0.56929  0.03836  1.0000
  C   C2417     1.0  0.82789  0.55022  0.04485  1.0000
  C   C2418     1.0  0.98757  0.57290  0.29958  1.0000
  C   C2419     1.0  0.94183  0.41568  0.27494  1.0000
  H   H3827     1.0  0.81718  0.56265  0.05904  1.0000
  C   C2420     1.0  0.80239  0.41543  0.02258  1.0000
  C   C2421     1.0  0.81053  0.42167  0.01102  1.0000
  C   C2422     1.0  0.82453  0.41837  0.00954  1.0000
  C   C2423     1.0  0.83042  0.40856  0.01940  1.0000
  C   C2424     1.0  0.82229  0.40201  0.03062  1.0000
  C   C2425     1.0  0.80836  0.40559  0.03230  1.0000
  H   H3828     1.0  0.80606  0.42933  0.00348  1.0000
  H   H3829     1.0  0.83077  0.42335  0.00074  1.0000
  H   H3830     1.0  0.82674  0.39440  0.03825  1.0000
  H   H3831     1.0  0.80215  0.40076  0.04126  1.0000
  H   H3832     1.0  0.90702  0.46773  0.15939  1.0000
  H   H3833     1.0  0.89817  0.55654  0.21525  1.0000
  C   C2426     1.0  0.89888  0.55520  0.22583  1.0000
  H   H3834     1.0  0.98782  0.41749  0.10718  1.0000
  C   C2427     1.0  0.90855  0.46079  0.16911  1.0000
  H   H3835     1.0  0.95672  0.49042  0.30234  1.0000
  C   C2428     1.0  0.87828  0.55928  0.04439  1.0000
  H   H3836     1.0  0.79449  0.50542  0.05497  1.0000
  C   C2429     1.0  0.97551  0.46360  0.24124  1.0000
  H   H3837     1.0  0.94804  0.48162  0.19954  1.0000
  H   H3838     1.0  0.98308  0.44822  0.14361  1.0000
  H   H3839     1.0  0.88643  0.57998  0.22989  1.0000
  H   H3840     1.0  0.81948  0.49690  0.04757  1.0000
  C   C2430     1.0  0.97384  0.44271  0.23776  1.0000
  H   H3841     1.0  0.76446  0.48867  0.00083  1.0000
  S   S976      1.0  0.98241  0.44708  0.17420  1.0000
  C   C2431     1.0  0.92459  0.54032  0.29868  1.0000
  H   H3842     1.0  0.79767  0.52194  0.04947  1.0000
  H   H3843     1.0  0.98223  0.57903  0.29190  1.0000
  H   H3844     1.0  0.98369  0.46784  0.30886  1.0000
  C   C2432     1.0  0.80240  0.55006  0.04218  1.0000
  Fe  Fe493     1.0  0.77645  0.54583  0.00009  1.0000
  C   C2433     1.0  0.98280  0.56045  0.25980  1.0000
  H   H3845     1.0  0.95276  0.49761  0.27269  1.0000
  N   N238      1.0  0.94249  0.48880  0.29227  1.0000
  H   H3846     1.0  0.86098  0.52842  0.01201  1.0000
  H   H3847     1.0  0.98114  0.47439  0.20502  1.0000
  N   N239      1.0  0.79638  0.45467  0.03037  1.0000
  C   C2434     1.0  0.79398  0.45549  0.01710  1.0000
  C   C2435     1.0  0.78467  0.45142  0.04096  1.0000
  C   C2436     1.0  0.79849  0.46771  0.03072  1.0000
  C   C2437     1.0  0.80837  0.44407  0.03267  1.0000
  H   H3848     1.0  0.79213  0.44592  0.01654  1.0000
  H   H3849     1.0  0.80267  0.45776  0.00885  1.0000
  H   H3850     1.0  0.78505  0.46343  0.01504  1.0000
  H   H3851     1.0  0.78615  0.45065  0.05112  1.0000
  H   H3852     1.0  0.77543  0.45920  0.03950  1.0000
  H   H3853     1.0  0.78281  0.44163  0.04086  1.0000
  H   H3854     1.0  0.80715  0.47050  0.02269  1.0000
  H   H3855     1.0  0.80068  0.46741  0.04045  1.0000
  H   H3856     1.0  0.78961  0.47596  0.02920  1.0000
  H   H3857     1.0  0.81092  0.44367  0.04225  1.0000
  H   H3858     1.0  0.81725  0.44584  0.02448  1.0000
  H   H3859     1.0  0.80691  0.43399  0.03318  1.0000
  H   H3860     1.0  0.81806  0.49248  0.07776  1.0000
  H   H3861     1.0  0.92181  0.49765  0.29930  1.0000
  H   H3862     1.0  0.98010  0.53472  0.24836  1.0000
  H   H3863     1.0  0.92366  0.57192  0.21921  1.0000
  H   H3864     1.0  0.97896  0.57003  0.10877  1.0000
  H   H3865     1.0  0.88411  0.47883  0.18951  1.0000
  H   H3866     1.0  0.91103  0.57047  0.24261  1.0000
  S   S977      1.0  0.77770  0.51909  0.03332  1.0000
  H   H3867     1.0  0.89622  0.56374  0.24833  1.0000
  C   C2438     1.0  0.86372  0.52632  0.00210  1.0000
  H   H3868     1.0  0.89756  0.48221  0.00204  1.0000
  N   N240      1.0  0.90503  0.56547  0.22718  1.0000
  C   C2439     1.0  0.98614  0.45367  0.29682  1.0000
  C   C2440     1.0  0.90616  0.56308  0.24127  1.0000
  S   S978      1.0  0.77219  0.52569  0.00308  1.0000
  C   C2441     1.0  0.87458  0.51591  0.99890  1.0000
  H   H3869     1.0  0.97036  0.43526  0.26484  1.0000
  C   C2442     1.0  0.96884  0.44623  0.26028  1.0000
  H   H3870     1.0  0.84805  0.54223  0.99494  1.0000
  N   N241      1.0  0.98043  0.54704  0.26116  1.0000
  H   H3871     1.0  0.80398  0.52158  0.07652  1.0000
  Fe  Fe494     1.0  0.76887  0.45683  0.98824  1.0000
  C   C2443     1.0  0.93577  0.50086  0.18106  1.0000
  N   N242      1.0  0.88250  0.46775  0.08892  1.0000
  C   C2444     1.0  0.87455  0.48079  0.09194  1.0000
  C   C2445     1.0  0.89571  0.46950  0.08044  1.0000
  C   C2446     1.0  0.87560  0.46279  0.08167  1.0000
  C   C2447     1.0  0.88423  0.45787  0.10157  1.0000
  H   H3872     1.0  0.86450  0.47990  0.09836  1.0000
  H   H3873     1.0  0.87302  0.48839  0.08257  1.0000
  H   H3874     1.0  0.87971  0.48486  0.09719  1.0000
  H   H3875     1.0  0.90170  0.46000  0.07745  1.0000
  H   H3876     1.0  0.89480  0.47732  0.07110  1.0000
  H   H3877     1.0  0.90143  0.47276  0.08579  1.0000
  H   H3878     1.0  0.87471  0.46962  0.07175  1.0000
  H   H3879     1.0  0.86533  0.46191  0.08747  1.0000
  H   H3880     1.0  0.88112  0.45271  0.07977  1.0000
  H   H3881     1.0  0.87446  0.45613  0.10811  1.0000
  H   H3882     1.0  0.88930  0.46131  0.10740  1.0000
  H   H3883     1.0  0.89045  0.44800  0.09958  1.0000
  H   H3884     1.0  0.98748  0.41940  0.12868  1.0000
  N   N243      1.0  0.97745  0.44894  0.24668  1.0000
  H   H3885     1.0  0.78850  0.51682  0.06620  1.0000
  C   C2448     1.0  0.98174  0.54479  0.24769  1.0000
  S   S979      1.0  0.75960  0.45177  0.01013  1.0000
  H   H3886     1.0  0.86418  0.38853  0.05718  1.0000
  H   H3887     1.0  0.93519  0.42330  0.24368  1.0000
  C   C2449     1.0  0.98737  0.46843  0.19787  1.0000
  H   H3888     1.0  0.85910  0.56906  0.07292  1.0000
  H   H3889     1.0  0.86356  0.57942  0.05648  1.0000
  C   C2450     1.0  0.88863  0.47361  0.18103  1.0000
  H   H3890     1.0  0.88788  0.37628  0.05567  1.0000
  H   H3891     1.0  0.91928  0.52389  0.29483  1.0000
  C   C2451     1.0  0.86225  0.56913  0.06199  1.0000
  H   H3892     1.0  0.89957  0.37784  0.03969  1.0000
  H   H3893     1.0  0.90198  0.46530  0.99982  1.0000
  H   H3894     1.0  0.74412  0.48700  0.98956  1.0000
  C   C2452     1.0  0.90547  0.47282  0.00269  1.0000
  C   C2453     1.0  0.94093  0.41984  0.25138  1.0000
  N   N244      1.0  0.87464  0.55891  0.05897  1.0000
  C   C2454     1.0  0.89052  0.38328  0.04585  1.0000
  H   H3895     1.0  0.88561  0.40649  0.02767  1.0000
  C   C2455     1.0  0.83940  0.48194  0.99110  1.0000
  H   H3896     1.0  0.97797  0.53984  0.12096  1.0000
  H   H3897     1.0  0.88450  0.37135  0.02961  1.0000
  C   C2456     1.0  0.81636  0.55727  0.05215  1.0000
  S   S980      1.0  0.98840  0.52155  0.21520  1.0000
  H   H3898     1.0  0.88322  0.56141  0.07393  1.0000
  H   H3899     1.0  0.88759  0.57178  0.05750  1.0000
  C   C2457     1.0  0.88560  0.56170  0.06297  1.0000
  H   H3900     1.0  0.87511  0.40129  0.02041  1.0000
  H   H3901     1.0  0.89337  0.39173  0.04786  1.0000
  H   H3902     1.0  0.86741  0.38037  0.03094  1.0000
  H   H3903     1.0  0.97087  0.46502  0.19244  1.0000
  H   H3904     1.0  0.95894  0.44927  0.14785  1.0000
  H   H3905     1.0  0.92380  0.42400  0.26744  1.0000
  H   H3906     1.0  0.85382  0.56728  0.05900  1.0000
  H   H3907     1.0  0.77619  0.49732  0.01257  1.0000
  H   H3908     1.0  0.97549  0.56855  0.25476  1.0000
  C   C2458     1.0  0.88325  0.39760  0.02603  1.0000
  C   C2459     1.0  0.98897  0.42573  0.09858  1.0000
  H   H3909     1.0  0.83049  0.50172  0.05447  1.0000
  H   H3910     1.0  0.94648  0.50857  0.28437  1.0000
  C   C2460     1.0  0.95469  0.41455  0.24806  1.0000
  H   H3911     1.0  0.89508  0.55414  0.06081  1.0000
  S   S981      1.0  0.95125  0.44031  0.29742  1.0000
  H   H3912     1.0  0.93315  0.50048  0.30741  1.0000
  N   N245      1.0  0.87931  0.38824  0.03888  1.0000
  H   H3913     1.0  0.89226  0.39271  0.01939  1.0000
  H   H3914     1.0  0.88134  0.53740  0.06418  1.0000
  C   C2461     1.0  0.87237  0.54548  0.06651  1.0000
  C   C2462     1.0  0.84906  0.49468  0.99995  1.0000
  H   H3915     1.0  0.96501  0.46822  0.24026  1.0000
  H   H3916     1.0  0.98656  0.54738  0.10466  1.0000
  H   H3917     1.0  0.85890  0.39929  0.04241  1.0000
  H   H3918     1.0  0.86995  0.54468  0.07756  1.0000
  H   H3919     1.0  0.90086  0.46276  0.20193  1.0000
  N   N246      1.0  0.95018  0.49653  0.18106  1.0000
  S   S982      1.0  0.96736  0.40850  0.30288  1.0000
  H   H3920     1.0  0.90544  0.48761  0.01966  1.0000
  H   H3921     1.0  0.87287  0.36954  0.04562  1.0000
  H   H3922     1.0  0.96749  0.48310  0.17217  1.0000
  C   C2463     1.0  0.93449  0.42020  0.26485  1.0000
  H   H3923     1.0  0.96140  0.40709  0.27913  1.0000
  Fe  Fe495     1.0  0.78190  0.53981  0.02768  1.0000
  H   H3924     1.0  0.94012  0.47255  0.09723  1.0000
  H   H3925     1.0  0.86386  0.54334  0.06400  1.0000
  H   H3926     1.0  0.96373  0.48084  0.28947  1.0000
  H   H3927     1.0  0.96459  0.53638  0.27037  1.0000
  H   H3928     1.0  0.94056  0.48768  0.10121  1.0000
  H   H3929     1.0  0.89174  0.45797  0.02372  1.0000
  H   H3930     1.0  0.98889  0.52639  0.26912  1.0000
  H   H3931     1.0  0.96644  0.44397  0.11899  1.0000
  H   H3932     1.0  0.86973  0.40397  0.04972  1.0000
  H   H3933     1.0  0.94785  0.47015  0.07353  1.0000
  H   H3934     1.0  0.83007  0.48315  0.99902  1.0000
  Fe  Fe496     1.0  0.94631  0.42006  0.30319  1.0000
  H   H3935     1.0  0.96255  0.48859  0.19552  1.0000
  S   S983      1.0  0.75890  0.42267  0.00533  1.0000
  Fe  Fe497     1.0  0.77360  0.43158  0.00973  1.0000
  C   C2464     1.0  0.97738  0.42208  0.13515  1.0000
  S   S984      1.0  0.78619  0.54891  0.04240  1.0000
  S   S985      1.0  0.78410  0.43752  0.98832  1.0000
  H   H3936     1.0  0.91535  0.45309  0.19295  1.0000
  H   H3937     1.0  0.82146  0.51396  0.04296  1.0000
  H   H3938     1.0  0.88755  0.55166  0.04172  1.0000
  S   S986      1.0  0.92037  0.53501  0.31625  1.0000
  C   C2465     1.0  0.91859  0.45530  0.01671  1.0000
  H   H3939     1.0  0.98043  0.57332  0.12395  1.0000
  H   H3940     1.0  0.82173  0.51526  0.07154  1.0000
  C   C2466     1.0  0.81219  0.51873  0.06802  1.0000
  H   H3941     1.0  0.91950  0.45661  0.16806  1.0000
  C   C2467     1.0  0.81393  0.54340  0.03440  1.0000
  H   H3942     1.0  0.92758  0.38611  0.30859  1.0000
  H   H3943     1.0  0.94638  0.49823  0.20156  1.0000
  H   H3944     1.0  0.96401  0.46699  0.08788  1.0000
  C   C2468     1.0  0.95188  0.49097  0.19503  1.0000
  H   H3945     1.0  0.95912  0.50196  0.06765  1.0000
  H   H3946     1.0  0.97779  0.46869  0.24791  1.0000
  H   H3947     1.0  0.92097  0.47433  0.17776  1.0000
  H   H3948     1.0  0.96310  0.44648  0.23733  1.0000
  H   H3949     1.0  0.93603  0.36885  0.31291  1.0000
  C   C2469     1.0  0.95565  0.41080  0.27147  1.0000
  C   C2470     1.0  0.95481  0.48327  0.29754  1.0000
  H   H3950     1.0  0.95472  0.48981  0.16266  1.0000
  H   H3951     1.0  0.97553  0.45503  0.29773  1.0000
  H   H3952     1.0  0.88701  0.48107  0.17158  1.0000
  C   C2471     1.0  0.85643  0.53419  0.99238  1.0000
  H   H3953     1.0  0.89755  0.46118  0.03654  1.0000
  H   H3954     1.0  0.98474  0.40555  0.20406  1.0000
  H   H3955     1.0  0.96540  0.54793  0.27947  1.0000
  C   C2472     1.0  0.89666  0.57897  0.22334  1.0000
  H   H3956     1.0  0.94131  0.50597  0.07359  1.0000
  H   H3957     1.0  0.90631  0.48373  0.18686  1.0000
  N   N247      1.0  0.90821  0.46787  0.01633  1.0000
  Fe  Fe498     1.0  0.96470  0.54133  0.31598  1.0000
  C   C2473     1.0  0.80371  0.55706  0.05094  1.0000
  H   H3958     1.0  0.79485  0.56225  0.05694  1.0000
  C   C2474     1.0  0.82668  0.54339  0.03583  1.0000
  H   H3959     1.0  0.83554  0.53827  0.02981  1.0000
  H   H3960     1.0  0.89945  0.44963  0.19502  1.0000
  H   H3961     1.0  0.93065  0.48228  0.28297  1.0000
  C   C2475     1.0  0.97395  0.44542  0.12362  1.0000
  H   H3962     1.0  0.92483  0.55446  0.22070  1.0000
  H   H3963     1.0  0.96753  0.50515  0.17435  1.0000
  H   H3964     1.0  0.93059  0.55782  0.29929  1.0000
  H   H3965     1.0  0.95499  0.37589  0.31630  1.0000
  Fe  Fe499     1.0  0.76030  0.52875  0.02335  1.0000
  H   H3966     1.0  0.95253  0.51575  0.18152  1.0000
  C   C2476     1.0  0.93116  0.49302  0.30305  1.0000
  C   C2477     1.0  0.98736  0.54325  0.11532  1.0000
  C   C2478     1.0  0.92911  0.37736  0.31719  1.0000
  N   N248      1.0  0.95080  0.48556  0.08106  1.0000
  C   C2479     1.0  0.91302  0.47800  0.01973  1.0000
  S   S987      1.0  0.93367  0.41572  0.29188  1.0000
  C   C2480     1.0  0.95084  0.50003  0.07651  1.0000
  H   H3967     1.0  0.93061  0.50843  0.18733  1.0000
  C   C2481     1.0  0.77522  0.48731  0.99794  1.0000
  S   S988      1.0  0.76323  0.54969  0.01971  1.0000
  H   H3968     1.0  0.80751  0.48787  0.07008  1.0000
  H   H3969     1.0  0.88867  0.55555  0.23233  1.0000
  H   H3970     1.0  0.91237  0.55296  0.24454  1.0000
  C   C2482     1.0  0.96202  0.41007  0.25813  1.0000
  C   C2483     1.0  0.79569  0.49122  0.00031  1.0000
  C   C2484     1.0  0.82075  0.50506  0.05146  1.0000
  C   C2485     1.0  0.94435  0.50049  0.28104  1.0000
  H   H3971     1.0  0.84612  0.47239  0.99483  1.0000
  H   H3972     1.0  0.94811  0.47462  0.27957  1.0000
  H   H3973     1.0  0.81301  0.53807  0.02752  1.0000
  C   C2486     1.0  0.96681  0.54631  0.26921  1.0000
  H   H3974     1.0  0.97983  0.54467  0.14113  1.0000
  S   S989      1.0  0.79541  0.53756  0.00762  1.0000
  H   H3975     1.0  0.97264  0.40588  0.25566  1.0000
  C   C2487     1.0  0.96138  0.43888  0.14621  1.0000
  H   H3976     1.0  0.89563  0.58109  0.21276  1.0000
  H   H3977     1.0  0.95234  0.47701  0.17753  1.0000
  S   S990      1.0  0.80383  0.49893  0.00729  1.0000
  C   C2488     1.0  0.80297  0.48430  0.99019  1.0000
  H   H3978     1.0  0.88302  0.46574  0.18246  1.0000
  N   N249      1.0  0.90299  0.46769  0.18043  1.0000
  H   H3979     1.0  0.92913  0.48429  0.31140  1.0000
  H   H3980     1.0  0.91524  0.47449  0.02994  1.0000
  S   S991      1.0  0.74116  0.52124  0.03031  1.0000
  C   C2489     1.0  0.98157  0.46298  0.19091  1.0000
  C   C2490     1.0  0.78185  0.49238  0.00444  1.0000
  C   C2491     1.0  0.95653  0.50817  0.17519  1.0000
  H   H3981     1.0  0.93914  0.48669  0.06707  1.0000
  H   H3982     1.0  0.95698  0.48156  0.06119  1.0000
  H   H3983     1.0  0.97220  0.47914  0.07555  1.0000
  H   H3984     1.0  0.96133  0.43191  0.15623  1.0000
  S   S992      1.0  0.95734  0.52474  0.31342  1.0000
  C   C2492     1.0  0.98699  0.55938  0.30452  1.0000
  S   S993      1.0  0.98953  0.43426  0.28325  1.0000
  H   H3985     1.0  0.85349  0.50355  0.99787  1.0000
  C   C2493     1.0  0.89580  0.46534  0.02617  1.0000
  H   H3986     1.0  0.97000  0.42056  0.13039  1.0000
  H   H3987     1.0  0.97711  0.41476  0.14497  1.0000
  H   H3988     1.0  0.97430  0.55236  0.24235  1.0000
  H   H3989     1.0  0.98530  0.50418  0.24176  1.0000
  C   C2494     1.0  0.98500  0.43780  0.14219  1.0000
  H   H3990     1.0  0.98563  0.43091  0.15215  1.0000
  H   H3991     1.0  0.92226  0.48031  0.01241  1.0000
  N   N250      1.0  0.98969  0.55323  0.12119  1.0000
  H   H3992     1.0  0.98960  0.53800  0.27813  1.0000
  S   S994      1.0  0.95675  0.62609  0.40993  1.0000
  C   C2495     1.0  0.89716  0.55465  0.36921  1.0000
  H   H3993     1.0  0.94421  0.49876  0.64392  1.0000
  S   S995      1.0  0.97302  0.33795  0.51160  1.0000
  S   S996      1.0  0.94297  0.35619  0.53588  1.0000
  S   S997      1.0  0.96823  0.33109  0.48043  1.0000
  C   C2496     1.0  0.97649  0.52765  0.64089  1.0000
  H   H3994     1.0  0.91865  0.55416  0.37844  1.0000
  H   H3995     1.0  0.95612  0.49316  0.55186  1.0000
  S   S998      1.0  0.96524  0.41874  0.57221  1.0000
  H   H3996     1.0  0.90822  0.63809  0.57357  1.0000
  S   S999      1.0  0.97107  0.49235  0.33711  1.0000
  C   C2497     1.0  0.92880  0.42873  0.64333  1.0000
  Fe  Fe500     1.0  0.95341  0.50976  0.60275  1.0000
  S   S1000     1.0  0.95815  0.51662  0.61864  1.0000
  S   S1001     1.0  0.96218  0.48807  0.60138  1.0000
  Fe  Fe501     1.0  0.93974  0.53815  0.59067  1.0000
  S   S1002     1.0  0.94290  0.54729  0.60595  1.0000
  S   S1003     1.0  0.93214  0.54895  0.57172  1.0000
  H   H3997     1.0  0.94347  0.36005  0.33460  1.0000
  C   C2498     1.0  0.98078  0.59867  0.35172  1.0000
  Fe  Fe502     1.0  0.93733  0.52901  0.62101  1.0000
  H   H3998     1.0  0.98085  0.41223  0.62492  1.0000
  H   H3999     1.0  0.95656  0.35541  0.41790  1.0000
  S   S1004     1.0  0.93203  0.52093  0.60612  1.0000
  Fe  Fe503     1.0  0.94340  0.61844  0.52465  1.0000
  S   S1005     1.0  0.94562  0.63961  0.52116  1.0000
  H   H4000     1.0  0.98720  0.64577  0.58214  1.0000
  Fe  Fe504     1.0  0.95034  0.61959  0.49451  1.0000
  S   S1006     1.0  0.95287  0.64083  0.48885  1.0000
  C   C2499     1.0  0.92505  0.39208  0.33221  1.0000
  C   C2500     1.0  0.94026  0.47901  0.33403  1.0000
  C   C2501     1.0  0.98010  0.58575  0.37450  1.0000
  Fe  Fe505     1.0  0.93448  0.64436  0.50501  1.0000
  H   H4001     1.0  0.97784  0.46508  0.33418  1.0000
  C   C2502     1.0  0.96548  0.35840  0.41861  1.0000
  S   S1007     1.0  0.93071  0.62358  0.50941  1.0000
  N   N251      1.0  0.97936  0.40822  0.64624  1.0000
  S   S1008     1.0  0.92671  0.52681  0.64288  1.0000
  C   C2503     1.0  0.95062  0.49466  0.56209  1.0000
  S   S1009     1.0  0.94867  0.59980  0.40567  1.0000
  H   H4002     1.0  0.98886  0.37495  0.39713  1.0000
  H   H4003     1.0  0.91413  0.50225  0.65002  1.0000
  Fe  Fe506     1.0  0.94989  0.53974  0.34490  1.0000
  S   S1010     1.0  0.97059  0.52996  0.33539  1.0000
  S   S1011     1.0  0.94673  0.54637  0.36432  1.0000
  S   S1012     1.0  0.96152  0.42240  0.60330  1.0000
  Fe  Fe507     1.0  0.96108  0.51427  0.33384  1.0000
  C   C2504     1.0  0.93866  0.54541  0.64561  1.0000
  H   H4004     1.0  0.89774  0.63470  0.56484  1.0000
  S   S1013     1.0  0.94077  0.52294  0.34499  1.0000
  C   C2505     1.0  0.91744  0.33817  0.54981  1.0000
  H   H4005     1.0  0.98481  0.53300  0.63782  1.0000
  H   H4006     1.0  0.92878  0.39480  0.33968  1.0000
  Fe  Fe508     1.0  0.95461  0.40314  0.61038  1.0000
  H   H4007     1.0  0.92264  0.54778  0.35680  1.0000
  H   H4008     1.0  0.96316  0.51220  0.56427  1.0000
  H   H4009     1.0  0.94980  0.64894  0.42972  1.0000
  H   H4010     1.0  0.96472  0.45102  0.33063  1.0000
  H   H4011     1.0  0.96873  0.35294  0.39444  1.0000
  S   S1014     1.0  0.97220  0.39055  0.33820  1.0000
  H   H4012     1.0  0.97339  0.46359  0.59249  1.0000
  H   H4013     1.0  0.98175  0.60759  0.35459  1.0000
  H   H4014     1.0  0.96709  0.38258  0.38977  1.0000
  H   H4015     1.0  0.93587  0.42138  0.62504  1.0000
  H   H4016     1.0  0.95857  0.38445  0.40660  1.0000
  Fe  Fe509     1.0  0.94851  0.33496  0.39786  1.0000
  C   C2506     1.0  0.95992  0.46100  0.33209  1.0000
  S   S1015     1.0  0.94008  0.35707  0.39031  1.0000
  C   C2507     1.0  0.97771  0.63097  0.53046  1.0000
  S   S1016     1.0  0.94548  0.32652  0.51894  1.0000
  H   H4017     1.0  0.96200  0.36491  0.42604  1.0000
  H   H4018     1.0  0.98819  0.36379  0.54909  1.0000
  H   H4019     1.0  0.98145  0.62453  0.43505  1.0000
  S   S1017     1.0  0.96213  0.32876  0.41217  1.0000
  C   C2508     1.0  0.94748  0.38435  0.32015  1.0000
  H   H4020     1.0  0.98542  0.59951  0.49039  1.0000
  S   S1018     1.0  0.93364  0.63090  0.39317  1.0000
  H   H4021     1.0  0.96803  0.39338  0.64938  1.0000
  H   H4022     1.0  0.92326  0.64779  0.46109  1.0000
  S   S1019     1.0  0.96514  0.61929  0.38023  1.0000
  C   C2509     1.0  0.96275  0.38125  0.35222  1.0000
  C   C2510     1.0  0.96858  0.36791  0.35749  1.0000
  C   C2511     1.0  0.96154  0.36027  0.36890  1.0000
  C   C2512     1.0  0.94873  0.36603  0.37532  1.0000
  C   C2513     1.0  0.94287  0.37937  0.37002  1.0000
  C   C2514     1.0  0.94981  0.38694  0.35842  1.0000
  H   H4023     1.0  0.97346  0.62432  0.55203  1.0000
  H   H4024     1.0  0.96614  0.34998  0.37283  1.0000
  H   H4025     1.0  0.93298  0.38390  0.37498  1.0000
  H   H4026     1.0  0.94530  0.39727  0.35452  1.0000
  C   C2515     1.0  0.98852  0.57245  0.57579  1.0000
  H   H4027     1.0  0.91930  0.37453  0.32192  1.0000
  H   H4028     1.0  0.97235  0.34913  0.42285  1.0000
  S   S1020     1.0  0.96401  0.38114  0.57192  1.0000
  H   H4029     1.0  0.91375  0.49177  0.63947  1.0000
  H   H4030     1.0  0.92682  0.36588  0.34369  1.0000
  H   H4031     1.0  0.91952  0.57125  0.37058  1.0000
  H   H4032     1.0  0.98813  0.41268  0.35659  1.0000
  C   C2516     1.0  0.96137  0.48218  0.33556  1.0000
  C   C2517     1.0  0.94780  0.48717  0.33554  1.0000
  S   S1021     1.0  0.98679  0.59552  0.40459  1.0000
  C   C2518     1.0  0.94636  0.46602  0.33195  1.0000
  H   H4033     1.0  0.98572  0.59925  0.34090  1.0000
  H   H4034     1.0  0.98705  0.38135  0.54668  1.0000
  H   H4035     1.0  0.97661  0.59710  0.58063  1.0000
  H   H4036     1.0  0.97859  0.36345  0.35272  1.0000
  H   H4037     1.0  0.90490  0.56762  0.38288  1.0000
  Fe  Fe510     1.0  0.95324  0.63664  0.38955  1.0000
  S   S1022     1.0  0.93663  0.44881  0.58575  1.0000
  H   H4038     1.0  0.97599  0.36823  0.53101  1.0000
  H   H4039     1.0  0.92721  0.50944  0.55610  1.0000
  C   C2519     1.0  0.89976  0.57722  0.35787  1.0000
  H   H4040     1.0  0.92471  0.47355  0.59500  1.0000
  C   C2520     1.0  0.94631  0.56547  0.37728  1.0000
  C   C2521     1.0  0.94705  0.56273  0.36486  1.0000
  C   C2522     1.0  0.94689  0.57324  0.35349  1.0000
  C   C2523     1.0  0.94555  0.58645  0.35464  1.0000
  C   C2524     1.0  0.94520  0.57864  0.37839  1.0000
  H   H4041     1.0  0.94636  0.55739  0.38614  1.0000
  H   H4042     1.0  0.94753  0.57126  0.34385  1.0000
  H   H4043     1.0  0.94518  0.59459  0.34585  1.0000
  C   C2525     1.0  0.94796  0.61122  0.46601  1.0000
  C   C2526     1.0  0.95396  0.60683  0.45400  1.0000
  C   C2527     1.0  0.94663  0.60921  0.44417  1.0000
  C   C2528     1.0  0.93321  0.61590  0.44629  1.0000
  C   C2529     1.0  0.92704  0.61994  0.45850  1.0000
  C   C2530     1.0  0.93445  0.61777  0.46828  1.0000
  S   S1023     1.0  0.97168  0.39273  0.59660  1.0000
  H   H4044     1.0  0.95135  0.60571  0.43498  1.0000
  H   H4045     1.0  0.91659  0.62493  0.46029  1.0000
  H   H4046     1.0  0.92969  0.62100  0.47762  1.0000
  C   C2531     1.0  0.94103  0.40598  0.64205  1.0000
  H   H4047     1.0  0.97694  0.52326  0.63238  1.0000
  C   C2532     1.0  0.93469  0.56546  0.56458  1.0000
  C   C2533     1.0  0.93720  0.57288  0.57223  1.0000
  C   C2534     1.0  0.93860  0.58618  0.56662  1.0000
  C   C2535     1.0  0.93779  0.59213  0.55321  1.0000
  C   C2536     1.0  0.93559  0.58465  0.54542  1.0000
  C   C2537     1.0  0.93390  0.57139  0.55115  1.0000
  H   H4048     1.0  0.93771  0.56850  0.58260  1.0000
  H   H4049     1.0  0.91510  0.38971  0.33730  1.0000
  H   H4050     1.0  0.93487  0.58916  0.53510  1.0000
  H   H4051     1.0  0.93191  0.56575  0.54516  1.0000
  H   H4052     1.0  0.96248  0.34495  0.55279  1.0000
  S   S1024     1.0  0.92436  0.62000  0.43343  1.0000
  S   S1025     1.0  0.96930  0.42839  0.32045  1.0000
  H   H4053     1.0  0.92656  0.64971  0.56073  1.0000
  C   C2538     1.0  0.94356  0.45981  0.59020  1.0000
  C   C2539     1.0  0.93535  0.47145  0.59437  1.0000
  C   C2540     1.0  0.94082  0.48017  0.59804  1.0000
  C   C2541     1.0  0.95458  0.47741  0.59730  1.0000
  C   C2542     1.0  0.96274  0.46582  0.59310  1.0000
  C   C2543     1.0  0.95728  0.45711  0.58950  1.0000
  H   H4054     1.0  0.93439  0.48890  0.60158  1.0000
  C   C2544     1.0  0.90984  0.32852  0.57327  1.0000
  H   H4055     1.0  0.96378  0.44840  0.58596  1.0000
  C   C2545     1.0  0.93642  0.36889  0.33820  1.0000
  H   H4056     1.0  0.95171  0.38724  0.32710  1.0000
  H   H4057     1.0  0.92351  0.40117  0.32397  1.0000
  H   H4058     1.0  0.96697  0.53531  0.64210  1.0000
  H   H4059     1.0  0.94022  0.59192  0.57274  1.0000
  H   H4060     1.0  0.93312  0.63719  0.55079  1.0000
  H   H4061     1.0  0.94442  0.58067  0.38804  1.0000
  S   S1026     1.0  0.94461  0.55234  0.32544  1.0000
  H   H4062     1.0  0.98038  0.42719  0.34566  1.0000
  N   N252      1.0  0.92153  0.32865  0.56183  1.0000
  C   C2546     1.0  0.94851  0.36303  0.54623  1.0000
  C   C2547     1.0  0.94289  0.37640  0.54747  1.0000
  C   C2548     1.0  0.94718  0.38214  0.55556  1.0000
  C   C2549     1.0  0.95701  0.37443  0.56264  1.0000
  C   C2550     1.0  0.96228  0.36096  0.56172  1.0000
  C   C2551     1.0  0.95819  0.35530  0.55347  1.0000
  H   H4063     1.0  0.93531  0.38244  0.54198  1.0000
  H   H4064     1.0  0.97464  0.38580  0.52901  1.0000
  H   H4065     1.0  0.96960  0.35490  0.56748  1.0000
  H   H4066     1.0  0.89512  0.57716  0.34973  1.0000
  H   H4067     1.0  0.94063  0.37105  0.34565  1.0000
  H   H4068     1.0  0.98807  0.34117  0.55760  1.0000
  H   H4069     1.0  0.98447  0.41090  0.34179  1.0000
  C   C2552     1.0  0.91738  0.55820  0.35290  1.0000
  Fe  Fe511     1.0  0.96691  0.60810  0.40106  1.0000
  C   C2553     1.0  0.94464  0.64882  0.44043  1.0000
  H   H4070     1.0  0.88888  0.55842  0.37724  1.0000
  C   C2554     1.0  0.95581  0.51641  0.55770  1.0000
  C   C2555     1.0  0.96735  0.46899  0.33411  1.0000
  H   H4071     1.0  0.96623  0.50588  0.64851  1.0000
  C   C2556     1.0  0.98353  0.36970  0.40692  1.0000
  H   H4072     1.0  0.94767  0.56017  0.64792  1.0000
  H   H4073     1.0  0.96924  0.62805  0.52947  1.0000
  Fe  Fe512     1.0  0.93764  0.53462  0.32453  1.0000
  H   H4074     1.0  0.98332  0.59498  0.55694  1.0000
  C   C2557     1.0  0.97846  0.39413  0.64831  1.0000
  C   C2558     1.0  0.98474  0.57451  0.35630  1.0000
  Fe  Fe513     1.0  0.94810  0.43853  0.31958  1.0000
  S   S1027     1.0  0.94073  0.40841  0.59638  1.0000
  C   C2559     1.0  0.98401  0.61091  0.42238  1.0000
  N   N253      1.0  0.93088  0.48548  0.64838  1.0000
  Fe  Fe514     1.0  0.96265  0.40914  0.32467  1.0000
  H   H4075     1.0  0.97328  0.33279  0.45239  1.0000
  Fe  Fe515     1.0  0.97713  0.41259  0.58802  1.0000
  S   S1028     1.0  0.93891  0.60912  0.54692  1.0000
  H   H4076     1.0  0.92592  0.33825  0.54090  1.0000
  C   C2560     1.0  0.90803  0.63570  0.56408  1.0000
  C   C2561     1.0  0.98638  0.63662  0.51905  1.0000
  H   H4077     1.0  0.89173  0.58164  0.36568  1.0000
  H   H4078     1.0  0.96993  0.59956  0.35270  1.0000
  H   H4079     1.0  0.94331  0.63841  0.44512  1.0000
  H   H4080     1.0  0.92440  0.43872  0.63840  1.0000
  H   H4081     1.0  0.91848  0.63247  0.53888  1.0000
  Fe  Fe516     1.0  0.95479  0.33726  0.52836  1.0000
  H   H4082     1.0  0.94008  0.54892  0.63483  1.0000
  N   N254      1.0  0.94493  0.50904  0.56214  1.0000
  H   H4083     1.0  0.90682  0.58411  0.35347  1.0000
  H   H4084     1.0  0.98242  0.59351  0.37812  1.0000
  H   H4085     1.0  0.98792  0.59858  0.47330  1.0000
  Fe  Fe517     1.0  0.95852  0.39920  0.58168  1.0000
  H   H4086     1.0  0.92950  0.50480  0.57970  1.0000
  S   S1029     1.0  0.98297  0.64000  0.50308  1.0000
  H   H4087     1.0  0.97394  0.57473  0.35789  1.0000
  H   H4088     1.0  0.94718  0.46967  0.64219  1.0000
  S   S1030     1.0  0.95034  0.39398  0.63256  1.0000
  H   H4089     1.0  0.94307  0.49728  0.33680  1.0000
  H   H4090     1.0  0.98021  0.37662  0.41395  1.0000
  H   H4091     1.0  0.94270  0.48872  0.56564  1.0000
  H   H4092     1.0  0.92489  0.50313  0.63370  1.0000
  H   H4093     1.0  0.91337  0.55790  0.34441  1.0000
  S   S1031     1.0  0.94242  0.60604  0.36810  1.0000
  S   S1032     1.0  0.96075  0.52620  0.58626  1.0000
  C   C2562     1.0  0.93764  0.51043  0.57588  1.0000
  H   H4094     1.0  0.93298  0.52112  0.57628  1.0000
  H   H4095     1.0  0.93116  0.52558  0.55288  1.0000
  C   C2563     1.0  0.93560  0.51472  0.55298  1.0000
  H   H4096     1.0  0.95775  0.49013  0.56889  1.0000
  H   H4097     1.0  0.94074  0.51389  0.54248  1.0000
  H   H4098     1.0  0.95186  0.52723  0.55805  1.0000
  Fe  Fe518     1.0  0.94593  0.61243  0.38533  1.0000
  H   H4099     1.0  0.96135  0.51589  0.54723  1.0000
  H   H4100     1.0  0.90565  0.33867  0.57559  1.0000
  N   N255      1.0  0.90673  0.56356  0.36359  1.0000
  S   S1033     1.0  0.98158  0.54174  0.60025  1.0000
  H   H4101     1.0  0.98453  0.33032  0.54153  1.0000
  C   C2564     1.0  0.97711  0.35616  0.39602  1.0000
  H   H4102     1.0  0.97394  0.60941  0.42613  1.0000
  Fe  Fe519     1.0  0.96376  0.63414  0.50552  1.0000
  C   C2565     1.0  0.96249  0.37720  0.39988  1.0000
  H   H4103     1.0  0.98037  0.62434  0.48387  1.0000
  S   S1034     1.0  0.96169  0.32151  0.38427  1.0000
  C   C2566     1.0  0.98017  0.62873  0.54327  1.0000
  C   C2567     1.0  0.97474  0.41622  0.63391  1.0000
  C   C2568     1.0  0.93530  0.41891  0.63576  1.0000
  H   H4104     1.0  0.93515  0.32616  0.57439  1.0000
  H   H4105     1.0  0.90928  0.33553  0.54716  1.0000
  S   S1035     1.0  0.94101  0.41919  0.32545  1.0000
  H   H4106     1.0  0.96904  0.58768  0.37611  1.0000
  C   C2569     1.0  0.98117  0.37661  0.52566  1.0000
  H   H4107     1.0  0.96435  0.60162  0.45225  1.0000
  H   H4108     1.0  0.92041  0.64549  0.43988  1.0000
  Fe  Fe520     1.0  0.96340  0.53416  0.60242  1.0000
  H   H4109     1.0  0.92507  0.56439  0.34875  1.0000
  Fe  Fe521     1.0  0.93820  0.61879  0.41315  1.0000
  H   H4110     1.0  0.98421  0.34695  0.39993  1.0000
  H   H4111     1.0  0.98345  0.57589  0.38107  1.0000
  C   C2570     1.0  0.91267  0.56417  0.37436  1.0000
  H   H4112     1.0  0.92973  0.48289  0.33424  1.0000
  C   C2571     1.0  0.91180  0.64242  0.53993  1.0000
  H   H4113     1.0  0.98463  0.38969  0.63960  1.0000
  S   S1036     1.0  0.95771  0.60830  0.47786  1.0000
  C   C2572     1.0  0.94462  0.58922  0.36710  1.0000
  H   H4114     1.0  0.98932  0.57457  0.34549  1.0000
  N   N256      1.0  0.97216  0.36537  0.40536  1.0000
  S   S1037     1.0  0.96269  0.61262  0.51021  1.0000
  Fe  Fe522     1.0  0.94887  0.42738  0.58823  1.0000
  H   H4115     1.0  0.98235  0.36101  0.38597  1.0000
  H   H4116     1.0  0.91506  0.64991  0.53077  1.0000
  C   C2573     1.0  0.98797  0.41754  0.34589  1.0000
  S   S1038     1.0  0.93704  0.45687  0.32802  1.0000
  H   H4117     1.0  0.91397  0.34867  0.55129  1.0000
  H   H4118     1.0  0.94447  0.50656  0.58297  1.0000
  H   H4119     1.0  0.90218  0.54431  0.37370  1.0000
  H   H4120     1.0  0.94303  0.39253  0.55618  1.0000
  H   H4121     1.0  0.89265  0.55380  0.36130  1.0000
  H   H4122     1.0  0.90156  0.64187  0.53996  1.0000
  H   H4123     1.0  0.98936  0.56476  0.36224  1.0000
  H   H4124     1.0  0.91483  0.62566  0.56350  1.0000
  C   C2574     1.0  0.92042  0.49608  0.64263  1.0000
  N   N257      1.0  0.91219  0.64609  0.55223  1.0000
  N   N258      1.0  0.93451  0.38065  0.32695  1.0000
  C   C2575     1.0  0.92592  0.64696  0.55160  1.0000
  H   H4125     1.0  0.95374  0.37420  0.39871  1.0000
  Fe  Fe523     1.0  0.96457  0.32588  0.50303  1.0000
  H   H4126     1.0  0.93314  0.47294  0.63475  1.0000
  H   H4127     1.0  0.92856  0.34335  0.56688  1.0000
  H   H4128     1.0  0.98750  0.58818  0.59197  1.0000
  H   H4129     1.0  0.98179  0.37809  0.51473  1.0000
  H   H4130     1.0  0.98244  0.62321  0.46686  1.0000
  H   H4131     1.0  0.94420  0.48435  0.62911  1.0000
  C   C2576     1.0  0.98784  0.62353  0.47430  1.0000
  C   C2577     1.0  0.93921  0.47778  0.63816  1.0000
  H   H4132     1.0  0.98610  0.43421  0.59772  1.0000
  H   H4133     1.0  0.96419  0.41608  0.63464  1.0000
  H   H4134     1.0  0.98474  0.51347  0.60277  1.0000
  H   H4135     1.0  0.97783  0.57541  0.57509  1.0000
  H   H4136     1.0  0.98887  0.56683  0.58629  1.0000
  N   N259      1.0  0.98668  0.58602  0.36021  1.0000
  C   C2578     1.0  0.98727  0.59334  0.58134  1.0000
  H   H4137     1.0  0.94105  0.33289  0.55692  1.0000
  H   H4138     1.0  0.98134  0.64816  0.41670  1.0000
  C   C2579     1.0  0.98830  0.61936  0.42751  1.0000
  C   C2580     1.0  0.96623  0.32640  0.45726  1.0000
  H   H4139     1.0  0.95141  0.65087  0.44551  1.0000
  C   C2581     1.0  0.96185  0.32382  0.47128  1.0000
  H   H4140     1.0  0.97532  0.42691  0.63194  1.0000
  H   H4141     1.0  0.91256  0.32145  0.58252  1.0000
  H   H4142     1.0  0.96499  0.32285  0.43873  1.0000
  C   C2582     1.0  0.93200  0.33291  0.56521  1.0000
  H   H4143     1.0  0.90172  0.32537  0.57108  1.0000
  Fe  Fe524     1.0  0.84289  0.51281  0.94205  1.0000
  S   S1039     1.0  0.86261  0.51408  0.94435  1.0000
  S   S1040     1.0  0.83425  0.49472  0.95206  1.0000
  Fe  Fe525     1.0  0.83654  0.54170  0.92708  1.0000
  S   S1041     1.0  0.85599  0.54560  0.92776  1.0000
  S   S1042     1.0  0.81877  0.55770  0.92177  1.0000
  Fe  Fe526     1.0  0.86517  0.52522  0.92261  1.0000
  S   S1043     1.0  0.88437  0.51619  0.90923  1.0000
  Fe  Fe527     1.0  0.85196  0.53406  0.94924  1.0000
  H   H4144     1.0  0.82751  0.43388  0.95118  1.0000
  S   S1044     1.0  0.84594  0.52245  0.92010  1.0000
  S   S1045     1.0  0.83203  0.53163  0.94876  1.0000
  C   C2583     1.0  0.79637  0.47928  0.98364  1.0000
  S   S1046     1.0  0.82216  0.44310  0.92323  1.0000
  Fe  Fe528     1.0  0.84558  0.44473  0.88779  1.0000
  S   S1047     1.0  0.82324  0.45217  0.89079  1.0000
  S   S1048     1.0  0.85679  0.44791  0.86601  1.0000
  Fe  Fe529     1.0  0.82524  0.46101  0.90666  1.0000
  S   S1049     1.0  0.81373  0.48175  0.90853  1.0000
  Fe  Fe530     1.0  0.82195  0.43359  0.90703  1.0000
  S   S1050     1.0  0.80652  0.42101  0.91298  1.0000
  S   S1051     1.0  0.84764  0.45526  0.90252  1.0000
  S   S1052     1.0  0.84414  0.42518  0.90279  1.0000
  Fe  Fe531     1.0  0.95382  0.51308  0.83180  1.0000
  S   S1053     1.0  0.95506  0.52143  0.84861  1.0000
  S   S1054     1.0  0.95887  0.49108  0.83225  1.0000
  Fe  Fe532     1.0  0.94830  0.54018  0.81301  1.0000
  S   S1055     1.0  0.94922  0.55071  0.82813  1.0000
  S   S1056     1.0  0.94552  0.55393  0.79307  1.0000
  Fe  Fe533     1.0  0.96717  0.53454  0.83199  1.0000
  S   S1057     1.0  0.97898  0.41684  0.80418  1.0000
  Fe  Fe534     1.0  0.93685  0.53687  0.84324  1.0000
  S   S1058     1.0  0.91763  0.54714  0.85558  1.0000
  S   S1059     1.0  0.96715  0.52498  0.81572  1.0000
  S   S1060     1.0  0.93477  0.52742  0.82771  1.0000
  H   H4145     1.0  0.78829  0.49801  0.91454  1.0000
  Fe  Fe535     1.0  0.84440  0.43635  0.91783  1.0000
  H   H4146     1.0  0.94314  0.50439  0.68426  1.0000
  N   N260      1.0  0.89360  0.42179  0.70181  1.0000
  Fe  Fe536     1.0  0.92954  0.43486  0.82440  1.0000
  S   S1061     1.0  0.91972  0.43195  0.84658  1.0000
  S   S1062     1.0  0.92032  0.44653  0.80686  1.0000
  H   H4147     1.0  0.83199  0.57027  0.96006  1.0000
  H   H4148     1.0  0.83695  0.48069  0.98205  1.0000
  S   S1063     1.0  0.75221  0.44461  0.89325  1.0000
  H   H4149     1.0  0.92321  0.55681  0.82448  1.0000
  H   H4150     1.0  0.76267  0.45077  0.91871  1.0000
  S   S1064     1.0  0.92057  0.44988  0.69686  1.0000
  N   N261      1.0  0.90449  0.56190  0.81873  1.0000
  C   C2584     1.0  0.89862  0.55264  0.83077  1.0000
  H   H4151     1.0  0.91044  0.40102  0.81670  1.0000
  H   H4152     1.0  0.75683  0.46745  0.92154  1.0000
  C   C2585     1.0  0.78551  0.52990  0.94682  1.0000
  H   H4153     1.0  0.80411  0.58884  0.95751  1.0000
  H   H4154     1.0  0.83415  0.41149  0.94524  1.0000
  S   S1065     1.0  0.75440  0.52163  0.93588  1.0000
  S   S1066     1.0  0.77313  0.54264  0.90557  1.0000
  H   H4155     1.0  0.77419  0.46154  0.91442  1.0000
  S   S1067     1.0  0.74415  0.49619  0.92393  1.0000
  H   H4156     1.0  0.78261  0.49195  0.88405  1.0000
  S   S1068     1.0  0.86406  0.45840  0.97177  1.0000
  C   C2586     1.0  0.98493  0.42317  0.69949  1.0000
  H   H4157     1.0  0.74467  0.41298  0.87608  1.0000
  H   H4158     1.0  0.78968  0.49645  0.96023  1.0000
  H   H4159     1.0  0.78874  0.44552  0.92777  1.0000
  C   C2587     1.0  0.97165  0.57288  0.78151  1.0000
  H   H4160     1.0  0.97443  0.40643  0.78400  1.0000
  H   H4161     1.0  0.91674  0.40226  0.83015  1.0000
  C   C2588     1.0  0.98119  0.42733  0.76446  1.0000
  C   C2589     1.0  0.77924  0.50462  0.91113  1.0000
  C   C2590     1.0  0.90981  0.55514  0.80730  1.0000
  H   H4162     1.0  0.84161  0.40532  0.95954  1.0000
  S   S1069     1.0  0.93861  0.47850  0.68699  1.0000
  H   H4163     1.0  0.77047  0.50062  0.91765  1.0000
  H   H4164     1.0  0.75888  0.51031  0.89891  1.0000
  H   H4165     1.0  0.87811  0.42738  0.69074  1.0000
  C   C2591     1.0  0.93033  0.53047  0.66618  1.0000
  C   C2592     1.0  0.91546  0.56580  0.82158  1.0000
  H   H4166     1.0  0.75629  0.42737  0.85598  1.0000
  Fe  Fe537     1.0  0.97205  0.54595  0.71140  1.0000
  S   S1070     1.0  0.95092  0.55739  0.71161  1.0000
  C   C2593     1.0  0.76790  0.51415  0.89277  1.0000
  Fe  Fe538     1.0  0.96600  0.51980  0.71153  1.0000
  S   S1071     1.0  0.94440  0.52901  0.71161  1.0000
  S   S1072     1.0  0.97419  0.49784  0.71274  1.0000
  Fe  Fe539     1.0  0.95197  0.54597  0.69618  1.0000
  S   S1073     1.0  0.94711  0.55562  0.67577  1.0000
  Fe  Fe540     1.0  0.94562  0.53915  0.72705  1.0000
  S   S1074     1.0  0.93126  0.53668  0.74728  1.0000
  S   S1075     1.0  0.97359  0.53587  0.69497  1.0000
  S   S1076     1.0  0.96675  0.52864  0.72790  1.0000
  S   S1077     1.0  0.94771  0.44363  0.81665  1.0000
  H   H4167     1.0  0.80315  0.55484  0.97914  1.0000
  C   C2594     1.0  0.94126  0.54735  0.66703  1.0000
  C   C2595     1.0  0.93509  0.53654  0.67359  1.0000
  S   S1078     1.0  0.93965  0.41667  0.81567  1.0000
  H   H4168     1.0  0.86570  0.41731  0.95834  1.0000
  H   H4169     1.0  0.93367  0.53308  0.68438  1.0000
  C   C2596     1.0  0.85721  0.43501  0.94499  1.0000
  C   C2597     1.0  0.94881  0.48362  0.69400  1.0000
  C   C2598     1.0  0.94917  0.49720  0.69087  1.0000
  C   C2599     1.0  0.95730  0.50152  0.69631  1.0000
  C   C2600     1.0  0.96485  0.49231  0.70512  1.0000
  C   C2601     1.0  0.96454  0.47873  0.70824  1.0000
  C   C2602     1.0  0.95658  0.47436  0.70259  1.0000
  N   N262      1.0  0.97735  0.51721  0.65337  1.0000
  H   H4170     1.0  0.95770  0.51199  0.69366  1.0000
  H   H4171     1.0  0.97026  0.47165  0.71519  1.0000
  H   H4172     1.0  0.95640  0.46386  0.70499  1.0000
  H   H4173     1.0  0.75424  0.44045  0.94171  1.0000
  C   C2603     1.0  0.80905  0.41881  0.95823  1.0000
  H   H4174     1.0  0.85238  0.46698  0.94864  1.0000
  C   C2604     1.0  0.89334  0.43585  0.70146  1.0000
  H   H4175     1.0  0.96680  0.50205  0.66596  1.0000
  C   C2605     1.0  0.93394  0.41275  0.66345  1.0000
  H   H4176     1.0  0.97869  0.41457  0.74689  1.0000
  H   H4177     1.0  0.93442  0.49996  0.79691  1.0000
  H   H4178     1.0  0.77514  0.52800  0.97319  1.0000
  H   H4179     1.0  0.93357  0.41033  0.67411  1.0000
  H   H4180     1.0  0.92532  0.52230  0.67131  1.0000
  C   C2606     1.0  0.92452  0.47638  0.66021  1.0000
  C   C2607     1.0  0.74980  0.41564  0.97257  1.0000
  N   N263      1.0  0.81236  0.56760  0.96146  1.0000
  H   H4181     1.0  0.78542  0.53899  0.95010  1.0000
  H   H4182     1.0  0.97711  0.51594  0.67401  1.0000
  H   H4183     1.0  0.77599  0.53168  0.94360  1.0000
  H   H4184     1.0  0.90172  0.41202  0.75620  1.0000
  C   C2608     1.0  0.89302  0.41036  0.84600  1.0000
  H   H4185     1.0  0.79488  0.57929  0.97212  1.0000
  H   H4186     1.0  0.77895  0.46851  0.93332  1.0000
  H   H4187     1.0  0.81095  0.42328  0.94725  1.0000
  C   C2609     1.0  0.76135  0.55520  0.97637  1.0000
  C   C2610     1.0  0.75629  0.44868  0.94488  1.0000
  H   H4188     1.0  0.93212  0.46839  0.66489  1.0000
  H   H4189     1.0  0.90618  0.54337  0.83364  1.0000
  C   C2611     1.0  0.91023  0.41498  0.77094  1.0000
  H   H4190     1.0  0.76622  0.52014  0.96669  1.0000
  S   S1079     1.0  0.98648  0.54093  0.82896  1.0000
  H   H4191     1.0  0.74316  0.42512  0.88548  1.0000
  S   S1080     1.0  0.77451  0.55934  0.98000  1.0000
  C   C2612     1.0  0.83212  0.40708  0.95624  1.0000
  H   H4192     1.0  0.88301  0.44214  0.70244  1.0000
  H   H4193     1.0  0.86881  0.42988  0.97326  1.0000
  H   H4194     1.0  0.74707  0.45681  0.94533  1.0000
  N   N264      1.0  0.78020  0.50539  0.89680  1.0000
  C   C2613     1.0  0.94296  0.54777  0.78042  1.0000
  C   C2614     1.0  0.94653  0.55440  0.76697  1.0000
  C   C2615     1.0  0.94353  0.55059  0.75670  1.0000
  C   C2616     1.0  0.93648  0.54045  0.75989  1.0000
  C   C2617     1.0  0.93306  0.53365  0.77334  1.0000
  C   C2618     1.0  0.93652  0.53713  0.78357  1.0000
  H   H4195     1.0  0.95151  0.56262  0.76444  1.0000
  H   H4196     1.0  0.94621  0.55587  0.74637  1.0000
  H   H4197     1.0  0.92770  0.52572  0.77585  1.0000
  H   H4198     1.0  0.93385  0.53184  0.79390  1.0000
  C   C2619     1.0  0.95568  0.48778  0.81831  1.0000
  C   C2620     1.0  0.96203  0.47552  0.81459  1.0000
  C   C2621     1.0  0.95824  0.47198  0.80466  1.0000
  C   C2622     1.0  0.94794  0.48056  0.79865  1.0000
  C   C2623     1.0  0.94227  0.49321  0.80167  1.0000
  C   C2624     1.0  0.94616  0.49682  0.81149  1.0000
  H   H4199     1.0  0.96959  0.46860  0.81964  1.0000
  H   H4200     1.0  0.96311  0.46248  0.80186  1.0000
  H   H4201     1.0  0.94133  0.50635  0.81418  1.0000
  C   C2625     1.0  0.87437  0.44432  0.86117  1.0000
  C   C2626     1.0  0.88235  0.43649  0.87020  1.0000
  C   C2627     1.0  0.89632  0.43306  0.86568  1.0000
  C   C2628     1.0  0.90234  0.43748  0.85215  1.0000
  C   C2629     1.0  0.89440  0.44570  0.84326  1.0000
  C   C2630     1.0  0.88044  0.44898  0.84773  1.0000
  H   H4202     1.0  0.87774  0.43283  0.88058  1.0000
  H   H4203     1.0  0.90242  0.42671  0.87263  1.0000
  H   H4204     1.0  0.89895  0.44942  0.83290  1.0000
  H   H4205     1.0  0.87430  0.45514  0.84074  1.0000
  C   C2631     1.0  0.76745  0.43777  0.89837  1.0000
  C   C2632     1.0  0.77816  0.44420  0.89245  1.0000
  C   C2633     1.0  0.79021  0.43918  0.89686  1.0000
  C   C2634     1.0  0.79171  0.42749  0.90695  1.0000
  C   C2635     1.0  0.78107  0.42094  0.91265  1.0000
  C   C2636     1.0  0.76889  0.42619  0.90856  1.0000
  H   H4206     1.0  0.77708  0.45318  0.88457  1.0000
  H   H4207     1.0  0.79839  0.44423  0.89233  1.0000
  H   H4208     1.0  0.78221  0.41184  0.92039  1.0000
  H   H4209     1.0  0.76067  0.42118  0.91321  1.0000
  C   C2637     1.0  0.97651  0.52352  0.66442  1.0000
  H   H4210     1.0  0.74834  0.41834  0.98205  1.0000
  H   H4211     1.0  0.87382  0.51961  0.96609  1.0000
  C   C2638     1.0  0.89338  0.52504  0.89431  1.0000
  C   C2639     1.0  0.88912  0.53882  0.88942  1.0000
  C   C2640     1.0  0.89664  0.54545  0.87754  1.0000
  C   C2641     1.0  0.90847  0.53839  0.87045  1.0000
  C   C2642     1.0  0.91267  0.52459  0.87529  1.0000
  C   C2643     1.0  0.90515  0.51796  0.88717  1.0000
  H   H4212     1.0  0.88009  0.54439  0.89484  1.0000
  H   H4213     1.0  0.89334  0.55613  0.87389  1.0000
  H   H4214     1.0  0.92177  0.51905  0.86995  1.0000
  H   H4215     1.0  0.90855  0.50732  0.89091  1.0000
  C   C2644     1.0  0.80592  0.55226  0.91882  1.0000
  C   C2645     1.0  0.80888  0.54172  0.91227  1.0000
  C   C2646     1.0  0.79866  0.53855  0.90862  1.0000
  C   C2647     1.0  0.78536  0.54555  0.91195  1.0000
  C   C2648     1.0  0.78229  0.55557  0.91918  1.0000
  C   C2649     1.0  0.79258  0.55906  0.92242  1.0000
  H   H4216     1.0  0.81914  0.53651  0.90935  1.0000
  H   H4217     1.0  0.80114  0.53089  0.90290  1.0000
  H   H4218     1.0  0.77209  0.56115  0.92161  1.0000
  H   H4219     1.0  0.79024  0.56728  0.92742  1.0000
  C   C2650     1.0  0.82624  0.49169  0.94133  1.0000
  C   C2651     1.0  0.82225  0.50195  0.93075  1.0000
  C   C2652     1.0  0.81769  0.49901  0.92100  1.0000
  C   C2653     1.0  0.81737  0.48576  0.92175  1.0000
  C   C2654     1.0  0.82065  0.47567  0.93274  1.0000
  C   C2655     1.0  0.82483  0.47869  0.94268  1.0000
  H   H4220     1.0  0.82279  0.51214  0.92996  1.0000
  H   H4221     1.0  0.81502  0.50687  0.91258  1.0000
  H   H4222     1.0  0.82016  0.46548  0.93353  1.0000
  H   H4223     1.0  0.82763  0.47081  0.95104  1.0000
  H   H4224     1.0  0.89738  0.43649  0.70981  1.0000
  H   H4225     1.0  0.91450  0.56177  0.79809  1.0000
  Fe  Fe541     1.0  0.93954  0.45361  0.79823  1.0000
  H   H4226     1.0  0.92047  0.57246  0.81265  1.0000
  C   C2656     1.0  0.97091  0.41379  0.65791  1.0000
  H   H4227     1.0  0.90407  0.40937  0.77927  1.0000
  H   H4228     1.0  0.89946  0.44048  0.69182  1.0000
  Fe  Fe542     1.0  0.75320  0.53988  0.91913  1.0000
  H   H4229     1.0  0.88237  0.39834  0.83361  1.0000
  C   C2657     1.0  0.98471  0.54708  0.73757  1.0000
  H   H4230     1.0  0.80855  0.51540  0.95303  1.0000
  H   H4231     1.0  0.79380  0.52908  0.93780  1.0000
  N   N265      1.0  0.78723  0.51772  0.95761  1.0000
  C   C2658     1.0  0.85328  0.44902  0.94238  1.0000
  C   C2659     1.0  0.81325  0.55624  0.97322  1.0000
  C   C2660     1.0  0.75262  0.54903  0.96073  1.0000
  C   C2661     1.0  0.91938  0.42071  0.77334  1.0000
  H   H4232     1.0  0.89482  0.42556  0.68058  1.0000
  C   C2662     1.0  0.79183  0.51103  0.88853  1.0000
  H   H4233     1.0  0.79296  0.51164  0.87767  1.0000
  H   H4234     1.0  0.80129  0.50479  0.89140  1.0000
  H   H4235     1.0  0.79080  0.52136  0.88980  1.0000
  H   H4236     1.0  0.76645  0.52453  0.89408  1.0000
  N   N266      1.0  0.94102  0.45541  0.85366  1.0000
  C   C2663     1.0  0.94930  0.46322  0.85601  1.0000
  C   C2664     1.0  0.93431  0.46340  0.84261  1.0000
  C   C2665     1.0  0.93082  0.45212  0.86600  1.0000
  C   C2666     1.0  0.94971  0.44288  0.84999  1.0000
  H   H4237     1.0  0.94337  0.47322  0.85785  1.0000
  H   H4238     1.0  0.95760  0.46508  0.84713  1.0000
  H   H4239     1.0  0.95395  0.45782  0.86474  1.0000
  H   H4240     1.0  0.92787  0.45786  0.84067  1.0000
  H   H4241     1.0  0.92793  0.47310  0.84487  1.0000
  H   H4242     1.0  0.94168  0.46587  0.83308  1.0000
  H   H4243     1.0  0.92440  0.44627  0.86447  1.0000
  H   H4244     1.0  0.92416  0.46138  0.86907  1.0000
  H   H4245     1.0  0.93551  0.44596  0.87452  1.0000
  H   H4246     1.0  0.94389  0.43661  0.84822  1.0000
  H   H4247     1.0  0.95504  0.43666  0.85804  1.0000
  H   H4248     1.0  0.95740  0.44508  0.84062  1.0000
  H   H4249     1.0  0.88861  0.41092  0.69028  1.0000
  S   S1081     1.0  0.94115  0.47491  0.78857  1.0000
  H   H4250     1.0  0.91407  0.41794  0.69123  1.0000
  C   C2667     1.0  0.85993  0.53170  0.97942  1.0000
  C   C2668     1.0  0.76405  0.41149  0.95132  1.0000
  S   S1082     1.0  0.97735  0.41651  0.69103  1.0000
  S   S1083     1.0  0.85035  0.54159  0.96762  1.0000
  C   C2669     1.0  0.77591  0.51907  0.96929  1.0000
  H   H4251     1.0  0.90661  0.39035  0.83310  1.0000
  N   N267      1.0  0.93766  0.49576  0.75019  1.0000
  C   C2670     1.0  0.93494  0.50289  0.73682  1.0000
  C   C2671     1.0  0.92584  0.49973  0.76066  1.0000
  C   C2672     1.0  0.94935  0.49937  0.75197  1.0000
  C   C2673     1.0  0.94049  0.48113  0.75123  1.0000
  H   H4252     1.0  0.94386  0.50070  0.72864  1.0000
  H   H4253     1.0  0.93212  0.51394  0.73602  1.0000
  H   H4254     1.0  0.92655  0.49999  0.73488  1.0000
  H   H4255     1.0  0.92751  0.49469  0.77091  1.0000
  H   H4256     1.0  0.92348  0.51075  0.76006  1.0000
  H   H4257     1.0  0.91684  0.49712  0.75968  1.0000
  H   H4258     1.0  0.95841  0.49673  0.74410  1.0000
  H   H4259     1.0  0.95164  0.49415  0.76200  1.0000
  H   H4260     1.0  0.94753  0.51035  0.75131  1.0000
  H   H4261     1.0  0.94273  0.47542  0.76115  1.0000
  H   H4262     1.0  0.94925  0.47794  0.74328  1.0000
  H   H4263     1.0  0.93182  0.47801  0.75011  1.0000
  N   N268      1.0  0.82110  0.41607  0.96363  1.0000
  S   S1084     1.0  0.75422  0.45018  0.98162  1.0000
  H   H4264     1.0  0.96285  0.57194  0.79006  1.0000
  H   H4265     1.0  0.86319  0.49970  0.97426  1.0000
  H   H4266     1.0  0.95640  0.51737  0.65894  1.0000
  C   C2674     1.0  0.86269  0.42816  0.95623  1.0000
  C   C2675     1.0  0.98151  0.54928  0.78729  1.0000
  C   C2676     1.0  0.94295  0.55178  0.65305  1.0000
  H   H4267     1.0  0.80958  0.55535  0.94988  1.0000
  H   H4268     1.0  0.81519  0.39990  0.97972  1.0000
  H   H4269     1.0  0.87501  0.41603  0.83084  1.0000
  C   C2677     1.0  0.98651  0.56482  0.79689  1.0000
  H   H4270     1.0  0.97903  0.43032  0.84475  1.0000
  C   C2678     1.0  0.76142  0.55528  0.96315  1.0000
  C   C2679     1.0  0.76532  0.45859  0.92194  1.0000
  C   C2680     1.0  0.76223  0.41496  0.96358  1.0000
  S   S1085     1.0  0.77544  0.41890  0.96732  1.0000
  N   N269      1.0  0.86878  0.48290  0.91295  1.0000
  C   C2681     1.0  0.87352  0.49215  0.90029  1.0000
  C   C2682     1.0  0.87578  0.46892  0.91220  1.0000
  C   C2683     1.0  0.85425  0.48425  0.91500  1.0000
  C   C2684     1.0  0.87155  0.48632  0.92431  1.0000
  H   H4271     1.0  0.86830  0.50277  0.90052  1.0000
  H   H4272     1.0  0.87176  0.48977  0.89146  1.0000
  H   H4273     1.0  0.88439  0.49171  0.89858  1.0000
  H   H4274     1.0  0.88678  0.46758  0.91054  1.0000
  H   H4275     1.0  0.87251  0.46172  0.92167  1.0000
  H   H4276     1.0  0.87375  0.46591  0.90386  1.0000
  H   H4277     1.0  0.85030  0.47759  0.92455  1.0000
  H   H4278     1.0  0.85173  0.48164  0.90671  1.0000
  H   H4279     1.0  0.84868  0.49470  0.91552  1.0000
  H   H4280     1.0  0.86827  0.47950  0.93405  1.0000
  H   H4281     1.0  0.86627  0.49673  0.92525  1.0000
  H   H4282     1.0  0.88240  0.48577  0.92294  1.0000
  C   C2685     1.0  0.88520  0.41611  0.71464  1.0000
  H   H4283     1.0  0.91162  0.41388  0.70925  1.0000
  H   H4284     1.0  0.88891  0.41636  0.72339  1.0000
  H   H4285     1.0  0.88524  0.40546  0.71531  1.0000
  H   H4286     1.0  0.87465  0.42188  0.71583  1.0000
  C   C2686     1.0  0.86100  0.44930  0.96182  1.0000
  C   C2687     1.0  0.90746  0.41383  0.70075  1.0000
  C   C2688     1.0  0.93935  0.49173  0.65256  1.0000
  C   C2689     1.0  0.88852  0.42138  0.69037  1.0000
  H   H4287     1.0  0.79445  0.56509  0.95786  1.0000
  H   H4288     1.0  0.96807  0.42575  0.82924  1.0000
  H   H4289     1.0  0.97346  0.44333  0.69428  1.0000
  H   H4290     1.0  0.93448  0.43237  0.76421  1.0000
  H   H4291     1.0  0.76130  0.47322  0.94015  1.0000
  H   H4292     1.0  0.90812  0.40317  0.70087  1.0000
  H   H4293     1.0  0.88662  0.50553  0.98330  1.0000
  H   H4294     1.0  0.75421  0.43950  0.86565  1.0000
  H   H4295     1.0  0.96691  0.53100  0.66630  1.0000
  C   C2690     1.0  0.92737  0.42793  0.76244  1.0000
  S   S1086     1.0  0.92041  0.41816  0.79022  1.0000
  H   H4296     1.0  0.77824  0.51466  0.91299  1.0000
  C   C2691     1.0  0.74367  0.54294  0.97152  1.0000
  H   H4297     1.0  0.76823  0.51489  0.88204  1.0000
  C   C2692     1.0  0.78178  0.49178  0.89477  1.0000
  H   H4298     1.0  0.79096  0.48488  0.89773  1.0000
  Fe  Fe543     1.0  0.93150  0.42884  0.79755  1.0000
  H   H4299     1.0  0.81045  0.58230  0.97262  1.0000
  H   H4300     1.0  0.91189  0.57097  0.83013  1.0000
  C   C2693     1.0  0.92834  0.42573  0.65712  1.0000
  C   C2694     1.0  0.82500  0.42883  0.96197  1.0000
  H   H4301     1.0  0.85600  0.48984  0.96815  1.0000
  H   H4302     1.0  0.77308  0.48736  0.90086  1.0000
  C   C2695     1.0  0.77997  0.44254  0.93547  1.0000
  H   H4303     1.0  0.77803  0.50653  0.95017  1.0000
  H   H4304     1.0  0.77369  0.41085  0.94442  1.0000
  H   H4305     1.0  0.83150  0.55977  0.94975  1.0000
  H   H4306     1.0  0.80553  0.40947  0.95972  1.0000
  H   H4307     1.0  0.98342  0.45269  0.70703  1.0000
  H   H4308     1.0  0.97976  0.42904  0.77470  1.0000
  C   C2696     1.0  0.92616  0.42926  0.74916  1.0000
  H   H4309     1.0  0.93231  0.43479  0.74074  1.0000
  Fe  Fe544     1.0  0.93967  0.45637  0.69288  1.0000
  H   H4310     1.0  0.94731  0.48403  0.65704  1.0000
  H   H4311     1.0  0.82973  0.39718  0.95766  1.0000
  C   C2697     1.0  0.91686  0.42353  0.74688  1.0000
  C   C2698     1.0  0.90891  0.41647  0.75784  1.0000
  H   H4312     1.0  0.90022  0.42516  0.81280  1.0000
  C   C2699     1.0  0.80515  0.58009  0.96613  1.0000
  C   C2700     1.0  0.81823  0.40954  0.97807  1.0000
  S   S1087     1.0  0.91447  0.42496  0.73070  1.0000
  S   S1088     1.0  0.94985  0.43704  0.78728  1.0000
  C   C2701     1.0  0.94008  0.40283  0.65595  1.0000
  Fe  Fe545     1.0  0.92897  0.43261  0.71207  1.0000
  H   H4313     1.0  0.78281  0.43919  0.94536  1.0000
  H   H4314     1.0  0.96023  0.41383  0.65915  1.0000
  H   H4315     1.0  0.90185  0.55203  0.80479  1.0000
  C   C2702     1.0  0.88430  0.40842  0.82811  1.0000
  H   H4316     1.0  0.96638  0.40887  0.77051  1.0000
  H   H4317     1.0  0.75316  0.54848  0.95059  1.0000
  Fe  Fe546     1.0  0.95704  0.42657  0.80631  1.0000
  C   C2703     1.0  0.82596  0.56891  0.95372  1.0000
  H   H4318     1.0  0.75480  0.40635  0.93838  1.0000
  Fe  Fe547     1.0  0.93160  0.43715  0.68201  1.0000
  H   H4319     1.0  0.88417  0.41828  0.84910  1.0000
  H   H4320     1.0  0.88904  0.43238  0.82630  1.0000
  H   H4321     1.0  0.77196  0.46126  0.95044  1.0000
  C   C2704     1.0  0.86443  0.43526  0.96471  1.0000
  S   S1089     1.0  0.94712  0.44034  0.70969  1.0000
  H   H4322     1.0  0.88609  0.40891  0.81715  1.0000
  H   H4323     1.0  0.89102  0.40047  0.85210  1.0000
  H   H4324     1.0  0.90163  0.41197  0.84884  1.0000
  H   H4325     1.0  0.81884  0.54667  0.97013  1.0000
  H   H4326     1.0  0.91770  0.54599  0.80953  1.0000
  S   S1090     1.0  0.92079  0.43829  0.66632  1.0000
  N   N270      1.0  0.89579  0.41093  0.83143  1.0000
  H   H4327     1.0  0.88571  0.57147  0.81306  1.0000
  C   C2705     1.0  0.90790  0.40066  0.82770  1.0000
  C   C2706     1.0  0.89799  0.42435  0.82384  1.0000
  C   C2707     1.0  0.79984  0.51605  0.96168  1.0000
  H   H4328     1.0  0.76872  0.55949  0.95489  1.0000
  C   C2708     1.0  0.89414  0.57403  0.81531  1.0000
  S   S1091     1.0  0.95017  0.44501  0.67669  1.0000
  H   H4329     1.0  0.97395  0.40786  0.66745  1.0000
  H   H4330     1.0  0.90656  0.42653  0.82620  1.0000
  S   S1092     1.0  0.93875  0.41923  0.69734  1.0000
  H   H4331     1.0  0.82570  0.57754  0.94491  1.0000
  C   C2709     1.0  0.97881  0.42387  0.82729  1.0000
  H   H4332     1.0  0.89022  0.54952  0.82911  1.0000
  H   H4333     1.0  0.93336  0.49764  0.66027  1.0000
  H   H4334     1.0  0.77826  0.43363  0.93324  1.0000
  H   H4335     1.0  0.80502  0.57305  0.94330  1.0000
  H   H4336     1.0  0.83399  0.42713  0.96607  1.0000
  C   C2710     1.0  0.77015  0.46465  0.94006  1.0000
  S   S1093     1.0  0.85538  0.42573  0.93452  1.0000
  C   C2711     1.0  0.78767  0.50591  0.95263  1.0000
  H   H4337     1.0  0.97441  0.54784  0.73757  1.0000
  H   H4338     1.0  0.98215  0.53912  0.75892  1.0000
  H   H4339     1.0  0.94437  0.39279  0.66087  1.0000
  H   H4340     1.0  0.97302  0.58334  0.77920  1.0000
  H   H4341     1.0  0.88995  0.57936  0.82374  1.0000
  C   C2712     1.0  0.97620  0.40532  0.77348  1.0000
  H   H4342     1.0  0.97924  0.54750  0.77842  1.0000
  H   H4343     1.0  0.89481  0.55733  0.83968  1.0000
  H   H4344     1.0  0.84876  0.45431  0.93390  1.0000
  Fe  Fe548     1.0  0.95627  0.42843  0.69356  1.0000
  C   C2713     1.0  0.85535  0.45615  0.95068  1.0000
  N   N271      1.0  0.76795  0.45361  0.93560  1.0000
  C   C2714     1.0  0.98658  0.44215  0.70685  1.0000
  H   H4345     1.0  0.89831  0.58123  0.80630  1.0000
  H   H4346     1.0  0.97965  0.39440  0.77361  1.0000
  H   H4347     1.0  0.80175  0.50672  0.96949  1.0000
  H   H4348     1.0  0.80064  0.42589  0.96326  1.0000
  H   H4349     1.0  0.82711  0.40733  0.98250  1.0000
  H   H4350     1.0  0.97290  0.54769  0.79582  1.0000
  C   C2715     1.0  0.87087  0.52138  0.97616  1.0000
  H   H4351     1.0  0.97144  0.43139  0.76137  1.0000
  C   C2716     1.0  0.98090  0.43682  0.69971  1.0000
  H   H4352     1.0  0.75801  0.44452  0.95524  1.0000
  C   C2717     1.0  0.80503  0.56518  0.95277  1.0000
  H   H4353     1.0  0.98285  0.52385  0.85610  1.0000
  H   H4354     1.0  0.79963  0.52461  0.96589  1.0000
  H   H4355     1.0  0.83363  0.50522  0.97376  1.0000
  H   H4356     1.0  0.98470  0.52892  0.66208  1.0000
  C   C2718     1.0  0.75338  0.40892  0.94792  1.0000
  C   C2719     1.0  0.98819  0.41114  0.75049  1.0000
  H   H4357     1.0  0.86541  0.48192  0.98087  1.0000
  H   H4358     1.0  0.79565  0.50494  0.94343  1.0000
  H   H4359     1.0  0.96902  0.57138  0.77268  1.0000
  H   H4360     1.0  0.91820  0.48188  0.66813  1.0000
  H   H4361     1.0  0.81684  0.43595  0.96723  1.0000
  C   C2720     1.0  0.93221  0.53483  0.65214  1.0000
  N   N272      1.0  0.98611  0.41292  0.76429  1.0000
  H   H4362     1.0  0.97155  0.42434  0.65677  1.0000
  Fe  Fe549     1.0  0.76848  0.43018  0.98382  1.0000
  C   C2721     1.0  0.96621  0.51030  0.65685  1.0000
  H   H4363     1.0  0.77705  0.51015  0.97769  1.0000
  C   C2722     1.0  0.74931  0.43633  0.85940  1.0000
  H   H4364     1.0  0.81863  0.55781  0.98005  1.0000
  S   S1094     1.0  0.77410  0.47663  0.97781  1.0000
  C   C2723     1.0  0.85816  0.49117  0.97732  1.0000
  H   H4365     1.0  0.84129  0.51475  0.97975  1.0000
  H   H4366     1.0  0.80200  0.47447  0.97541  1.0000
  H   H4367     1.0  0.74823  0.44461  0.85039  1.0000
  N   N273      1.0  0.98374  0.56295  0.78474  1.0000
  H   H4368     1.0  0.98835  0.43336  0.75741  1.0000
  H   H4369     1.0  0.98185  0.38775  0.65751  1.0000
  H   H4370     1.0  0.91816  0.47131  0.65747  1.0000
  C   C2724     1.0  0.98500  0.42634  0.83611  1.0000
  C   C2725     1.0  0.98654  0.41874  0.81611  1.0000
  C   C2726     1.0  0.98904  0.54237  0.74970  1.0000
  H   H4371     1.0  0.80991  0.41603  0.98393  1.0000
  H   H4372     1.0  0.97805  0.56342  0.80574  1.0000
  C   C2727     1.0  0.74102  0.40928  0.95704  1.0000
  C   C2728     1.0  0.83660  0.50593  0.98271  1.0000
  H   H4373     1.0  0.98823  0.57503  0.79542  1.0000
  S   S1095     1.0  0.98892  0.55522  0.71007  1.0000
  C   C2729     1.0  0.74298  0.54376  0.98458  1.0000
  Fe  Fe550     1.0  0.79630  0.94147  0.43794  1.0000
  S   S1096     1.0  0.81033  0.93374  0.42028  1.0000
  S   S1097     1.0  0.77394  0.94843  0.44344  1.0000
  Fe  Fe551     1.0  0.81905  0.94111  0.45016  1.0000
  S   S1098     1.0  0.83509  0.93276  0.43408  1.0000
  S   S1099     1.0  0.82310  0.94891  0.46564  1.0000
  Fe  Fe552     1.0  0.82151  0.91940  0.43575  1.0000
  S   S1100     1.0  0.82751  0.89677  0.43903  1.0000
  S   S1101     1.0  0.80751  0.95671  0.43647  1.0000
  S   S1102     1.0  0.80653  0.92640  0.45341  1.0000
  Fe  Fe553     1.0  0.83665  0.91826  0.54145  1.0000
  S   S1103     1.0  0.84963  0.92834  0.54704  1.0000
  S   S1104     1.0  0.81459  0.92088  0.55134  1.0000
  Fe  Fe554     1.0  0.85724  0.91313  0.51601  1.0000
  S   S1105     1.0  0.87148  0.92332  0.51907  1.0000
  S   S1106     1.0  0.86148  0.90452  0.49779  1.0000
  Fe  Fe555     1.0  0.86670  0.91174  0.54043  1.0000
  S   S1107     1.0  0.88484  0.90331  0.54968  1.0000
  Fe  Fe556     1.0  0.85344  0.93897  0.52539  1.0000
  S   S1108     1.0  0.84988  0.96165  0.51859  1.0000
  S   S1109     1.0  0.85335  0.90054  0.53695  1.0000
  S   S1110     1.0  0.83955  0.92979  0.52020  1.0000
  N   N274      1.0  0.77814  0.90202  0.44928  1.0000
  S   S1111     1.0  0.89035  0.83957  0.44813  1.0000
  S   S1112     1.0  0.88763  0.86937  0.41563  1.0000
  H   H4374     1.0  0.92332  0.85882  0.45890  1.0000
  H   H4375     1.0  0.91315  0.82004  0.57341  1.0000
  Fe  Fe557     1.0  0.95433  0.84307  0.50964  1.0000
  S   S1113     1.0  0.95126  0.85648  0.52353  1.0000
  S   S1114     1.0  0.95320  0.85226  0.48827  1.0000
  Fe  Fe558     1.0  0.96262  0.81749  0.52994  1.0000
  S   S1115     1.0  0.96050  0.82886  0.54564  1.0000
  S   S1116     1.0  0.97121  0.79522  0.53285  1.0000
  Fe  Fe559     1.0  0.94144  0.84088  0.53898  1.0000
  S   S1117     1.0  0.92060  0.84422  0.55203  1.0000
  Fe  Fe560     1.0  0.97055  0.84340  0.52863  1.0000
  S   S1118     1.0  0.94307  0.82835  0.52449  1.0000
  S   S1119     1.0  0.97408  0.83100  0.51360  1.0000
  Fe  Fe561     1.0  0.75949  0.90106  0.53315  1.0000
  S   S1120     1.0  0.76052  0.91971  0.51698  1.0000
  S   S1121     1.0  0.77824  0.88879  0.54015  1.0000
  H   H4376     1.0  0.88334  0.74370  0.47388  1.0000
  H   H4377     1.0  0.80276  0.93249  0.50737  1.0000
  H   H4378     1.0  0.88584  0.96742  0.53580  1.0000
  H   H4379     1.0  0.88276  0.86420  0.45958  1.0000
  S   S1122     1.0  0.95050  0.83423  0.42390  1.0000
  C   C2730     1.0  0.92884  0.67500  0.51668  1.0000
  C   C2731     1.0  0.91768  0.67473  0.51237  1.0000
  C   C2732     1.0  0.87481  0.88491  0.47087  1.0000
  H   H4380     1.0  0.74722  0.86325  0.55309  1.0000
  Fe  Fe562     1.0  0.93245  0.71511  0.41456  1.0000
  H   H4381     1.0  0.87526  0.89426  0.47333  1.0000
  C   C2733     1.0  0.89264  0.76229  0.44250  1.0000
  N   N275      1.0  0.93167  0.65861  0.44157  1.0000
  H   H4382     1.0  0.95709  0.79042  0.42377  1.0000
  H   H4383     1.0  0.79263  0.96549  0.39337  1.0000
  S   S1123     1.0  0.92768  0.71721  0.46146  1.0000
  Fe  Fe563     1.0  0.93797  0.73763  0.53972  1.0000
  C   C2734     1.0  0.91430  0.80891  0.57597  1.0000
  S   S1124     1.0  0.93033  0.75839  0.54408  1.0000
  Fe  Fe564     1.0  0.93013  0.71314  0.53691  1.0000
  H   H4384     1.0  0.94118  0.80162  0.57046  1.0000
  S   S1125     1.0  0.91331  0.70305  0.53957  1.0000
  H   H4385     1.0  0.90467  0.87716  0.49025  1.0000
  H   H4386     1.0  0.89474  0.75436  0.43675  1.0000
  Fe  Fe565     1.0  0.95198  0.72489  0.51595  1.0000
  C   C2735     1.0  0.93639  0.80587  0.56168  1.0000
  S   S1126     1.0  0.93564  0.71775  0.55387  1.0000
  S   S1127     1.0  0.93050  0.73372  0.52375  1.0000
  H   H4387     1.0  0.91038  0.86813  0.51854  1.0000
  H   H4388     1.0  0.75672  0.94337  0.47596  1.0000
  H   H4389     1.0  0.94325  0.80159  0.55314  1.0000
  H   H4390     1.0  0.93829  0.66835  0.51380  1.0000
  Fe  Fe566     1.0  0.93763  0.74237  0.41293  1.0000
  C   C2736     1.0  0.94302  0.81491  0.40026  1.0000
  S   S1128     1.0  0.90542  0.80069  0.44720  1.0000
  H   H4391     1.0  0.91846  0.80492  0.58516  1.0000
  H   H4392     1.0  0.92857  0.84632  0.50597  1.0000
  H   H4393     1.0  0.90010  0.76862  0.43739  1.0000
  C   C2737     1.0  0.79209  0.89496  0.44473  1.0000
  H   H4394     1.0  0.74947  0.85187  0.57629  1.0000
  H   H4395     1.0  0.77675  0.91401  0.42952  1.0000
  S   S1129     1.0  0.92105  0.70249  0.41030  1.0000
  C   C2738     1.0  0.88711  0.88620  0.51956  1.0000
  C   C2739     1.0  0.88304  0.74835  0.46315  1.0000
  H   H4396     1.0  0.90877  0.73948  0.45202  1.0000
  H   H4397     1.0  0.92350  0.80444  0.54397  1.0000
  C   C2740     1.0  0.89953  0.89927  0.50025  1.0000
  C   C2741     1.0  0.94795  0.66974  0.38873  1.0000
  C   C2742     1.0  0.95210  0.68159  0.38707  1.0000
  C   C2743     1.0  0.94388  0.69173  0.39365  1.0000
  C   C2744     1.0  0.93120  0.69031  0.40137  1.0000
  H   H4398     1.0  0.82147  0.98593  0.45705  1.0000
  H   H4399     1.0  0.79788  0.90172  0.43663  1.0000
  H   H4400     1.0  0.94855  0.69324  0.49810  1.0000
  H   H4401     1.0  0.94725  0.70074  0.39256  1.0000
  C   C2745     1.0  0.77144  0.90703  0.43783  1.0000
  H   H4402     1.0  0.79255  0.88620  0.44071  1.0000
  C   C2746     1.0  0.89620  0.87811  0.49911  1.0000
  H   H4403     1.0  0.88791  0.89267  0.52577  1.0000
  H   H4404     1.0  0.77107  0.89867  0.43367  1.0000
  H   H4405     1.0  0.76097  0.91265  0.44085  1.0000
  H   H4406     1.0  0.76031  0.89774  0.46359  1.0000
  H   H4407     1.0  0.90412  0.80685  0.57853  1.0000
  H   H4408     1.0  0.89500  0.86781  0.50466  1.0000
  H   H4409     1.0  0.90788  0.84466  0.50098  1.0000
  H   H4410     1.0  0.77549  0.88897  0.46892  1.0000
  H   H4411     1.0  0.91296  0.88389  0.51906  1.0000
  C   C2747     1.0  0.91570  0.84824  0.49290  1.0000
  C   C2748     1.0  0.81379  0.97251  0.52269  1.0000
  S   S1130     1.0  0.98835  0.85264  0.52422  1.0000
  C   C2749     1.0  0.91546  0.69262  0.52849  1.0000
  H   H4412     1.0  0.74685  0.98063  0.46625  1.0000
  H   H4413     1.0  0.92254  0.77446  0.44902  1.0000
  C   C2750     1.0  0.81998  0.95656  0.54233  1.0000
  C   C2751     1.0  0.92509  0.65798  0.45591  1.0000
  H   H4414     1.0  0.88182  0.87286  0.44281  1.0000
  H   H4415     1.0  0.90718  0.80641  0.41849  1.0000
  H   H4416     1.0  0.88464  0.74002  0.45803  1.0000
  H   H4417     1.0  0.79752  0.89121  0.45306  1.0000
  C   C2752     1.0  0.74575  0.86186  0.57900  1.0000
  H   H4418     1.0  0.94173  0.82360  0.40477  1.0000
  H   H4419     1.0  0.93110  0.78323  0.56024  1.0000
  C   C2753     1.0  0.83944  0.97676  0.43357  1.0000
  H   H4420     1.0  0.88653  0.87609  0.52613  1.0000
  N   N276      1.0  0.89330  0.75643  0.45673  1.0000
  S   S1131     1.0  0.93278  0.76474  0.40425  1.0000
  C   C2754     1.0  0.95663  0.81713  0.45784  1.0000
  H   H4421     1.0  0.75464  0.86607  0.57755  1.0000
  C   C2755     1.0  0.80112  0.95554  0.53471  1.0000
  C   C2756     1.0  0.92577  0.77492  0.41609  1.0000
  C   C2757     1.0  0.91095  0.87846  0.51252  1.0000
  H   H4422     1.0  0.96533  0.81572  0.44927  1.0000
  H   H4423     1.0  0.93920  0.67302  0.42443  1.0000
  H   H4424     1.0  0.74380  0.92100  0.46124  1.0000
  H   H4425     1.0  0.93577  0.81689  0.55894  1.0000
  C   C2758     1.0  0.96042  0.78476  0.53437  1.0000
  C   C2759     1.0  0.94799  0.79011  0.53092  1.0000
  C   C2760     1.0  0.93901  0.78181  0.53341  1.0000
  C   C2761     1.0  0.94248  0.76809  0.53916  1.0000
  C   C2762     1.0  0.95517  0.76260  0.54198  1.0000
  C   C2763     1.0  0.96411  0.77094  0.53961  1.0000
  H   H4426     1.0  0.94521  0.80064  0.52649  1.0000
  H   H4427     1.0  0.92926  0.78601  0.53103  1.0000
  H   H4428     1.0  0.95790  0.75203  0.54649  1.0000
  H   H4429     1.0  0.97376  0.76670  0.54221  1.0000
  C   C2764     1.0  0.92679  0.67873  0.40252  1.0000
  H   H4430     1.0  0.93129  0.66039  0.46139  1.0000
  H   H4431     1.0  0.92843  0.78350  0.57756  1.0000
  C   C2765     1.0  0.91879  0.78816  0.41213  1.0000
  H   H4432     1.0  0.87281  0.75459  0.46282  1.0000
  N   N277      1.0  0.96075  0.81794  0.46970  1.0000
  H   H4433     1.0  0.91974  0.87754  0.50395  1.0000
  H   H4434     1.0  0.96754  0.66845  0.42522  1.0000
  H   H4435     1.0  0.90122  0.90513  0.50659  1.0000
  C   C2766     1.0  0.77088  0.89270  0.46001  1.0000
  C   C2767     1.0  0.87014  0.96454  0.52847  1.0000
  C   C2768     1.0  0.93607  0.85706  0.47200  1.0000
  C   C2769     1.0  0.93774  0.85316  0.48522  1.0000
  C   C2770     1.0  0.92744  0.84907  0.49572  1.0000
  C   C2771     1.0  0.92429  0.78814  0.56840  1.0000
  C   C2772     1.0  0.85952  0.97081  0.52202  1.0000
  H   H4436     1.0  0.94395  0.86044  0.46388  1.0000
  H   H4437     1.0  0.77074  0.88386  0.45646  1.0000
  H   H4438     1.0  0.91765  0.79196  0.40184  1.0000
  Fe  Fe567     1.0  0.90547  0.84426  0.45605  1.0000
  Fe  Fe568     1.0  0.89943  0.85199  0.42860  1.0000
  H   H4439     1.0  0.87264  0.95370  0.53158  1.0000
  C   C2773     1.0  0.89463  0.88689  0.54961  1.0000
  C   C2774     1.0  0.90860  0.88479  0.54693  1.0000
  C   C2775     1.0  0.91668  0.87180  0.54712  1.0000
  C   C2776     1.0  0.91080  0.86076  0.55044  1.0000
  C   C2777     1.0  0.89682  0.86285  0.55310  1.0000
  C   C2778     1.0  0.88876  0.87589  0.55252  1.0000
  H   H4440     1.0  0.91319  0.89325  0.54481  1.0000
  H   H4441     1.0  0.92742  0.87029  0.54524  1.0000
  H   H4442     1.0  0.89220  0.85434  0.55578  1.0000
  H   H4443     1.0  0.87799  0.87740  0.55478  1.0000
  C   C2779     1.0  0.80465  0.91187  0.54813  1.0000
  C   C2780     1.0  0.81006  0.89913  0.54523  1.0000
  C   C2781     1.0  0.80178  0.89196  0.54325  1.0000
  C   C2782     1.0  0.78817  0.89769  0.54357  1.0000
  C   C2783     1.0  0.78280  0.91050  0.54629  1.0000
  C   C2784     1.0  0.79097  0.91746  0.54880  1.0000
  H   H4444     1.0  0.82054  0.89466  0.54490  1.0000
  H   H4445     1.0  0.80598  0.88200  0.54130  1.0000
  H   H4446     1.0  0.77231  0.91497  0.54668  1.0000
  H   H4447     1.0  0.78668  0.92725  0.55115  1.0000
  C   C2785     1.0  0.84423  0.88929  0.43243  1.0000
  C   C2786     1.0  0.85279  0.89686  0.42278  1.0000
  C   C2787     1.0  0.86596  0.89057  0.41748  1.0000
  C   C2788     1.0  0.87079  0.87677  0.42202  1.0000
  C   C2789     1.0  0.86227  0.86923  0.43176  1.0000
  C   C2790     1.0  0.84901  0.87546  0.43686  1.0000
  H   H4448     1.0  0.84919  0.90750  0.41920  1.0000
  H   H4449     1.0  0.87247  0.89646  0.40991  1.0000
  H   H4450     1.0  0.86584  0.85856  0.43523  1.0000
  H   H4451     1.0  0.84244  0.86952  0.44425  1.0000
  C   C2791     1.0  0.76334  0.94523  0.43529  1.0000
  C   C2792     1.0  0.75011  0.94524  0.44213  1.0000
  H   H4452     1.0  0.96092  0.67868  0.51529  1.0000
  H   H4453     1.0  0.97792  0.70442  0.52366  1.0000
  C   C2793     1.0  0.75846  0.94104  0.41601  1.0000
  C   C2794     1.0  0.76761  0.94298  0.42223  1.0000
  H   H4454     1.0  0.91525  0.66524  0.45710  1.0000
  S   S1132     1.0  0.74848  0.89257  0.52339  1.0000
  H   H4455     1.0  0.76168  0.93953  0.40583  1.0000
  H   H4456     1.0  0.77784  0.94298  0.41686  1.0000
  C   C2795     1.0  0.83592  0.93714  0.47231  1.0000
  C   C2796     1.0  0.84200  0.94050  0.48057  1.0000
  C   C2797     1.0  0.85096  0.93057  0.48742  1.0000
  C   C2798     1.0  0.85342  0.91724  0.48640  1.0000
  C   C2799     1.0  0.84790  0.91401  0.47755  1.0000
  C   C2800     1.0  0.83925  0.92402  0.47037  1.0000
  H   H4457     1.0  0.83956  0.95070  0.48192  1.0000
  H   H4458     1.0  0.85563  0.93321  0.49382  1.0000
  H   H4459     1.0  0.84951  0.90371  0.47693  1.0000
  H   H4460     1.0  0.83456  0.92142  0.46395  1.0000
  H   H4461     1.0  0.84148  0.97210  0.44346  1.0000
  C   C2801     1.0  0.90663  0.74765  0.45746  1.0000
  C   C2802     1.0  0.89091  0.76729  0.46384  1.0000
  H   H4462     1.0  0.88265  0.76881  0.44154  1.0000
  H   H4463     1.0  0.90748  0.74276  0.46802  1.0000
  H   H4464     1.0  0.91472  0.75326  0.45291  1.0000
  H   H4465     1.0  0.89149  0.76321  0.47457  1.0000
  H   H4466     1.0  0.88094  0.77413  0.46351  1.0000
  H   H4467     1.0  0.89845  0.77362  0.45922  1.0000
  N   N278      1.0  0.96895  0.68230  0.49396  1.0000
  C   C2803     1.0  0.95568  0.68769  0.49056  1.0000
  C   C2804     1.0  0.90435  0.69228  0.52420  1.0000
  C   C2805     1.0  0.97460  0.69351  0.49393  1.0000
  C   C2806     1.0  0.97806  0.86719  0.49053  1.0000
  H   H4468     1.0  0.98265  0.73830  0.49900  1.0000
  H   H4469     1.0  0.95137  0.82141  0.48958  1.0000
  H   H4470     1.0  0.96174  0.68288  0.38078  1.0000
  H   H4471     1.0  0.95628  0.69480  0.48057  1.0000
  C   C2807     1.0  0.90549  0.68351  0.51603  1.0000
  H   H4472     1.0  0.97028  0.68475  0.41601  1.0000
  H   H4473     1.0  0.98498  0.84302  0.48447  1.0000
  C   C2808     1.0  0.97856  0.85248  0.43564  1.0000
  H   H4474     1.0  0.97882  0.82758  0.42117  1.0000
  H   H4475     1.0  0.78326  0.94603  0.51881  1.0000
  H   H4476     1.0  0.78271  0.91011  0.46348  1.0000
  H   H4477     1.0  0.97620  0.82842  0.45780  1.0000
  H   H4478     1.0  0.87745  0.89056  0.51642  1.0000
  C   C2809     1.0  0.82136  0.90995  0.50459  1.0000
  C   C2810     1.0  0.91429  0.85157  0.47961  1.0000
  H   H4479     1.0  0.90794  0.89916  0.49127  1.0000
  C   C2811     1.0  0.92441  0.85610  0.46917  1.0000
  C   C2812     1.0  0.96478  0.85811  0.43800  1.0000
  S   S1133     1.0  0.94534  0.70430  0.42931  1.0000
  H   H4480     1.0  0.91447  0.78544  0.57034  1.0000
  Fe  Fe569     1.0  0.82274  0.94785  0.42030  1.0000
  N   N279      1.0  0.89847  0.88550  0.50785  1.0000
  N   N280      1.0  0.92303  0.80286  0.56469  1.0000
  H   H4481     1.0  0.88694  0.88329  0.49532  1.0000
  H   H4482     1.0  0.90709  0.80642  0.55460  1.0000
  C   C2813     1.0  0.98722  0.70485  0.42724  1.0000
  N   N281      1.0  0.80767  0.91325  0.50229  1.0000
  C   C2814     1.0  0.91713  0.80860  0.55273  1.0000
  S   S1134     1.0  0.91371  0.85770  0.43694  1.0000
  H   H4483     1.0  0.91596  0.81971  0.54971  1.0000
  S   S1135     1.0  0.89996  0.84987  0.47607  1.0000
  Fe  Fe570     1.0  0.90687  0.82239  0.44213  1.0000
  H   H4484     1.0  0.82821  0.90249  0.49881  1.0000
  H   H4485     1.0  0.96031  0.83905  0.46288  1.0000
  S   S1136     1.0  0.92152  0.73156  0.42559  1.0000
  C   C2815     1.0  0.91294  0.79637  0.42150  1.0000
  C   C2816     1.0  0.87764  0.97233  0.53082  1.0000
  S   S1137     1.0  0.91474  0.83430  0.42177  1.0000
  H   H4486     1.0  0.89018  0.90488  0.49675  1.0000
  C   C2817     1.0  0.92727  0.77008  0.42936  1.0000
  C   C2818     1.0  0.91404  0.79134  0.43489  1.0000
  C   C2819     1.0  0.92142  0.77828  0.43873  1.0000
  H   H4487     1.0  0.93287  0.75999  0.43242  1.0000
  H   H4488     1.0  0.95153  0.80870  0.46013  1.0000
  H   H4489     1.0  0.96756  0.70744  0.44015  1.0000
  H   H4490     1.0  0.94107  0.82864  0.47751  1.0000
  H   H4491     1.0  0.81946  0.97954  0.52339  1.0000
  H   H4492     1.0  0.92370  0.71592  0.48952  1.0000
  C   C2820     1.0  0.93391  0.67229  0.43514  1.0000
  S   S1138     1.0  0.95896  0.65671  0.38146  1.0000
  S   S1139     1.0  0.94748  0.72667  0.40051  1.0000
  S   S1140     1.0  0.97380  0.69664  0.55232  1.0000
  H   H4493     1.0  0.97569  0.70478  0.46054  1.0000
  C   C2821     1.0  0.83423  0.97477  0.41346  1.0000
  H   H4494     1.0  0.78555  0.97036  0.42201  1.0000
  H   H4495     1.0  0.97434  0.79951  0.40506  1.0000
  C   C2822     1.0  0.94942  0.79893  0.41976  1.0000
  H   H4496     1.0  0.93193  0.65928  0.39756  1.0000
  H   H4497     1.0  0.91691  0.67769  0.40835  1.0000
  H   H4498     1.0  0.75821  0.96593  0.46127  1.0000
  C   C2823     1.0  0.93527  0.66832  0.39644  1.0000
  C   C2824     1.0  0.98354  0.84137  0.42968  1.0000
  C   C2825     1.0  0.94955  0.72411  0.46401  1.0000
  Fe  Fe571     1.0  0.95672  0.71013  0.54334  1.0000
  C   C2826     1.0  0.97816  0.70556  0.43955  1.0000
  H   H4499     1.0  0.96089  0.86673  0.44257  1.0000
  S   S1141     1.0  0.83023  0.96493  0.40479  1.0000
  N   N282      1.0  0.74587  0.96225  0.48119  1.0000
  H   H4500     1.0  0.78859  0.92571  0.50902  1.0000
  H   H4501     1.0  0.85947  0.89670  0.45250  1.0000
  H   H4502     1.0  0.98563  0.66048  0.55993  1.0000
  S   S1142     1.0  0.95100  0.70399  0.52761  1.0000
  H   H4503     1.0  0.82565  0.91905  0.50151  1.0000
  C   C2827     1.0  0.87464  0.98639  0.52665  1.0000
  S   S1143     1.0  0.95954  0.73038  0.53076  1.0000
  S   S1144     1.0  0.92109  0.82599  0.45202  1.0000
  C   C2828     1.0  0.87014  0.89745  0.44925  1.0000
  H   H4504     1.0  0.98805  0.80483  0.54227  1.0000
  C   C2829     1.0  0.75616  0.96328  0.48746  1.0000
  C   C2830     1.0  0.80785  0.91921  0.48793  1.0000
  H   H4505     1.0  0.88144  0.87635  0.47633  1.0000
  H   H4506     1.0  0.86683  0.87264  0.45581  1.0000
  C   C2831     1.0  0.74801  0.96942  0.52156  1.0000
  C   C2832     1.0  0.93300  0.71902  0.48440  1.0000
  H   H4507     1.0  0.92430  0.67993  0.43530  1.0000
  H   H4508     1.0  0.79773  0.92145  0.48581  1.0000
  H   H4509     1.0  0.82151  0.90566  0.51540  1.0000
  H   H4510     1.0  0.79184  0.90315  0.50532  1.0000
  H   H4511     1.0  0.83666  0.95871  0.43077  1.0000
  C   C2833     1.0  0.95717  0.72680  0.47132  1.0000
  C   C2834     1.0  0.80239  0.90092  0.50630  1.0000
  H   H4512     1.0  0.81475  0.91240  0.48143  1.0000
  H   H4513     1.0  0.95323  0.72475  0.45341  1.0000
  H   H4514     1.0  0.81120  0.92885  0.48473  1.0000
  H   H4515     1.0  0.75497  0.95752  0.49807  1.0000
  C   C2835     1.0  0.79905  0.92304  0.51031  1.0000
  C   C2836     1.0  0.96622  0.80785  0.40162  1.0000
  Fe  Fe572     1.0  0.95952  0.71713  0.41637  1.0000
  C   C2837     1.0  0.97483  0.83605  0.42594  1.0000
  H   H4516     1.0  0.90310  0.66244  0.56237  1.0000
  H   H4517     1.0  0.80524  0.98072  0.54598  1.0000
  H   H4518     1.0  0.89481  0.69885  0.52718  1.0000
  H   H4519     1.0  0.79882  0.91898  0.52118  1.0000
  C   C2838     1.0  0.95270  0.72559  0.48518  1.0000
  H   H4520     1.0  0.79734  0.94921  0.54461  1.0000
  H   H4521     1.0  0.96951  0.81151  0.39059  1.0000
  S   S1145     1.0  0.98935  0.85911  0.44061  1.0000
  H   H4522     1.0  0.80843  0.89353  0.50008  1.0000
  C   C2839     1.0  0.98691  0.70428  0.52645  1.0000
  H   H4523     1.0  0.86446  0.88330  0.47501  1.0000
  C   C2840     1.0  0.94069  0.72156  0.49175  1.0000
  H   H4524     1.0  0.80750  0.94859  0.52813  1.0000
  H   H4525     1.0  0.80252  0.89588  0.51694  1.0000
  H   H4526     1.0  0.87304  0.89829  0.43816  1.0000
  H   H4527     1.0  0.75190  0.87774  0.55438  1.0000
  S   S1146     1.0  0.95105  0.73380  0.42749  1.0000
  H   H4528     1.0  0.98475  0.68989  0.49610  1.0000
  N   N283      1.0  0.87881  0.88569  0.45624  1.0000
  H   H4529     1.0  0.93732  0.72024  0.50251  1.0000
  C   C2841     1.0  0.77343  0.95245  0.51932  1.0000
  C   C2842     1.0  0.93740  0.72038  0.47050  1.0000
  H   H4530     1.0  0.89624  0.88755  0.44029  1.0000
  H   H4531     1.0  0.89429  0.89617  0.45329  1.0000
  H   H4532     1.0  0.97741  0.66884  0.51026  1.0000
  C   C2843     1.0  0.92776  0.68400  0.52465  1.0000
  H   H4533     1.0  0.89967  0.87814  0.45632  1.0000
  H   H4534     1.0  0.74676  0.94687  0.45226  1.0000
  Fe  Fe573     1.0  0.93576  0.72163  0.43920  1.0000
  C   C2844     1.0  0.78101  0.97792  0.41400  1.0000
  H   H4535     1.0  0.87073  0.90700  0.45121  1.0000
  C   C2845     1.0  0.76212  0.94727  0.52637  1.0000
  C   C2846     1.0  0.89288  0.88697  0.45134  1.0000
  N   N284      1.0  0.95346  0.80350  0.40502  1.0000
  C   C2847     1.0  0.95600  0.85257  0.43456  1.0000
  Fe  Fe574     1.0  0.92814  0.83891  0.43208  1.0000
  C   C2848     1.0  0.87746  0.87334  0.45350  1.0000
  C   C2849     1.0  0.83667  0.96910  0.42634  1.0000
  H   H4536     1.0  0.98583  0.76072  0.47303  1.0000
  H   H4537     1.0  0.81653  0.95032  0.55241  1.0000
  H   H4538     1.0  0.82684  0.94957  0.53607  1.0000
  H   H4539     1.0  0.94953  0.82653  0.45426  1.0000
  N   N285      1.0  0.98441  0.66826  0.40848  1.0000
  H   H4540     1.0  0.76325  0.93679  0.53134  1.0000
  S   S1147     1.0  0.98141  0.70745  0.41261  1.0000
  C   C2850     1.0  0.79980  0.97379  0.54471  1.0000
  H   H4541     1.0  0.82602  0.96303  0.54340  1.0000
  H   H4542     1.0  0.95845  0.79536  0.38737  1.0000
  H   H4543     1.0  0.93316  0.81209  0.40300  1.0000
  H   H4544     1.0  0.93992  0.79544  0.42263  1.0000
  H   H4545     1.0  0.97816  0.74686  0.47584  1.0000
  H   H4546     1.0  0.97767  0.67083  0.57945  1.0000
  H   H4547     1.0  0.94568  0.78902  0.40058  1.0000
  H   H4548     1.0  0.97900  0.85528  0.47073  1.0000
  H   H4549     1.0  0.94777  0.80718  0.42499  1.0000
  C   C2851     1.0  0.74938  0.95569  0.52708  1.0000
  H   H4550     1.0  0.80405  0.96228  0.40408  1.0000
  C   C2852     1.0  0.95518  0.79236  0.39849  1.0000
  H   H4551     1.0  0.96270  0.78342  0.40213  1.0000
  C   C2853     1.0  0.96756  0.67327  0.50744  1.0000
  C   C2854     1.0  0.77196  0.96606  0.51316  1.0000
  H   H4552     1.0  0.96660  0.72964  0.46624  1.0000
  H   H4553     1.0  0.79564  0.96816  0.55486  1.0000
  H   H4554     1.0  0.96323  0.66476  0.50783  1.0000
  H   H4555     1.0  0.94539  0.85692  0.43647  1.0000
  H   H4556     1.0  0.78387  0.92046  0.44679  1.0000
  N   N286      1.0  0.80867  0.96460  0.53610  1.0000
  H   H4557     1.0  0.96584  0.79650  0.47663  1.0000
  H   H4558     1.0  0.93630  0.68401  0.52817  1.0000
  H   H4559     1.0  0.97397  0.66622  0.48363  1.0000
  C   C2855     1.0  0.97796  0.67472  0.48391  1.0000
  H   H4560     1.0  0.75555  0.97389  0.48752  1.0000
  H   H4561     1.0  0.91349  0.66303  0.43460  1.0000
  H   H4562     1.0  0.80718  0.97271  0.38766  1.0000
  S   S1148     1.0  0.96239  0.72862  0.49430  1.0000
  H   H4563     1.0  0.94556  0.81847  0.38915  1.0000
  H   H4564     1.0  0.97044  0.83042  0.47486  1.0000
  H   H4565     1.0  0.96527  0.81623  0.40644  1.0000
  C   C2856     1.0  0.77816  0.91347  0.45454  1.0000
  C   C2857     1.0  0.96104  0.84159  0.42839  1.0000
  C   C2858     1.0  0.98787  0.75006  0.47239  1.0000
  C   C2859     1.0  0.75932  0.97460  0.51464  1.0000
  H   H4566     1.0  0.97348  0.80570  0.48307  1.0000
  C   C2860     1.0  0.98786  0.70017  0.53991  1.0000
  H   H4567     1.0  0.96817  0.69932  0.50152  1.0000
  H   H4568     1.0  0.79798  0.97924  0.45142  1.0000
  H   H4569     1.0  0.89258  0.65906  0.55369  1.0000
  H   H4570     1.0  0.95118  0.67957  0.49023  1.0000
  H   H4571     1.0  0.97965  0.87517  0.49443  1.0000
  C   C2861     1.0  0.90304  0.65927  0.55326  1.0000
  H   H4572     1.0  0.82068  0.96589  0.51599  1.0000
  H   H4573     1.0  0.80463  0.98092  0.41439  1.0000
  C   C2862     1.0  0.98746  0.85145  0.47597  1.0000
  C   C2863     1.0  0.74515  0.94108  0.42292  1.0000
  H   H4574     1.0  0.93995  0.67530  0.44032  1.0000
  H   H4575     1.0  0.76642  0.95923  0.48203  1.0000
  H   H4576     1.0  0.79127  0.98017  0.54021  1.0000
  C   C2864     1.0  0.85637  0.98485  0.51812  1.0000
  C   C2865     1.0  0.97079  0.67446  0.41500  1.0000
  C   C2866     1.0  0.97032  0.80542  0.47403  1.0000
  H   H4577     1.0  0.97950  0.80385  0.46595  1.0000
  C   C2867     1.0  0.98277  0.70396  0.45115  1.0000
  H   H4578     1.0  0.90599  0.66727  0.54442  1.0000
  S   S1149     1.0  0.78581  0.97254  0.50356  1.0000
  H   H4579     1.0  0.98833  0.68714  0.39601  1.0000
  H   H4580     1.0  0.76785  0.91935  0.45767  1.0000
  S   S1150     1.0  0.91841  0.66318  0.50295  1.0000
  H   H4581     1.0  0.89683  0.68338  0.51274  1.0000
  S   S1151     1.0  0.75287  0.91365  0.48606  1.0000
  N   N287      1.0  0.79132  0.98198  0.40204  1.0000
  H   H4582     1.0  0.96342  0.67539  0.40903  1.0000
  C   C2868     1.0  0.94884  0.81978  0.48076  1.0000
  C   C2869     1.0  0.96723  0.82943  0.46617  1.0000
  H   H4583     1.0  0.94415  0.81093  0.48422  1.0000
  H   H4584     1.0  0.96909  0.87136  0.48607  1.0000
  S   S1152     1.0  0.74081  0.91028  0.54639  1.0000
  H   H4585     1.0  0.97548  0.70072  0.48402  1.0000
  H   H4586     1.0  0.97937  0.68127  0.47364  1.0000
  H   H4587     1.0  0.79238  0.96131  0.53024  1.0000
  C   C2870     1.0  0.98851  0.67687  0.39515  1.0000
  H   H4588     1.0  0.80935  0.97741  0.46909  1.0000
  Fe  Fe575     1.0  0.74812  0.91211  0.50828  1.0000
  H   H4589     1.0  0.97566  0.85902  0.49936  1.0000
  H   H4590     1.0  0.98846  0.83795  0.55202  1.0000
  H   H4591     1.0  0.77404  0.97339  0.41153  1.0000
  H   H4592     1.0  0.74091  0.86021  0.58990  1.0000
  H   H4593     1.0  0.98173  0.67800  0.38847  1.0000
  C   C2871     1.0  0.98452  0.65486  0.40685  1.0000
  C   C2872     1.0  0.74329  0.87293  0.55641  1.0000
  Fe  Fe576     1.0  0.74093  0.92832  0.52951  1.0000
  H   H4594     1.0  0.98407  0.87749  0.46396  1.0000
  H   H4595     1.0  0.80549  0.97862  0.51767  1.0000
  C   C2873     1.0  0.74115  0.94299  0.43606  1.0000
  H   H4596     1.0  0.74553  0.94195  0.49223  1.0000
  N   N288      1.0  0.98995  0.86219  0.48064  1.0000
  H   H4597     1.0  0.75822  0.98513  0.51011  1.0000
  C   C2874     1.0  0.79908  0.97010  0.39651  1.0000
  H   H4598     1.0  0.98803  0.67040  0.48625  1.0000
  H   H4599     1.0  0.98950  0.75273  0.49610  1.0000
  C   C2875     1.0  0.74804  0.96971  0.46703  1.0000
  C   C2876     1.0  0.98801  0.67180  0.57857  1.0000
  H   H4600     1.0  0.98920  0.67130  0.58878  1.0000
  H   H4601     1.0  0.98879  0.68205  0.57249  1.0000
  C   C2877     1.0  0.74684  0.94797  0.48171  1.0000
  H   H4602     1.0  0.74073  0.96873  0.46187  1.0000
  H   H4603     1.0  0.97768  0.65553  0.40033  1.0000
  H   H4604     1.0  0.77494  0.98662  0.41844  1.0000
  C   C2878     1.0  0.81148  0.98753  0.46401  1.0000
  H   H4605     1.0  0.80988  0.98784  0.43907  1.0000
  H   H4606     1.0  0.92805  0.65476  0.42419  1.0000
  C   C2879     1.0  0.92302  0.65537  0.43477  1.0000
  H   H4607     1.0  0.74010  0.88888  0.57321  1.0000
  C   C2880     1.0  0.80041  0.98777  0.40585  1.0000
  H   H4608     1.0  0.92938  0.65473  0.54277  1.0000
