data_image0
_chemical_formula_structural       FeS2FeS2FeSFeS3FeS2FeS2FeSFeS3FeS2FeS2FeSFeS3FeS2FeS2FeSFeS3FeS2FeS2FeSFeS3FeS2FeS2FeSFeS3FeS2FeS2FeSFeS3FeS2FeS2FeSFeS3C6H4C6H4C6H4C6H4C6H4C6H4C6H4C6H4C6H4C6H4C6H4C6H4C6H4C6H4C6H4C6H4NC4H12NC4H12NC4H12NC4H12NC4H12NC4H12NC4H12NC4H12NC4H12NC4H12NC4H12NC4H12NC4H12NC4H12NC4H12NC4H12
_chemical_formula_sum              "Fe32 S64 C160 H256 N16"
_cell_length_a       32.47678305606645
_cell_length_b       32.922636339372154
_cell_length_c       29.218364626574946
_cell_angle_alpha    90.24547149135158
_cell_angle_beta     93.70931316442082
_cell_angle_gamma    119.38249376388279

_space_group_name_H-M_alt    "P 1"
_space_group_IT_number       1

loop_
  _space_group_symop_operation_xyz
  'x, y, z'

loop_
  _atom_site_type_symbol
  _atom_site_label
  _atom_site_symmetry_multiplicity
  _atom_site_fract_x
  _atom_site_fract_y
  _atom_site_fract_z
  _atom_site_occupancy
  Fe  Fe1       1.0  0.7731592754656826  0.045238373149663946  0.43349973718971296  1.0000
  S   S1        1.0  0.7877930183248123  0.9998145531356379  0.4805714047752691  1.0000
  S   S2        1.0  0.8096776448459008  0.06767291548534748  0.3681335242003024  1.0000
  Fe  Fe2       1.0  0.6984418941719132  0.0446134824542781  0.49189692856308737  1.0000
  S   S3        1.0  0.7064272995431543  0.99846427187811  0.5439466885477529  1.0000
  S   S4        1.0  0.6498354971725255  0.07527207037227614  0.4930921720010774  1.0000
  Fe  Fe3       1.0  0.7841685464699921  0.04362246700419425  0.5368781877697935  1.0000
  S   S5        1.0  0.840954810080389  0.0670928681725804  0.5941976975365331  1.0000
  Fe  Fe4       1.0  0.7091456602888123  0.9586181430907376  0.4826913150063821  1.0000
  S   S6        1.0  0.6694147498545056  0.8804169258142024  0.4770319463762588  1.0000
  S   S7        1.0  0.7767323276064153  0.09348540339806037  0.48954615283323205  1.0000
  S   S8        1.0  0.6942129900090197  0.0005445657706917295  0.43094106473316457  1.0000
  Fe  Fe5       1.0  0.08671188792823042  0.3530695135985244  0.6623043810188867  1.0000
  S   S9        1.0  0.043024171606472324  0.30200035479890097  0.6045288202377225  1.0000
  S   S10       1.0  0.12434086872520761  0.33502436750638664  0.7195264298270563  1.0000
  Fe  Fe6       1.0  0.06814107165305122  0.4294601162019013  0.6229845623526886  1.0000
  S   S11       1.0  0.022242517879470507  0.3838114395498402  0.5627098746520287  1.0000
  S   S12       1.0  0.08271884040273043  0.5032947873943698  0.6344819047342186  1.0000
  Fe  Fe7       1.0  0.9919360047723154  0.32802605622431513  0.6141833795197236  1.0000
  S   S13       1.0  0.9134359464947801  0.2821425746600738  0.6162926132367205  1.0000
  Fe  Fe8       1.0  0.07784125319734538  0.36254894293563417  0.5596712292150249  1.0000
  S   S14       1.0  0.1064512381821599  0.3546425105149703  0.49450901316085677  1.0000
  S   S15       1.0  0.03308585698479316  0.375172866249896  0.6751517545777221  1.0000
  S   S16       1.0  0.12635402757467884  0.4124139223242872  0.6164901788465639  1.0000
  Fe  Fe9       1.0  0.03936115823423858  0.7218970740250834  0.47163720244266377  1.0000
  S   S17       1.0  0.07922129104163034  0.7121170567722009  0.4169624694071292  1.0000
  S   S18       1.0  0.9601953285294216  0.6861692292051527  0.45873223749069975  1.0000
  Fe  Fe10      1.0  0.12896395342134326  0.7852640425452163  0.530632750592117  1.0000
  S   S19       1.0  0.17606354544340885  0.7789587797898727  0.48150651633202635  1.0000
  S   S20       1.0  0.1600061072344345  0.8348611889104361  0.592128737677381  1.0000
  Fe  Fe11      1.0  0.129161380855242  0.7889640300352362  0.4280878791629968  1.0000
  S   S21       1.0  0.1591001613658154  0.8443353852648857  0.37590284414133346  1.0000
  Fe  Fe12      1.0  0.12142884344048176  0.7027241879347983  0.4760455025997957  1.0000
  S   S22       1.0  0.13497433753264776  0.6414982376873458  0.470400001533397  1.0000
  S   S23       1.0  0.08522206203330844  0.7993221814661655  0.47770208154332  1.0000
  S   S24       1.0  0.0782748634377191  0.7081371085133144  0.5303156516300774  1.0000
  Fe  Fe13      1.0  0.37847501769477904  0.3112885165241048  0.45647150698356775  1.0000
  S   S25       1.0  0.4072147012724179  0.358118821500639  0.39796810267062754  1.0000
  S   S26       1.0  0.37987406931692247  0.24385172179404405  0.4552007185650824  1.0000
  Fe  Fe14      1.0  0.3440921826681811  0.3721425496322442  0.49881689975443394  1.0000
  S   S27       1.0  0.3691048595546925  0.4240483410826356  0.4432651723958385  1.0000
  S   S28       1.0  0.3042093513473886  0.37319031950054155  0.5580162097704819  1.0000
  Fe  Fe15      1.0  0.33932267299038776  0.3601492865850628  0.39591013256118407  1.0000
  S   S29       1.0  0.289535176418127  0.34074773997003377  0.3324482429299234  1.0000
  Fe  Fe16      1.0  0.4349437533875239  0.41702523704818495  0.45116126738525086  1.0000
  S   S30       1.0  0.511786646485299  0.4729141027513346  0.44846997849990605  1.0000
  S   S31       1.0  0.30888100281175235  0.30931487771141813  0.45114285739737725  1.0000
  S   S32       1.0  0.4117010654212156  0.3696472476832788  0.5101756122795083  1.0000
  Fe  Fe17      1.0  0.46595391906481454  0.06541758383904858  0.6515981901020399  1.0000
  S   S33       1.0  0.4589105531978531  0.10346742634467263  0.5907646930495262  1.0000
  S   S34       1.0  0.5148380027180184  0.03451810905104025  0.6548007462321387  1.0000
  Fe  Fe18      1.0  0.38296569093420596  0.06616383077010964  0.6962069881865824  1.0000
  S   S35       1.0  0.3703064792636796  0.10408186488651762  0.6383785075488309  1.0000
  S   S36       1.0  0.33284017203407296  0.03962459457261128  0.7527976020585456  1.0000
  Fe  Fe19      1.0  0.3809228769398555  0.05609299648757737  0.5928625692042505  1.0000
  S   S37       1.0  0.33251528657967255  0.020504800094972575  0.52982953625805  1.0000
  Fe  Fe20      1.0  0.4495332417528355  0.14759390398478264  0.6431334623432915  1.0000
  S   S38       1.0  0.4806583095634017  0.2248531371764085  0.6381571739951527  1.0000
  S   S39       1.0  0.3881883604712068  0.014532941024095969  0.6500158922091802  1.0000
  S   S40       1.0  0.46205334152474353  0.11322562982357808  0.7045365288607187  1.0000
  Fe  Fe21      1.0  0.038834597785076364  0.073126193020601  0.3226295660788243  1.0000
  S   S41       1.0  0.9900762808013659  0.011974460182608615  0.2754340100961636  1.0000
  S   S42       1.0  0.020136432993244746  0.10457822282657259  0.3809268176292175  1.0000
  Fe  Fe22      1.0  0.1270799872697416  0.08248037349860556  0.2834635184983744  1.0000
  S   S43       1.0  0.08656909335394486  0.020966385154560063  0.23373190805358682  1.0000
  S   S44       1.0  0.20676092309968522  0.12465131611966283  0.2912709252668634  1.0000
  Fe  Fe23      1.0  0.038511899460357046  0.051431423054135283  0.22040065364837477  1.0000
  S   S45       1.0  0.013663067348087754  0.06422216568590755  0.15029039782076145  1.0000
  Fe  Fe24      1.0  0.041927253948443384  0.9864566939822743  0.2925093991792214  1.0000
  S   S46       1.0  0.012675431165225527  0.9115193124092585  0.31214075178529727  1.0000
  S   S47       1.0  0.08220672465955722  0.11533575984307338  0.2665407331493587  1.0000
  S   S48       1.0  0.08732359003786479  0.04505474292415666  0.3434439212646351  1.0000
  Fe  Fe25      1.0  0.05162787979399064  0.09783791386594579  0.8206057299925966  1.0000
  S   S49       1.0  0.11891450896640149  0.13027563770148462  0.8669887743338611  1.0000
  S   S50       1.0  0.010062819894840034  0.13291436582294466  0.7960366020980651  1.0000
  Fe  Fe26      1.0  0.052572365632283846  0.007264674026816742  0.804752986567456  1.0000
  S   S51       1.0  0.12049548075379107  0.032836555794121924  0.8481718923950203  1.0000
  S   S52       1.0  0.02269792555320671  0.9345045079204903  0.7739367132515883  1.0000
  Fe  Fe27      1.0  0.08817639765171711  0.05937079059056676  0.8977914916482709  1.0000
  S   S53       1.0  0.09690664821807637  0.036619278414613744  0.9692734840635758  1.0000
  Fe  Fe28      1.0  0.1449847794500963  0.10039511087126768  0.8139889996403856  1.0000
  S   S54       1.0  0.21488531367580957  0.14262749265162503  0.7831822487030764  1.0000
  S   S55       1.0  0.01828102566473988  0.029437448278694545  0.8559829495130863  1.0000
  S   S56       1.0  0.07981103276401749  0.07266618860792726  0.7656444698753101  1.0000
  Fe  Fe29      1.0  0.7779081865816903  0.7453944531735334  0.5496619316591199  1.0000
  S   S57       1.0  0.726362274621575  0.7483513312934258  0.5953895930593944  1.0000
  S   S58       1.0  0.7960038446678975  0.7842054503010566  0.4844098619507984  1.0000
  Fe  Fe30      1.0  0.8056693919179546  0.6930515121900921  0.6182448797048532  1.0000
  S   S59       1.0  0.7578630389691402  0.6934438037597555  0.6696677810478656  1.0000
  S   S60       1.0  0.84919699805224  0.6587420638093144  0.6349201046430643  1.0000
  Fe  Fe31      1.0  0.7050339960672749  0.6735383079742372  0.6083869073272979  1.0000
  S   S61       1.0  0.6312364952509362  0.6136112723399494  0.6169950301236015  1.0000
  Fe  Fe32      1.0  0.7845718278203812  0.7677122249544711  0.6511662355511875  1.0000
  S   S62       1.0  0.8059474903996409  0.8291684364918283  0.7003425356693465  1.0000
  S   S63       1.0  0.7520289605382945  0.6691204214113947  0.5578437397051259  1.0000
  S   S64       1.0  0.8371496814015601  0.7690068992122089  0.6045658731302251  1.0000
  C   C1        1.0  0.9625538977136837  0.9060139821707491  0.753333195479118  1.0000
  C   C2        1.0  0.9426377140417419  0.861651126248728  0.7316739371845964  1.0000
  C   C3        1.0  0.8946237313013704  0.8378607228853381  0.7154147270640387  1.0000
  C   C4        1.0  0.8661207582743952  0.8581464526843642  0.721083092956955  1.0000
  C   C5        1.0  0.885878473808268  0.9022635199962994  0.7434082751399206  1.0000
  C   C6        1.0  0.9340993111006457  0.92635142453746  0.7591694297095107  1.0000
  H   H1        1.0  0.9643548061991714  0.8455783364460387  0.7273273102004906  1.0000
  H   H2        1.0  0.8795846060714865  0.8035526913204079  0.698996558425809  1.0000
  H   H3        1.0  0.8639489762750638  0.9180083570546449  0.7482235748575493  1.0000
  H   H4        1.0  0.9491619924034984  0.9605918982542786  0.775803624799447  1.0000
  C   C7        1.0  0.035255381755511905  0.05484620227803134  0.0996271788429092  1.0000
  C   C8        1.0  0.02870758162583109  0.0737833601137799  0.05858447153482657  1.0000
  C   C9        1.0  0.04698554890613259  0.06822676340980605  0.01804672001019969  1.0000
  C   C10       1.0  0.07185895233543567  0.0435801424394143  0.01844256498556396  1.0000
  C   C11       1.0  0.0777518128405097  0.024056843943776277  0.05927548613942113  1.0000
  C   C12       1.0  0.05951760311258614  0.029616716432864232  0.099696089524008  1.0000
  H   H5        1.0  0.009759803879679755  0.09317992196090463  0.058268724512927465  1.0000
  H   H6        1.0  0.042173205872425595  0.08332760094433755  0.9867216337105743  1.0000
  H   H7        1.0  0.09664123499149824  0.004601417118107254  0.05970995544210034  1.0000
  H   H8        1.0  0.06390702953409177  0.014061185610722669  0.13081783555446663  1.0000
  C   C13       1.0  0.3026771104952063  0.07048681351484475  0.7634662310555671  1.0000
  C   C14       1.0  0.3121999484858624  0.11094896868098161  0.7403926641557539  1.0000
  C   C15       1.0  0.2856030005857862  0.13327820496342482  0.7472384696923321  1.0000
  C   C16       1.0  0.24940710536144575  0.11537937355480095  0.7773456847958483  1.0000
  C   C17       1.0  0.24102392300555042  0.0759223728078262  0.8017474792675596  1.0000
  C   C18       1.0  0.2675517079356676  0.05350468347972037  0.7947760119224981  1.0000
  H   H9        1.0  0.3404292093016517  0.12546907828354936  0.7176737881586863  1.0000
  H   H10       1.0  0.2931221778025621  0.16437469672702726  0.728981036383111  1.0000
  H   H11       1.0  0.21451097010385398  0.06288240675723222  0.8263229686381827  1.0000
  H   H12       1.0  0.26096570513798206  0.023016869111237792  0.8137496278480854  1.0000
  C   C19       1.0  0.5438740971076189  0.5120167072983212  0.4955934178996824  1.0000
  C   C20       1.0  0.5245415603396288  0.507767582487365  0.5378982372083695  1.0000
  C   C21       1.0  0.5516783145057824  0.5391071763066161  0.5748925584701435  1.0000
  C   C22       1.0  0.5980523665482466  0.5750915320021234  0.5697284662012051  1.0000
  C   C23       1.0  0.6173824771046086  0.5790718214802395  0.5274982844982752  1.0000
  C   C24       1.0  0.5904652339990832  0.547509941427251  0.4906925908825752  1.0000
  H   H13       1.0  0.48860515256514864  0.4806379883540131  0.5420256189433128  1.0000
  H   H14       1.0  0.5363972387853748  0.5358896536038913  0.6074156006077324  1.0000
  H   H15       1.0  0.6528202011857198  0.6067904094836692  0.5228895581933413  1.0000
  H   H16       1.0  0.6055713160460984  0.5511128046639551  0.4580071526260056  1.0000
  C   C25       1.0  0.26827614663301685  0.2815516293709176  0.317724109823428  1.0000
  C   C26       1.0  0.29190471144258323  0.2586155486814548  0.33574845137008225  1.0000
  C   C27       1.0  0.27334738650066387  0.21075701258773402  0.32642434416393407  1.0000
  C   C28       1.0  0.2301026783026358  0.18507804355587415  0.30046666056785587  1.0000
  C   C29       1.0  0.20646053240063317  0.20798075190615928  0.28219811253687155  1.0000
  C   C30       1.0  0.22587486304951412  0.2562589824700735  0.29022766129472705  1.0000
  H   H17       1.0  0.3247831267368621  0.2777188481120538  0.3566970945711181  1.0000
  H   H18       1.0  0.29240938653352533  0.19364630237446526  0.33991250894763386  1.0000
  H   H19       1.0  0.17367409686511828  0.1889057530948165  0.26130971236647704  1.0000
  H   H20       1.0  0.20755187208722645  0.27386886229985347  0.2760285125719694  1.0000
  C   C31       1.0  0.40721013773078774  0.23842037232904187  0.5064036065968925  1.0000
  C   C32       1.0  0.4272651251540954  0.20936809378114662  0.5071371064016263  1.0000
  C   C33       1.0  0.45032426142362536  0.20569520237889977  0.5476665219923658  1.0000
  C   C34       1.0  0.45393224698822016  0.23153398225676997  0.5872896109807828  1.0000
  C   C35       1.0  0.43436677384930006  0.26104220733462813  0.5864730338876588  1.0000
  C   C36       1.0  0.4103807718952004  0.26395481836040635  0.5461162299395768  1.0000
  H   H21       1.0  0.42564699774829423  0.1901614082110682  0.4763674038323788  1.0000
  H   H22       1.0  0.46613770707879  0.18351863997712567  0.5480151469598384  1.0000
  H   H23       1.0  0.43626469479771374  0.2802332379550214  0.6174435136757324  1.0000
  H   H24       1.0  0.3932608216462951  0.28490673048753706  0.5462182834298465  1.0000
  C   C37       1.0  0.8804770167993501  0.6642625776407477  0.5867494005131281  1.0000
  C   C38       1.0  0.9300572151090847  0.6870751465131318  0.5906902283922395  1.0000
  C   C39       1.0  0.955002206651496  0.694527904851571  0.5513159896410813  1.0000
  C   C40       1.0  0.9302232570729821  0.6777792412945316  0.5083630585612425  1.0000
  C   C41       1.0  0.8806716000373936  0.6540874904380274  0.5046289397409044  1.0000
  C   C42       1.0  0.8558199177759014  0.6479429390247391  0.5437052267032252  1.0000
  H   H25       1.0  0.9491511137921919  0.7003553461176734  0.6239381728302691  1.0000
  H   H26       1.0  0.9933096894056831  0.7135765121663102  0.5542578052130375  1.0000
  H   H27       1.0  0.8614671710752451  0.6412212712869202  0.47136850897493165  1.0000
  H   H28       1.0  0.8175230067868225  0.6304048061880332  0.5405463979562634  1.0000
  C   C43       1.0  0.20607504318853978  0.8876837757150887  0.5743848179905402  1.0000
  C   C44       1.0  0.23666230424803425  0.9222612585281089  0.6070952855132936  1.0000
  C   C45       1.0  0.2740034466377833  0.9641311880918959  0.593218242271589  1.0000
  C   C46       1.0  0.2821260651069485  0.9708377008408035  0.5466964556723529  1.0000
  C   C47       1.0  0.250999336287958  0.9367593771707494  0.5138474594061552  1.0000
  C   C48       1.0  0.21272562214901514  0.8954723505265924  0.527672096057556  1.0000
  H   H29       1.0  0.23201293564587783  0.9164052811096786  0.6432033342280182  1.0000
  H   H30       1.0  0.29661660743585055  0.9910062965838021  0.618707380196681  1.0000
  H   H31       1.0  0.25675561121796164  0.9416763780577013  0.4777452609865028  1.0000
  H   H32       1.0  0.18870551913867165  0.8696024586351357  0.5019836778125244  1.0000
  C   C49       1.0  0.11877832573525729  0.8633325149692821  0.3578854524031437  1.0000
  C   C50       1.0  0.13525507244459112  0.9085395328338899  0.3420960327157856  1.0000
  C   C51       1.0  0.10306178898541218  0.9239532099578122  0.328199676919815  1.0000
  C   C52       1.0  0.054269707951517754  0.8937338820079058  0.32906393629782094  1.0000
  C   C53       1.0  0.03793274286840533  0.8483082012506893  0.3439407107013832  1.0000
  C   C54       1.0  0.07003419934894262  0.8333622575502666  0.3589972875302019  1.0000
  H   H33       1.0  0.17292750069300689  0.9316937903181722  0.3409559020680869  1.0000
  H   H34       1.0  0.11592567773101425  0.9589427458934875  0.3164188270166918  1.0000
  H   H35       1.0  0.00035742502584644226  0.8244033405167212  0.3433085622190254  1.0000
  H   H36       1.0  0.05709570427528995  0.7981952301361334  0.37031815417707103  1.0000
  C   C55       1.0  0.09746666054088643  0.5411016910771212  0.5884533102511503  1.0000
  C   C56       1.0  0.10036513348478934  0.5264780867848923  0.544328584185282  1.0000
  C   C57       1.0  0.11254624041477541  0.5577657825691803  0.5084150781752057  1.0000
  C   C58       1.0  0.12114673325334768  0.6034867155479499  0.5163010640578802  1.0000
  C   C59       1.0  0.11780400908416855  0.6178534151777485  0.5603074423937793  1.0000
  C   C60       1.0  0.10616664354807659  0.5867980627497528  0.5962716471797734  1.0000
  H   H37       1.0  0.09314052422483081  0.49112609615074115  0.5379479531726222  1.0000
  H   H38       1.0  0.11467605552174018  0.5464280137939848  0.4742661594958122  1.0000
  H   H39       1.0  0.12503285338456904  0.6531957072972959  0.5668707319172127  1.0000
  H   H40       1.0  0.1041743124716632  0.5983396915446789  0.6304015614014306  1.0000
  C   C61       1.0  0.16037893742479187  0.3568901055161626  0.5108029648927452  1.0000
  C   C62       1.0  0.17070940465054646  0.35075680396173964  0.5565873214643473  1.0000
  C   C63       1.0  0.21508235370988027  0.3560791650910891  0.5708207452104708  1.0000
  C   C64       1.0  0.24884730012192577  0.36617928775322084  0.5390747066391868  1.0000
  C   C65       1.0  0.23816505823251283  0.37097238033339425  0.49286814781150834  1.0000
  C   C66       1.0  0.1940332220822221  0.3668631942611988  0.4788424295435718  1.0000
  H   H41       1.0  0.14464930282118285  0.34207191713964374  0.5813303353650495  1.0000
  H   H42       1.0  0.2233126053304431  0.35251603268145576  0.6065339008885723  1.0000
  H   H43       1.0  0.26432399985238253  0.37900890256675374  0.46822149522593115  1.0000
  H   H44       1.0  0.18642299623644715  0.3724200135186435  0.44355577310190486  1.0000
  C   C67       1.0  0.09372126568197418  0.2780741593811662  0.7394488357316017  1.0000
  C   C68       1.0  0.054336455527405736  0.24284368178276866  0.7138977661729953  1.0000
  C   C69       1.0  0.029632097345644096  0.19791768774172913  0.7308356867464362  1.0000
  C   C70       1.0  0.04463035488643264  0.18776202640770578  0.7731289701779677  1.0000
  C   C71       1.0  0.08504659072687276  0.2225064966755408  0.7980348537544706  1.0000
  C   C72       1.0  0.10933439071918286  0.26768181101445454  0.7813366882965743  1.0000
  H   H45       1.0  0.04257685816212642  0.2502000959482957  0.681251855208382  1.0000
  H   H46       1.0  0.9987628988246535  0.17096947823372394  0.7111356490751357  1.0000
  H   H47       1.0  0.09656319016170527  0.2149981156650965  0.8309389937956883  1.0000
  H   H48       1.0  0.13967359896966575  0.2948839298399148  0.8013942246144918  1.0000
  C   C73       1.0  0.6134097796899387  0.06393653135778907  0.5389385398405087  1.0000
  C   C74       1.0  0.6072895344326531  0.029976146125936243  0.5705781399445417  1.0000
  C   C75       1.0  0.5773965947959236  0.02155491436034107  0.6063441163428892  1.0000
  C   C76       1.0  0.5535749611781396  0.04706425075111691  0.6107133692610142  1.0000
  C   C77       1.0  0.5600848704752629  0.08121212266733036  0.5792709460658191  1.0000
  C   C78       1.0  0.589545492846569  0.08933230194670405  0.5433369774451196  1.0000
  H   H49       1.0  0.6252975074560626  0.01002856742382474  0.567383413932173  1.0000
  H   H50       1.0  0.5726821810476092  0.9951780683091672  0.6306466616487215  1.0000
  H   H51       1.0  0.5431593157552588  0.10201267500790268  0.5829620017561886  1.0000
  H   H52       1.0  0.5944062707023307  0.11588554384235805  0.5191996542753662  1.0000
  C   C79       1.0  0.7038129347994737  0.8528733871279379  0.4747330417678034  1.0000
  C   C80       1.0  0.750214568887572  0.8766981251937451  0.4613475793995978  1.0000
  C   C81       1.0  0.7779200346787994  0.8547544912296137  0.4619912522411289  1.0000
  C   C82       1.0  0.7593326141674538  0.8090633147325035  0.4765993127124001  1.0000
  C   C83       1.0  0.7123936539736774  0.7846507944737933  0.48827602762897265  1.0000
  C   C84       1.0  0.6845949043322072  0.8064495180445843  0.48710229843463143  1.0000
  H   H53       1.0  0.7647947387992923  0.9119036163499165  0.45046488469046025  1.0000
  H   H54       1.0  0.8141787234111185  0.8736371046335537  0.4527320556534921  1.0000
  H   H55       1.0  0.6974697519430215  0.7489068119197729  0.4984662681843364  1.0000
  H   H56       1.0  0.648490934520843  0.7875853469761467  0.4968856251413871  1.0000
  C   C85       1.0  0.8933748877744768  0.22213236144886941  0.6139769220690349  1.0000
  C   C86       1.0  0.8452149576843165  0.19115671969327755  0.6033203990033483  1.0000
  C   C87       1.0  0.828837293050655  0.14321090339855588  0.5985391710394334  1.0000
  C   C88       1.0  0.8604770478546303  0.1261234825919907  0.6052613552091837  1.0000
  C   C89       1.0  0.908331754827636  0.15682838782249017  0.6177546093777588  1.0000
  C   C90       1.0  0.924824170089838  0.20489512718646366  0.6215341525484879  1.0000
  H   H57       1.0  0.8206180090570605  0.20426323209326014  0.5976956598805294  1.0000
  H   H58       1.0  0.7915930415631712  0.11943656699700626  0.5896132651583432  1.0000
  H   H59       1.0  0.9328524785924053  0.1436034933291472  0.6230284798887833  1.0000
  H   H60       1.0  0.9618011518996742  0.22837469319905312  0.6303827220506166  1.0000
  C   C91       1.0  0.8672622690807016  0.07548377295673236  0.37200068642852097  1.0000
  C   C92       1.0  0.8917536204944955  0.08102789492015265  0.41478187926383797  1.0000
  C   C93       1.0  0.938754776515019  0.08988774406161273  0.41726812563599947  1.0000
  C   C94       1.0  0.9607578635827817  0.09158039317830013  0.3770576133391422  1.0000
  C   C95       1.0  0.9357765117477691  0.08466260853578822  0.3343216642943232  1.0000
  C   C96       1.0  0.8892825841525633  0.0773022734672364  0.3318067586770155  1.0000
  H   H61       1.0  0.8749448463653655  0.07964521420647651  0.445922784430805  1.0000
  H   H62       1.0  0.9579573147162644  0.09491336474943833  0.45036414220427884  1.0000
  H   H63       1.0  0.9527257681120506  0.08619828529523521  0.3031663741815716  1.0000
  H   H64       1.0  0.870488791634329  0.07317274424619291  0.29863620298268884  1.0000
  N   N1        1.0  0.15684206885976074  0.9510624236349885  0.7043999729156419  1.0000
  C   C97       1.0  0.15485380017988154  0.9459283534635354  0.6538890513859378  1.0000
  C   C98       1.0  0.16198116830015746  0.9968854071916986  0.7173201176237196  1.0000
  C   C99       1.0  0.19786802238083548  0.9478377232643501  0.7251198809062993  1.0000
  C   C100      1.0  0.11262142105525695  0.9135439610967241  0.7212637316701465  1.0000
  H   H65       1.0  0.18813791887445802  0.9730535835729104  0.640064588194586  1.0000
  H   H66       1.0  0.12481218189623243  0.948880690290415  0.6369657299255055  1.0000
  H   H67       1.0  0.15003537438200149  0.9112535926264413  0.6429887217320097  1.0000
  H   H68       1.0  0.16211591589570704  0.001148895252880644  0.7551483654544806  1.0000
  H   H69       1.0  0.1957844915913451  0.026164508279960863  0.7065205051821223  1.0000
  H   H70       1.0  0.1321905434065467  0.0010160222159694143  0.701553143043633  1.0000
  H   H71       1.0  0.20090876905627356  0.952040772236663  0.7631985855145239  1.0000
  H   H72       1.0  0.23190666001046237  0.9755390767037173  0.712933290771445  1.0000
  H   H73       1.0  0.19510498610265206  0.9136060452564294  0.7162954195091946  1.0000
  H   H74       1.0  0.10748099438157328  0.87840685025001  0.7120411686481397  1.0000
  H   H75       1.0  0.08096468984564674  0.915140506097951  0.7064722756594846  1.0000
  H   H76       1.0  0.11277192745865734  0.9164079799063876  0.7592737501718364  1.0000
  N   N2        1.0  0.22302705043107784  0.5108328168584149  0.5306601028373268  1.0000
  C   C101      1.0  0.2422201826499721  0.48220490555750045  0.5517682411269026  1.0000
  C   C102      1.0  0.17826289749218735  0.4802473769804075  0.5029858762426122  1.0000
  C   C103      1.0  0.2577318817891692  0.5447201509542213  0.5006567510957299  1.0000
  C   C104      1.0  0.2139503540454118  0.5362444673998784  0.5670149016985263  1.0000
  H   H77       1.0  0.2758865399743771  0.5039987815100382  0.5731591436420278  1.0000
  H   H78       1.0  0.24971611092391838  0.4627747458462393  0.5252756297764406  1.0000
  H   H79       1.0  0.2168492390426277  0.4558409184196325  0.5742347190213979  1.0000
  H   H80       1.0  0.18342432283326904  0.45954612983045634  0.47595386711345467  1.0000
  H   H81       1.0  0.15089463213627619  0.45481705484496737  0.5246104566944972  1.0000
  H   H82       1.0  0.16327118191419845  0.5007292490562586  0.4857569224028412  1.0000
  H   H83       1.0  0.244417916640976  0.5669611766507708  0.4841439315613548  1.0000
  H   H84       1.0  0.2653105429456664  0.5267178473255354  0.4727568604962225  1.0000
  H   H85       1.0  0.29201020408701345  0.5683688390061111  0.5203799473511733  1.0000
  H   H86       1.0  0.18676024967219523  0.5118891432581875  0.5895502379088677  1.0000
  H   H87       1.0  0.2006806196505158  0.5591870796749286  0.5522083704227232  1.0000
  H   H88       1.0  0.24665935879688206  0.5587664111539409  0.589379987945217  1.0000
  N   N3        1.0  0.21000499052292726  0.24812246987063233  0.7125506290654453  1.0000
  C   C105      1.0  0.20879161926327475  0.2861747649490223  0.6868688572475153  1.0000
  C   C106      1.0  0.24432552566951177  0.23677489251204867  0.6932943514482833  1.0000
  C   C107      1.0  0.16233167402670587  0.20635905447203975  0.7086878316857069  1.0000
  C   C108      1.0  0.22459820514285925  0.2631915410090791  0.7614291073272083  1.0000
  H   H89       1.0  0.19735386314507236  0.27587235878521155  0.6499472285342095  1.0000
  H   H90       1.0  0.24425604482999208  0.31817895303184773  0.6886996409596545  1.0000
  H   H91       1.0  0.18368527487558778  0.29602589843186133  0.7008604547982533  1.0000
  H   H92       1.0  0.24605942765676553  0.2081170742418911  0.7118683935782046  1.0000
  H   H93       1.0  0.2345393022648328  0.22534614964202324  0.6564346445874545  1.0000
  H   H94       1.0  0.28074661236102594  0.267433008789872  0.6959489175870929  1.0000
  H   H95       1.0  0.16181940255695595  0.17720864329409228  0.7283338816400585  1.0000
  H   H96       1.0  0.1503023459731313  0.19355521347042104  0.6723967091532035  1.0000
  H   H97       1.0  0.1354966317513524  0.21382298337543648  0.7224888390457984  1.0000
  H   H98       1.0  0.22579198079615512  0.23521320347041882  0.7818329210625823  1.0000
  H   H99       1.0  0.1994409759264872  0.27193139115627873  0.7770687928423851  1.0000
  H   H100      1.0  0.2604309890522489  0.2945759514200441  0.7657415867729799  1.0000
  N   N4        1.0  0.9848322545470022  0.9029565137715813  0.918490345872471  1.0000
  C   C109      1.0  0.033694445984916  0.9248739788475299  0.9040592096909772  1.0000
  C   C110      1.0  0.9514584995164865  0.8942315408275605  0.8779019341162935  1.0000
  C   C111      1.0  0.9812244389818028  0.9344783147475663  0.9522503698733041  1.0000
  C   C112      1.0  0.9731817030246224  0.8582856341849964  0.939729090030047  1.0000
  H   H101      1.0  0.060122207909740766  0.9325829389723861  0.9337482740021363  1.0000
  H   H102      1.0  0.04340419526183226  0.9585652875296847  0.8880768877156778  1.0000
  H   H103      1.0  0.037878584333894905  0.9025047953055241  0.8781671286563242  1.0000
  H   H104      1.0  0.9141017306578852  0.8775093336512029  0.887207152239219  1.0000
  H   H105      1.0  0.9592839063777866  0.9272078384557019  0.8609950498280954  1.0000
  H   H106      1.0  0.9538493055781088  0.8711764610816708  0.8513972601656337  1.0000
  H   H107      1.0  0.006197561764647697  0.9419703781019629  0.983186949233415  1.0000
  H   H108      1.0  0.9448258334235208  0.9193795472861569  0.9638926358007264  1.0000
  H   H109      1.0  0.9904444334423964  0.9688255550945392  0.9376182382647916  1.0000
  H   H110      1.0  0.9365401459876916  0.8407988242524143  0.9511367890340702  1.0000
  H   H111      1.0  0.997893297480413  0.8637268758455483  0.9703535338142228  1.0000
  H   H112      1.0  0.9756625078068126  0.8337664870197722  0.9151427670511214  1.0000
  N   N5        1.0  0.9315878079213223  0.8022718408100229  0.4434701685628481  1.0000
  C   C113      1.0  0.9221717758032114  0.8148412589830364  0.3969672623635866  1.0000
  C   C114      1.0  0.9336482327709075  0.8365328910110466  0.47769566111592265  1.0000
  C   C115      1.0  0.9772789894785097  0.8024120884687329  0.4462987859896896  1.0000
  C   C116      1.0  0.8931638317267626  0.75524713575782  0.45302904216087564  1.0000
  H   H113      1.0  0.9196072689804611  0.7892601197952607  0.3703348333652414  1.0000
  H   H114      1.0  0.9509652435166637  0.8498766435354889  0.38822926186048673  1.0000
  H   H115      1.0  0.8882791875420316  0.8157528366548221  0.39392703674840013  1.0000
  H   H116      1.0  0.9619922970338223  0.872487253961374  0.4712359571629875  1.0000
  H   H117      1.0  0.8994107994442323  0.8367765682571475  0.4767787728407851  1.0000
  H   H118      1.0  0.9408702855339153  0.8281654270284805  0.5131775512801523  1.0000
  H   H119      1.0  0.00736503640454389  0.8374830583838134  0.43992644006900006  1.0000
  H   H120      1.0  0.9771915164858946  0.7773703070439473  0.42045949063143406  1.0000
  H   H121      1.0  0.9848969608650155  0.7919165574850638  0.48060963461613776  1.0000
  H   H122      1.0  0.8978846307713729  0.7458227928763992  0.48876125303488216  1.0000
  H   H123      1.0  0.8922524120947712  0.7280613857449587  0.4294995422941637  1.0000
  H   H124      1.0  0.857816444722376  0.7531065113068783  0.4490848690659757  1.0000
  N   N6        1.0  0.9718551683666937  0.566963351725514  0.5163035108172236  1.0000
  C   C117      1.0  0.9772849907332963  0.5254668596832288  0.5242726270119251  1.0000
  C   C118      1.0  0.0005386678171759307  0.5930730248271447  0.47846549234701724  1.0000
  C   C119      1.0  0.9881743382050877  0.597120642122385  0.5586335927484594  1.0000
  C   C120      1.0  0.9215460076915255  0.5523796593979756  0.5038423248296162  1.0000
  H   H125      1.0  0.9655460926440563  0.5018924605907402  0.4930697370929948  1.0000
  H   H126      1.0  0.9564901374416921  0.5050416432897664  0.5528781384527142  1.0000
  H   H127      1.0  0.01499276437076813  0.5356683087755949  0.5336447665207112  1.0000
  H   H128      1.0  0.9968423888978305  0.624253368893356  0.47096272281521806  1.0000
  H   H129      1.0  0.03879036131657054  0.6056979902601675  0.48704400847617363  1.0000
  H   H130      1.0  0.9900417030075148  0.5712462437195719  0.44614172569653626  1.0000
  H   H131      1.0  0.9673908512223964  0.5785740104859876  0.5879633254056774  1.0000
  H   H132      1.0  0.984612984239308  0.6287653081822705  0.5538505463957816  1.0000
  H   H133      1.0  0.026125781244961344  0.6090582798440155  0.5689353134155997  1.0000
  H   H134      1.0  0.8987971229727105  0.5330243216273084  0.531762475662405  1.0000
  H   H135      1.0  0.9080295381684226  0.5295468396488564  0.47204991493225845  1.0000
  H   H136      1.0  0.9166997743656454  0.5831840280487351  0.4972944454651863  1.0000
  N   N7        1.0  0.7959917146772929  0.9193547498977367  0.6046729082027427  1.0000
  C   C121      1.0  0.7564669564138906  0.9294228256815084  0.5975415850305129  1.0000
  C   C122      1.0  0.8312313686526065  0.9440636475039836  0.5709253730194712  1.0000
  C   C123      1.0  0.7774765608645671  0.8686188555179853  0.5986206967190407  1.0000
  C   C124      1.0  0.8188015956591708  0.9352488400774346  0.6516019375504586  1.0000
  H   H137      1.0  0.769133562943306  0.9674385921617144  0.6020973842489152  1.0000
  H   H138      1.0  0.7290732470519745  0.9110297182725097  0.6222769614097884  1.0000
  H   H139      1.0  0.7385126064529876  0.9179335157760582  0.5623783630517231  1.0000
  H   H140      1.0  0.8458864837088448  0.9825045735769545  0.5745266262291051  1.0000
  H   H141      1.0  0.8614493478019042  0.9370713930641693  0.5753732318208158  1.0000
  H   H142      1.0  0.8151985412921726  0.932860729258066  0.53519679874145  1.0000
  H   H143      1.0  0.751370212432636  0.8489400029067853  0.624125011925566  1.0000
  H   H144      1.0  0.8063397743455554  0.8596344170547572  0.6032103888263213  1.0000
  H   H145      1.0  0.7593220371507883  0.8552302514607396  0.5638947551173351  1.0000
  H   H146      1.0  0.7934121039909751  0.9166682928672895  0.6780165388958369  1.0000
  H   H147      1.0  0.8328573711266009  0.9734144604868417  0.6574814112594874  1.0000
  H   H148      1.0  0.8488343375736281  0.9281676751640404  0.6579957975784467  1.0000
  N   N8        1.0  0.42025325894645493  0.9469268201152917  0.5374417335908783  1.0000
  C   C125      1.0  0.45519196990879446  0.9350387952337862  0.5591542944372748  1.0000
  C   C126      1.0  0.4406701831030729  0.9980995568477539  0.5394135549278104  1.0000
  C   C127      1.0  0.37663349275776264  0.9252490294038483  0.5622790405326419  1.0000
  C   C128      1.0  0.4086350152977899  0.9296466893897176  0.4889924541276662  1.0000
  H   H149      1.0  0.4644836437435421  0.9476250079118032  0.595862618204031  1.0000
  H   H150      1.0  0.48895500737485537  0.9516992097778415  0.5418551591530458  1.0000
  H   H151      1.0  0.44135677687163954  0.8967139150473774  0.5581552561777491  1.0000
  H   H152      1.0  0.41547045989437276  0.008677809285664084  0.5235081469387453  1.0000
  H   H153      1.0  0.44965575180457745  0.01201590683653464  0.5755183576565023  1.0000
  H   H154      1.0  0.4739586843946139  0.01581492763958381  0.5214961638071308  1.0000
  H   H155      1.0  0.35035049337926305  0.9353488864728539  0.5481551851361366  1.0000
  H   H156      1.0  0.3844577106479422  0.9362263165664599  0.5993385351169017  1.0000
  H   H157      1.0  0.35913305145358493  0.8865019025015114  0.5600766632285543  1.0000
  H   H158      1.0  0.38222158066965684  0.9381243918064092  0.4719247684490294  1.0000
  H   H159      1.0  0.3932356928476713  0.8910937560015522  0.48612185803318614  1.0000
  H   H160      1.0  0.4407555507676352  0.9456325507512432  0.46922533156073  1.0000
  N   N9        1.0  0.7035772304532726  0.5493347465736632  0.6761729235530042  1.0000
  C   C129      1.0  0.752230150205996  0.5746893154756475  0.698562106618625  1.0000
  C   C130      1.0  0.6725437442708537  0.5624392794240706  0.6997079719237702  1.0000
  C   C131      1.0  0.685075904714826  0.49855283376272275  0.6787377342698347  1.0000
  C   C132      1.0  0.7044095316028188  0.5616690698913631  0.6275450624952313  1.0000
  H   H161      1.0  0.7768910090438881  0.5664288494960741  0.6810852696145171  1.0000
  H   H162      1.0  0.753225320800272  0.5661655218545829  0.7352669370309474  1.0000
  H   H163      1.0  0.7672668962212068  0.6131467102393372  0.6973559702591073  1.0000
  H   H164      1.0  0.6357600334920985  0.5446827059928021  0.6830407250686825  1.0000
  H   H165      1.0  0.670678058220161  0.5534826794261825  0.7364487063446014  1.0000
  H   H166      1.0  0.6854058731282041  0.6005745752316538  0.6984318667555994  1.0000
  H   H167      1.0  0.6483708111541057  0.47851144939101076  0.6621979689417636  1.0000
  H   H168      1.0  0.6839836501910848  0.4880260249012767  0.7150063137982671  1.0000
  H   H169      1.0  0.70762248462545  0.48749916183792374  0.6611989372225036  1.0000
  H   H170      1.0  0.6683438314838646  0.5433320128536028  0.6093738505838984  1.0000
  H   H171      1.0  0.7283160499419153  0.5534461176233344  0.6087335012692945  1.0000
  H   H172      1.0  0.7173850175675852  0.5995521425228738  0.6246929779353939  1.0000
  N   N10       1.0  0.9158777074897934  0.21704028713614743  0.7632638081324643  1.0000
  C   C133      1.0  0.8728376013774163  0.1900778716669017  0.7319556394345368  1.0000
  C   C134      1.0  0.9551121993511524  0.24995185088746208  0.7366546409278212  1.0000
  C   C135      1.0  0.9291562885162075  0.18469823268746158  0.7862523023137443  1.0000
  C   C136      1.0  0.9064850183788493  0.243554577987343  0.798069314534288  1.0000
  H   H173      1.0  0.8420456407362429  0.16574742059569264  0.7509172557131749  1.0000
  H   H174      1.0  0.8783162822854421  0.16863933744820542  0.7060343126587447  1.0000
  H   H175      1.0  0.8627627207184645  0.21344196103236662  0.7126618243639896  1.0000
  H   H176      1.0  0.988240281437922  0.2712950852905323  0.7590270774202401  1.0000
  H   H177      1.0  0.9634100128782987  0.230952554212013  0.7107147267492492  1.0000
  H   H178      1.0  0.9460802141372007  0.27431086261159504  0.7178994242865175  1.0000
  H   H179      1.0  0.9348997550562491  0.16293685902315722  0.7609054945731032  1.0000
  H   H180      1.0  0.9011140232000956  0.16028795182131228  0.8079350161539582  1.0000
  H   H181      1.0  0.9627233577012905  0.20379471922636588  0.8086090227145327  1.0000
  H   H182      1.0  0.8769165237507027  0.21991570919429948  0.8187655980232112  1.0000
  H   H183      1.0  0.8966243271760742  0.26840747182410446  0.7816866872308892  1.0000
  H   H184      1.0  0.9383176722097887  0.26421698646337566  0.8222214571108069  1.0000
  N   N11       1.0  0.14987868944464083  0.23072518101479775  0.41391808400834834  1.0000
  C   C137      1.0  0.10161233849018395  0.22460582876456459  0.41340269574278604  1.0000
  C   C138      1.0  0.1804962746691372  0.27323416138137924  0.38973432919339096  1.0000
  C   C139      1.0  0.14800854518281667  0.18981851769029548  0.39057793914536626  1.0000
  C   C140      1.0  0.169539481625247  0.2354099096259689  0.46194138695101605  1.0000
  H   H185      1.0  0.07776495668837885  0.193141084814765  0.43200122091029924  1.0000
  H   H186      1.0  0.08524764031161061  0.21972837861177422  0.377672217359772  1.0000
  H   H187      1.0  0.10191393113789579  0.2553330607461784  0.4299341423239132  1.0000
  H   H188      1.0  0.16779193333787865  0.2705476308058652  0.3529754480600891  1.0000
  H   H189      1.0  0.1819741852836314  0.304724256729778  0.40541669089418664  1.0000
  H   H190      1.0  0.21752182164706735  0.2797376333974901  0.39095733189943166  1.0000
  H   H191      1.0  0.13262732268844238  0.18489243390647228  0.3544628989233167  1.0000
  H   H192      1.0  0.1254388043103846  0.15699403973533602  0.40802675166709346  1.0000
  H   H193      1.0  0.18400462878225526  0.19372677238672711  0.3894558409124452  1.0000
  H   H194      1.0  0.1719891776640905  0.26634304722219465  0.48031918792130673  1.0000
  H   H195      1.0  0.20589484853881163  0.23990515589710906  0.4635728110587968  1.0000
  H   H196      1.0  0.14711213687739  0.20404616531054018  0.4813294207842835  1.0000
  N   N12       1.0  0.18986753843497975  0.15128495515211612  0.1397845484967371  1.0000
  C   C141      1.0  0.19672138930251568  0.19883295152547875  0.1462015039363772  1.0000
  C   C142      1.0  0.1772359255949845  0.13618671220573356  0.09071731752034388  1.0000
  C   C143      1.0  0.15124808338945828  0.11879637914491076  0.16716266544750283  1.0000
  C   C144      1.0  0.23403142861780482  0.15111994161352982  0.15532450866912204  1.0000
  H   H197      1.0  0.20679744654271381  0.2114118579047492  0.1828046004941864  1.0000
  H   H198      1.0  0.1636773519257723  0.1998835829681425  0.13564083388416354  1.0000
  H   H199      1.0  0.22529562698646716  0.22426574494999282  0.12560321473126887  1.0000
  H   H200      1.0  0.1723170969601309  0.1006068090457852  0.08455694633913247  1.0000
  H   H201      1.0  0.14334122940395955  0.13479804518113395  0.07834328241647073  1.0000
  H   H202      1.0  0.2051507349986572  0.1601982862743398  0.06868471186119193  1.0000
  H   H203      1.0  0.11759926655393003  0.11900733383176496  0.15768943601385532  1.0000
  H   H204      1.0  0.16017017782551954  0.12807536519109688  0.20444181158559055  1.0000
  H   H205      1.0  0.14424156494600074  0.08238730921497144  0.16207822832264746  1.0000
  H   H206      1.0  0.22988168666808192  0.11561726267482982  0.15123284880387647  1.0000
  H   H207      1.0  0.2441314809835178  0.16196573738314596  0.19243517676039343  1.0000
  H   H208      1.0  0.26417845387016725  0.17532119956338796  0.13557336384650415  1.0000
  N   N13       1.0  0.9179704270500049  0.2126876960128549  0.467666226456134  1.0000
  C   C145      1.0  0.8893383331266823  0.2293283586699268  0.4904635214521182  1.0000
  C   C146      1.0  0.9643472172873421  0.2530113939822236  0.4588150233035574  1.0000
  C   C147      1.0  0.8926723595602687  0.18784253609957466  0.4237353333970694  1.0000
  C   C148      1.0  0.925564104940659  0.18059929739087355  0.4977597519844978  1.0000
  H   H209      1.0  0.9082021151368213  0.24977640677941146  0.5228113539432043  1.0000
  H   H210      1.0  0.8548715099566397  0.1997474367196313  0.4995063776921845  1.0000
  H   H211      1.0  0.8813989266942549  0.2523338078774906  0.46820680747854315  1.0000
  H   H212      1.0  0.9869853605536425  0.2417477301725414  0.4417641634136574  1.0000
  H   H213      1.0  0.9600279726680969  0.27804583567955893  0.4362751602124082  1.0000
  H   H214      1.0  0.9844174995256314  0.2726199454440806  0.49129664472431217  1.0000
  H   H215      1.0  0.9136041848767824  0.17554356535194024  0.4050704317183687  1.0000
  H   H216      1.0  0.8853067444983648  0.21056015868127803  0.40047010009434536  1.0000
  H   H217      1.0  0.8579700605988151  0.15659005528492748  0.42923531020257827  1.0000
  H   H218      1.0  0.9455767059025852  0.1985977347818581  0.5307164409264834  1.0000
  H   H219      1.0  0.9460048953200075  0.1663930149340828  0.48119764529075376  1.0000
  H   H220      1.0  0.8913029664225962  0.15037279929951103  0.5063521279779271  1.0000
  N   N14       1.0  0.7394314671564739  0.9262931209454925  0.32729235440249593  1.0000
  C   C149      1.0  0.7422994013189906  0.8992346418482458  0.2883366616303789  1.0000
  C   C150      1.0  0.7014515043549621  0.8947254378963481  0.3559744788545684  1.0000
  C   C151      1.0  0.7287492028921638  0.9624256782993237  0.3097072271228634  1.0000
  C   C152      1.0  0.7852856946418254  0.9488646326481094  0.35517472772160474  1.0000
  H   H221      1.0  0.7705868640797957  0.9221575778428801  0.2659829772639384  1.0000
  H   H222      1.0  0.708248627856194  0.8815312711945998  0.26660138969757574  1.0000
  H   H223      1.0  0.7505304753330009  0.8717997103525772  0.3005183346404608  1.0000
  H   H224      1.0  0.6661597063153626  0.8776163143988274  0.3363693509697329  1.0000
  H   H225      1.0  0.7078757616148716  0.8666189940884352  0.36959525751530736  1.0000
  H   H226      1.0  0.6987913402852908  0.9139681247136627  0.38607101829499885  1.0000
  H   H227      1.0  0.7246546702617782  0.9823426421328484  0.3382860788473577  1.0000
  H   H228      1.0  0.6952585736138853  0.9469346867794786  0.28715899302534115  1.0000
  H   H229      1.0  0.7577900657897996  0.988359106863507  0.2898007254760846  1.0000
  H   H230      1.0  0.7844939141238068  0.9699444225760308  0.38456773121838156  1.0000
  H   H231      1.0  0.814776309253526  0.9731400519611415  0.33468760046256935  1.0000
  H   H232      1.0  0.7944620303388725  0.9227204301885429  0.3693040579899901  1.0000
  N   N15       1.0  0.286157045685564  0.09284246356104121  0.44006902916943735  1.0000
  C   C153      1.0  0.2924313169450286  0.11010868247096572  0.4882341438339731  1.0000
  C   C154      1.0  0.25272134324712203  0.042051685088621435  0.4366029688690623  1.0000
  C   C155      1.0  0.3324733952429767  0.1021550841448271  0.425036367400813  1.0000
  C   C156      1.0  0.26730740575354617  0.11723318986482496  0.4104550966464069  1.0000
  H   H233      1.0  0.30712535496342624  0.09278066754701009  0.5114661669039465  1.0000
  H   H234      1.0  0.25826706151202505  0.10350822366249457  0.5009973283485692  1.0000
  H   H235      1.0  0.3175069729804764  0.14834175387237886  0.4919999299741258  1.0000
  H   H236      1.0  0.21746026272988825  0.03357731342721726  0.4480383107098411  1.0000
  H   H237      1.0  0.2470410892799765  0.027826814182619453  0.4006848731018006  1.0000
  H   H238      1.0  0.26615843421260976  0.02267840615649175  0.4583286142511101  1.0000
  H   H239      1.0  0.3290000893759284  0.08841609873600983  0.3893017288942767  1.0000
  H   H240      1.0  0.3484474167362773  0.0855198888437928  0.44768316691373244  1.0000
  H   H241      1.0  0.3579756561609144  0.14030422578466184  0.4259029140039945  1.0000
  H   H242      1.0  0.2630074271615217  0.10580079150766324  0.3736515817566648  1.0000
  H   H243      1.0  0.2914707363993574  0.15573270235119666  0.41296410469308187  1.0000
  H   H244      1.0  0.23198941793893121  0.11040907347902462  0.42017771278867727  1.0000
  N   N16       1.0  0.5422783502798044  0.3704010122721736  0.49917205253728764  1.0000
  C   C157      1.0  0.5262994706582155  0.38731817259385637  0.5374673570145556  1.0000
  C   C158      1.0  0.5865498919952086  0.40923800287940326  0.48390344998925244  1.0000
  C   C159      1.0  0.5054864232216549  0.35295909426186545  0.4604740552016503  1.0000
  C   C160      1.0  0.550533031596045  0.33212997455287036  0.5147232745879775  1.0000
  H   H245      1.0  0.49324600304298  0.35875477861970706  0.5502383161119135  1.0000
  H   H246      1.0  0.5188236387796951  0.4156024485741008  0.5265985552008366  1.0000
  H   H247      1.0  0.553448523818583  0.40145161106299254  0.5670180939931035  1.0000
  H   H248      1.0  0.6152992670304813  0.4232672975702781  0.5120513197443235  1.0000
  H   H249      1.0  0.5992014458625947  0.3979251725920055  0.45450378336258157  1.0000
  H   H250      1.0  0.5811181035343589  0.43867025542886867  0.472307999020625  1.0000
  H   H251      1.0  0.4994813461266075  0.38126885534548544  0.4468719626860996  1.0000
  H   H252      1.0  0.4710297966165396  0.3250134560065276  0.47109800982507233  1.0000
  H   H253      1.0  0.5153665481789462  0.3383017646008131  0.43148186819390866  1.0000
  H   H254      1.0  0.5775560818380028  0.3436318582038259  0.5443899259991998  1.0000
  H   H255      1.0  0.5626832717600148  0.31843865290020834  0.486785077597905  1.0000
  H   H256      1.0  0.5174507589402565  0.30226369225447364  0.5259638404246085  1.0000
