data_image0
_chemical_formula_structural       HCFeS2FeS2FeSFeS4HC6H4C4NCHCH3C6H4NSC2FeCH2SCH4NH2CH2CH2FeHSH2C2HCHNCHCSH3C2H2CH3CH2C2H3SH2CH5SH3CHC2H5CH3FeSFeS2FeSFeSFeS3HFeS2NSHFeS2HFeSCSC6H5NH6SH2C6H4CN2C6H5CHC2HCH2C2HCSCNCHFeH3C2H2C2HNH3SCH2CH2SH2C2H6C2HCH4SCHFeC4H2FeH12CHCHCH5FeH4CH2CFeHFeS2H2SH5S3FeS2FeS2FeSFeS5C6H4C6H4FeHCH3CFeHC3H5CHCNC2HC4H2FeH2NC4H12NCHC3H3C2H7FeHCHSC3HCHCHCHCNSH2CSFeSH3CHCHSC3HCSH2NH2CHCH2SCH2CHNCHC2NHFe2H2SHSC2SH5CHCHSCH3SFeHC2HNH4CH3CH4SHCSCH3SHCH3CH2SCHFeCFeS2HCSFeSCH2C3H4CFeNFeH2SH4CHFeSHSH3SCH4NH3CH3CH2CHCH3CNCFeSHFeS2FeH3SHFeS2FeS2FeSFeS3H2C4SH5C4H3C6H4CH2CNCHC6H3CH2CSH3CH5C2H3SNC2HNHSC2HCH2NH2CHC2H4NCH5CH4CSCHC3H10CHSFeHSCH4C3H3SH2FeS2FeS2FeS2FeCFeSHSNSCFeS2H4CFeNCH4CH2C5SH6C7H5C5H7CFeCHSH11NCH5C2H2SHCH2CHFeH2CHCH4CH2CSH2NC3H2CSCH2C2H7SC2H4CFeS2CHSH3FeHCFeSFeS2FeS2FeS2FeSFeS3NC4H5C6H4CH2C6H5C4H3C2SCSCSH2SH5CH3CNH2CHNCSHCH2CH3CH6C3H3C3H5CHCHCFeC2H3CNH2CSFeH2FeS2Fe2CHS2FeS2FeS2FeSFeS3C6H3C2HCHCH7C7H6C2H4C2SC3HCHCNHCH2CHCH3SCSH4CH6CH2NC4H6CHCNSH2CNH3CHC2HS2CH4CH3SH2FeCH2C2HC2H4C2H3SCHNCH2CH3CH2CSHSFeS3HFeSCHFe2SCSH2C7H4CH5CH2C2HCH3CHFeHNH2NC6H3SFeHCHCS2H6CH3SCH2CNC4H9NHCHCHFeSHC2H3C2HCHCH3SHFeCSFeS2CHFeCS2FeS2FeS2FeSFeS3HCHSH3CH5FeH3C6H4CH2C8H4C5H6NC4H13CHCHC2NSCH3CHN2H3FeCH2CHSH2NCH2CHCFeC2HCSCHSC2H3C2HCH3CHSHCH3SH2SCFeSHSFeS2FeSHFeSFeS3FeS2FeS2FeSFeS3C6H4C2H2CH4CHCHNC6H4CHC3H5C2H2C2H4C6H7CHC2SHC2H2CHNCHNC4H15C2HSC2H2CH2CH2CHNCHCNC4H8CHCHNC2HFeH3CHCH6CHFeHCFeHFeS2FeSCFeSFeSFeS3HC6H5NHC6H4NC4H12SH3C3SH2NCSH6CHCH4CH5SC2HC2H2CH4NHCHCH3FeS2HCFeSCSFeS2FeSHFeSFeS3FeS2FeS2FeSFeS3FeSHFeSHSC2HCHC2H2C7H5SFeH3C6H4C6H5CNC2H5CHCHCNC4H13CH4NH2CHC2H3CH5SH6CH2SCHSHC3HC2SFeC3H2CNH2FeHSC2SCHSCSH5CH2NCHCH6SHFeS2FeS2FeSFeS3C2HC2HCH3CH3C7H4CHSC2HC4H5C2H3CH3NH2CHCH2NH2C3SNHNC4H15SCHCNC4H8C4H3CHCH2C2H4CH2S2FeC2H2FeSFeS2FeSFeSH2C2H2CSHFeS2FeSFeSFeS3C4H2C2H5CH2C6H4C2HC3H2NH4CHC2H8NCHFeHCHFeCHSNH3C2H2FeCH2CH3CH4S2HSH3CNHC2H4CHFeHC3NC4H6CHCH3C2S2CSH3CHFeNHCHFeSCSCFeS2C2H4SFeS2FeSHFeSFeS3C2HSH2CHSC6H4SC2H2C6H5CFeHCH2C2HC2H3C2H2NH4CSCNC4H14CSH2CFeHSCFeCH2SH3C2HC3NCHCFeHCH5NHCH2SH2FeHSH4SH2C2H2CHFeHSHC3HCH5CH6CH4SCFeS2FeSFeSFeS2HCHNSH2NC2HCHC6H2CHCHCFeH9CH2CFeSCHFeSH2CHCH3C3HSCFeHCHCH2CSH5C2NH6CHSHC2HSC2NH3CHFeSCFeSCSNFeSCSC2H5FeH2CH5CH3CHCHCSC2H3CHCH2NHCHCH5C2FeSHFeS2FeSH2SHCHCHCH4SC2FeHNCH6C4HFeS2FeS2FeSFeS3HC4H4CHC6H4CHC5H3CH2NC4HSHSCHCH3S2NCHC2H3CH4CH6CHC2HCH8C2HNH3CH9CHC3HCH2SNFeS2FeSFeSFeS3FeSHSH2CFeS2FeH2S2C4H2C2H2CH4CSH5CH2CHC10H3CHCH7SH3CHNHCNC4HFeH2CH3SHFeHCHFeCFeHSH2CH4CSCHCH2CH6C4SH5FeS2FeS2HCH2FeS2FeS2FeSFeS3H5C7H3C6H4SC3HC2SCHCFeHFeNC4H3CH9CHC2SNC4H2CH9CH3SH5SCNHCH2CHC2H5SCHCHNH3CHFeHCH2NH2SCHSH2
_chemical_formula_sum              "H1536 C960 Fe192 S384 N96"
_cell_length_a       87.4741
_cell_length_b       87.4081
_cell_length_c       45.9242
_cell_angle_alpha    87.5333
_cell_angle_beta     87.4543
_cell_angle_gamma    108.479

_space_group_name_H-M_alt    "P 1"
_space_group_IT_number       1

loop_
  _space_group_symop_operation_xyz
  'x, y, z'

loop_
  _atom_site_type_symbol
  _atom_site_label
  _atom_site_symmetry_multiplicity
  _atom_site_fract_x
  _atom_site_fract_y
  _atom_site_fract_z
  _atom_site_occupancy
  H   H1        1.0  0.17195  0.62612  0.23581  1.0000
  C   C1        1.0  0.18734  0.65561  0.01286  1.0000
  Fe  Fe1       1.0  0.18429  0.51138  0.10729  1.0000
  S   S1        1.0  0.20000  0.53631  0.11650  1.0000
  S   S2        1.0  0.18489  0.50027  0.06319  1.0000
  Fe  Fe2       1.0  0.16951  0.50391  0.17137  1.0000
  S   S3        1.0  0.18433  0.52839  0.18467  1.0000
  S   S4        1.0  0.15209  0.48356  0.20185  1.0000
  Fe  Fe3       1.0  0.17808  0.53775  0.14207  1.0000
  S   S5        1.0  0.16924  0.55927  0.13757  1.0000
  Fe  Fe4       1.0  0.20515  0.52478  0.15813  1.0000
  S   S6        1.0  0.23005  0.53421  0.17638  1.0000
  S   S7        1.0  0.16182  0.51354  0.13014  1.0000
  S   S8        1.0  0.19090  0.49958  0.14751  1.0000
  S   S9        1.0  0.21544  0.62622  0.17460  1.0000
  H   H2        1.0  0.21325  0.64483  0.03727  1.0000
  C   C2        1.0  0.18251  0.57778  0.14701  1.0000
  C   C3        1.0  0.17818  0.59177  0.14259  1.0000
  C   C4        1.0  0.18822  0.60666  0.15104  1.0000
  C   C5        1.0  0.20265  0.60765  0.16394  1.0000
  C   C6        1.0  0.20714  0.59370  0.16784  1.0000
  C   C7        1.0  0.19707  0.57876  0.15944  1.0000
  H   H3        1.0  0.16696  0.59104  0.13277  1.0000
  H   H4        1.0  0.18478  0.61731  0.14733  1.0000
  H   H5        1.0  0.21838  0.59441  0.17757  1.0000
  H   H6        1.0  0.20051  0.56798  0.16279  1.0000
  C   C8        1.0  0.18300  0.50970  0.02908  1.0000
  C   C9        1.0  0.18434  0.52607  0.02600  1.0000
  C   C10       1.0  0.15093  0.63682  0.31472  1.0000
  C   C11       1.0  0.15706  0.64245  0.28585  1.0000
  N   N1        1.0  0.21505  0.62982  0.07459  1.0000
  C   C12       1.0  0.01077  0.44617  0.30182  1.0000
  H   H7        1.0  0.18610  0.53320  0.04500  1.0000
  C   C13       1.0  0.17962  0.64817  0.03971  1.0000
  H   H8        1.0  0.16988  0.64828  0.28122  1.0000
  H   H9        1.0  0.19017  0.47344  0.28045  1.0000
  H   H10       1.0  0.01509  0.48559  0.31178  1.0000
  C   C14       1.0  0.11971  0.48239  0.28538  1.0000
  C   C15       1.0  0.11743  0.46868  0.26929  1.0000
  C   C16       1.0  0.12727  0.46935  0.24364  1.0000
  C   C17       1.0  0.13929  0.48378  0.23325  1.0000
  C   C18       1.0  0.14137  0.49758  0.24901  1.0000
  C   C19       1.0  0.13178  0.49683  0.27499  1.0000
  H   H11       1.0  0.10835  0.45745  0.27694  1.0000
  H   H12       1.0  0.12555  0.45856  0.23176  1.0000
  H   H13       1.0  0.15050  0.50878  0.24140  1.0000
  H   H14       1.0  0.13370  0.50755  0.28703  1.0000
  N   N2        1.0  0.00602  0.45963  0.31347  1.0000
  S   S10       1.0  0.18168  0.64665  0.16066  1.0000
  C   C20       1.0  0.14654  0.64085  0.26325  1.0000
  C   C21       1.0  0.12379  0.62738  0.29868  1.0000
  Fe  Fe5       1.0  0.20565  0.64714  0.17669  1.0000
  C   C22       1.0  0.12989  0.63321  0.26989  1.0000
  H   H15       1.0  0.19312  0.63198  0.09430  1.0000
  H   H16       1.0  0.00187  0.43421  0.30907  1.0000
  S   S11       1.0  0.15347  0.64768  0.22633  1.0000
  C   C23       1.0  0.21049  0.63184  0.04437  1.0000
  H   H17       1.0  0.17341  0.58837  0.20382  1.0000
  H   H18       1.0  0.14549  0.60906  0.25876  1.0000
  H   H19       1.0  0.15541  0.59594  0.27445  1.0000
  H   H20       1.0  0.17073  0.58308  0.24214  1.0000
  N   N3        1.0  0.16024  0.60114  0.22809  1.0000
  H   H21       1.0  0.12161  0.63187  0.25264  1.0000
  H   H22       1.0  0.14820  0.61582  0.20593  1.0000
  C   C24       1.0  0.15183  0.60485  0.20282  1.0000
  H   H23       1.0  0.15968  0.60718  0.18235  1.0000
  H   H24       1.0  0.13823  0.58791  0.25297  1.0000
  C   C25       1.0  0.16477  0.58649  0.22315  1.0000
  H   H25       1.0  0.11094  0.62171  0.30335  1.0000
  H   H26       1.0  0.21587  0.51054  0.23730  1.0000
  Fe  Fe6       1.0  0.17869  0.65804  0.20293  1.0000
  H   H27       1.0  0.19734  0.60632  0.08365  1.0000
  S   S12       1.0  0.20219  0.65726  0.21975  1.0000
  H   H28       1.0  0.01354  0.52550  0.33164  1.0000
  H   H29       1.0  0.18934  0.50732  0.26348  1.0000
  C   C26       1.0  0.18207  0.65660  0.06544  1.0000
  C   C27       1.0  0.20958  0.50015  0.22435  1.0000
  H   H30       1.0  0.21857  0.49421  0.21747  1.0000
  C   C28       1.0  0.20063  0.48212  0.26747  1.0000
  H   H31       1.0  0.20604  0.50535  0.20422  1.0000
  N   N4        1.0  0.19538  0.48870  0.24094  1.0000
  C   C29       1.0  0.18386  0.49721  0.24939  1.0000
  H   H32       1.0  0.17981  0.50245  0.22986  1.0000
  C   C30       1.0  0.20645  0.63759  0.09455  1.0000
  S   S13       1.0  0.10882  0.48198  0.31955  1.0000
  H   H33       1.0  0.17633  0.46672  0.23397  1.0000
  H   H34       1.0  0.20980  0.63652  0.11744  1.0000
  H   H35       1.0  0.15406  0.57597  0.21915  1.0000
  C   C31       1.0  0.18743  0.47532  0.22255  1.0000
  C   C32       1.0  0.17495  0.61491  0.23167  1.0000
  H   H36       1.0  0.17164  0.63582  0.04057  1.0000
  H   H37       1.0  0.18333  0.61754  0.21178  1.0000
  C   C33       1.0  0.21064  0.61241  0.08335  1.0000
  H   H38       1.0  0.14071  0.59471  0.19933  1.0000
  H   H39       1.0  0.18352  0.47988  0.20215  1.0000
  H   H40       1.0  0.19732  0.62591  0.04227  1.0000
  C   C34       1.0  0.14937  0.59834  0.25475  1.0000
  H   H41       1.0  0.18174  0.61252  0.25030  1.0000
  H   H42       1.0  0.19564  0.46844  0.21603  1.0000
  C   C35       1.0  0.24404  0.51008  0.16842  1.0000
  C   C36       1.0  0.23264  0.63751  0.07621  1.0000
  H   H43       1.0  0.15917  0.63842  0.33204  1.0000
  H   H44       1.0  0.20670  0.49191  0.28181  1.0000
  H   H45       1.0  0.20935  0.47562  0.26184  1.0000
  S   S14       1.0  0.03351  0.41866  0.32534  1.0000
  H   H46       1.0  0.01465  0.38732  0.31187  1.0000
  H   H47       1.0  0.21647  0.60603  0.06820  1.0000
  C   C37       1.0  0.13425  0.62930  0.32140  1.0000
  H   H48       1.0  0.23228  0.50242  0.16298  1.0000
  H   H49       1.0  0.17923  0.48784  0.00649  1.0000
  H   H50       1.0  0.02272  0.44619  0.30927  1.0000
  H   H51       1.0  0.17588  0.65079  0.08586  1.0000
  H   H52       1.0  0.17276  0.48886  0.26125  1.0000
  S   S15       1.0  0.06066  0.46433  0.32200  1.0000
  H   H53       1.0  0.21701  0.62648  0.02851  1.0000
  H   H54       1.0  0.01169  0.44691  0.27753  1.0000
  H   H55       1.0  0.21446  0.61047  0.10564  1.0000
  C   C38       1.0  0.00717  0.39173  0.32652  1.0000
  H   H56       1.0  0.20940  0.65072  0.08849  1.0000
  C   C39       1.0  0.24623  0.52609  0.17494  1.0000
  C   C40       1.0  0.01801  0.47518  0.30269  1.0000
  H   H57       1.0  0.23638  0.63632  0.09888  1.0000
  H   H58       1.0  0.23957  0.63188  0.06163  1.0000
  H   H59       1.0  0.03035  0.47598  0.30925  1.0000
  H   H60       1.0  0.01863  0.47675  0.27845  1.0000
  H   H61       1.0  0.23636  0.65065  0.06963  1.0000
  C   C41       1.0  0.18062  0.50059  0.00417  1.0000
  H   H62       1.0  0.01386  0.57676  0.33329  1.0000
  H   H63       1.0  0.01297  0.51979  0.42457  1.0000
  H   H64       1.0  0.03060  0.57421  0.57287  1.0000
  Fe  Fe7       1.0  0.10288  0.59340  0.64621  1.0000
  S   S16       1.0  0.10677  0.58646  0.59976  1.0000
  Fe  Fe8       1.0  0.06561  0.59100  0.38842  1.0000
  S   S17       1.0  0.06656  0.57959  0.43271  1.0000
  S   S18       1.0  0.04256  0.58612  0.36400  1.0000
  Fe  Fe9       1.0  0.10274  0.60715  0.38002  1.0000
  S   S19       1.0  0.10611  0.59640  0.42392  1.0000
  Fe  Fe10      1.0  0.08759  0.57377  0.41203  1.0000
  S   S20       1.0  0.09079  0.54989  0.42395  1.0000
  Fe  Fe11      1.0  0.08505  0.60325  0.44118  1.0000
  S   S21       1.0  0.08640  0.61584  0.48388  1.0000
  S   S22       1.0  0.08575  0.58357  0.36688  1.0000
  S   S23       1.0  0.08249  0.61555  0.39818  1.0000
  H   H65       1.0  0.09732  0.61533  0.58804  1.0000
  Fe  Fe12      1.0  0.07655  0.46927  0.61037  1.0000
  S   S24       1.0  0.08461  0.47944  0.56359  1.0000
  S   S25       1.0  0.05050  0.46233  0.62619  1.0000
  N   N5        1.0  0.11686  0.51947  0.37494  1.0000
  S   S26       1.0  0.07465  0.44055  0.36255  1.0000
  H   H66       1.0  0.14225  0.52643  0.36279  1.0000
  Fe  Fe13      1.0  0.05419  0.47340  0.36399  1.0000
  S   S27       1.0  0.07810  0.47665  0.38272  1.0000
  S   S28       1.0  0.04276  0.49288  0.36194  1.0000
  H   H67       1.0  0.03379  0.56167  0.62140  1.0000
  Fe  Fe14      1.0  0.06676  0.45138  0.40206  1.0000
  S   S29       1.0  0.06671  0.44065  0.44823  1.0000
  C   C42       1.0  0.12892  0.63265  0.47399  1.0000
  S   S30       1.0  0.04218  0.44914  0.38654  1.0000
  C   C43       1.0  0.07878  0.46854  0.53186  1.0000
  C   C44       1.0  0.08187  0.47693  0.50425  1.0000
  C   C45       1.0  0.07792  0.46865  0.47849  1.0000
  C   C46       1.0  0.07107  0.45181  0.48005  1.0000
  C   C47       1.0  0.06791  0.44343  0.50766  1.0000
  C   C48       1.0  0.07162  0.45173  0.53343  1.0000
  H   H68       1.0  0.08740  0.48992  0.50277  1.0000
  H   H69       1.0  0.08042  0.47527  0.45745  1.0000
  H   H70       1.0  0.06267  0.43041  0.50916  1.0000
  H   H71       1.0  0.06922  0.44510  0.55447  1.0000
  H   H72       1.0  0.00969  0.40008  0.63155  1.0000
  N   N6        1.0  0.09611  0.53570  0.61595  1.0000
  H   H73       1.0  0.03835  0.53874  0.37807  1.0000
  H   H74       1.0  0.00161  0.46818  0.35529  1.0000
  H   H75       1.0  0.02957  0.59204  0.58983  1.0000
  H   H76       1.0  0.06704  0.58359  0.56756  1.0000
  H   H77       1.0  0.09728  0.54984  0.57593  1.0000
  H   H78       1.0  0.05402  0.56414  0.58150  1.0000
  S   S31       1.0  0.09934  0.61559  0.66432  1.0000
  H   H79       1.0  0.12210  0.61994  0.46961  1.0000
  H   H80       1.0  0.01730  0.41726  0.41405  1.0000
  C   C49       1.0  0.07671  0.53425  0.40753  1.0000
  C   C50       1.0  0.07093  0.53719  0.38067  1.0000
  C   C51       1.0  0.06041  0.52444  0.36672  1.0000
  C   C52       1.0  0.05545  0.50881  0.37989  1.0000
  C   C53       1.0  0.06111  0.50585  0.40688  1.0000
  C   C54       1.0  0.07181  0.51857  0.42065  1.0000
  H   H81       1.0  0.07488  0.54919  0.37021  1.0000
  H   H82       1.0  0.11500  0.49431  0.37594  1.0000
  H   H83       1.0  0.05728  0.49375  0.41713  1.0000
  H   H84       1.0  0.07628  0.51625  0.44144  1.0000
  C   C55       1.0  0.04177  0.40553  0.40317  1.0000
  N   N7        1.0  0.13258  0.64326  0.44689  1.0000
  N   N8        1.0  0.01305  0.52530  0.37847  1.0000
  C   C56       1.0  0.10146  0.59514  0.56775  1.0000
  C   C57       1.0  0.10129  0.58744  0.54146  1.0000
  C   C58       1.0  0.09659  0.59359  0.51571  1.0000
  C   C59       1.0  0.09212  0.60759  0.51595  1.0000
  C   C60       1.0  0.09244  0.61539  0.54218  1.0000
  C   C61       1.0  0.09706  0.60920  0.56800  1.0000
  H   H85       1.0  0.10473  0.57661  0.54097  1.0000
  H   H86       1.0  0.09643  0.58747  0.49567  1.0000
  H   H87       1.0  0.08912  0.62631  0.54252  1.0000
  H   H88       1.0  0.08485  0.51352  0.59541  1.0000
  H   H89       1.0  0.14513  0.64493  0.40484  1.0000
  C   C62       1.0  0.00350  0.41262  0.35615  1.0000
  H   H90       1.0  0.10894  0.52854  0.41354  1.0000
  C   C63       1.0  0.10493  0.54438  0.58882  1.0000
  C   C64       1.0  0.05902  0.60037  0.61073  1.0000
  H   H91       1.0  0.08428  0.54091  0.65444  1.0000
  C   C65       1.0  0.02248  0.41322  0.43349  1.0000
  H   H92       1.0  0.04437  0.59370  0.56040  1.0000
  H   H93       1.0  0.04077  0.38513  0.44898  1.0000
  C   C66       1.0  0.06063  0.57655  0.58776  1.0000
  C   C67       1.0  0.04066  0.57410  0.62721  1.0000
  H   H94       1.0  0.07345  0.52736  0.59571  1.0000
  C   C68       1.0  0.01433  0.51762  0.35083  1.0000
  S   S32       1.0  0.08500  0.48736  0.64438  1.0000
  C   C69       1.0  0.01022  0.57416  0.35628  1.0000
  N   N9        1.0  0.04959  0.58428  0.60147  1.0000
  C   C70       1.0  0.03801  0.58613  0.58018  1.0000
  H   H95       1.0  0.05113  0.60632  0.62216  1.0000
  Fe  Fe15      1.0  0.05047  0.44000  0.34624  1.0000
  H   H96       1.0  0.02540  0.51150  0.40217  1.0000
  H   H97       1.0  0.07000  0.57566  0.60280  1.0000
  H   H98       1.0  0.03720  0.40966  0.38313  1.0000
  C   C71       1.0  0.02199  0.57789  0.37697  1.0000
  C   C72       1.0  0.00049  0.56770  0.41546  1.0000
  H   H99       1.0  0.02631  0.39073  0.47159  1.0000
  H   H100      1.0  0.02010  0.37578  0.41228  1.0000
  C   C73       1.0  0.02643  0.54067  0.37892  1.0000
  C   C74       1.0  0.01386  0.51434  0.40336  1.0000
  H   H101      1.0  0.10645  0.50032  0.40800  1.0000
  N   N10       1.0  0.02890  0.39994  0.42682  1.0000
  H   H102      1.0  0.00386  0.50264  0.40375  1.0000
  H   H103      1.0  0.04560  0.40535  0.46081  1.0000
  H   H104      1.0  0.03184  0.57935  0.63741  1.0000
  S   S33       1.0  0.08160  0.44974  0.63815  1.0000
  C   C75       1.0  0.01573  0.38607  0.41739  1.0000
  H   H105      1.0  0.04672  0.39576  0.39712  1.0000
  H   H106      1.0  0.06816  0.59949  0.62629  1.0000
  C   C76       1.0  0.10674  0.52879  0.63249  1.0000
  H   H107      1.0  0.14010  0.63256  0.48453  1.0000
  H   H108      1.0  0.11034  0.63046  0.42874  1.0000
  S   S34       1.0  0.03818  0.41844  0.65980  1.0000
  H   H109      1.0  0.04894  0.57306  0.64438  1.0000
  H   H110      1.0  0.15424  0.63775  0.43469  1.0000
  C   C77       1.0  0.00540  0.45834  0.34573  1.0000
  C   C78       1.0  0.11734  0.64291  0.43388  1.0000
  H   H111      1.0  0.10887  0.53614  0.57463  1.0000
  H   H112      1.0  0.12797  0.50577  0.40195  1.0000
  H   H113      1.0  0.03214  0.42392  0.44057  1.0000
  H   H114      1.0  0.13040  0.53500  0.40642  1.0000
  H   H115      1.0  0.05638  0.52670  0.34551  1.0000
  H   H116      1.0  0.00821  0.42443  0.36462  1.0000
  C   C79       1.0  0.03566  0.39502  0.45323  1.0000
  C   C80       1.0  0.10159  0.51693  0.36036  1.0000
  H   H117      1.0  0.02563  0.54695  0.39919  1.0000
  C   C81       1.0  0.01708  0.57457  0.40670  1.0000
  H   H118      1.0  0.02603  0.57746  0.42286  1.0000
  H   H119      1.0  0.10940  0.64707  0.44909  1.0000
  H   H120      1.0  0.08347  0.55287  0.62211  1.0000
  H   H121      1.0  0.07445  0.51604  0.62864  1.0000
  S   S35       1.0  0.12724  0.62304  0.35854  1.0000
  C   C82       1.0  0.11657  0.50431  0.39091  1.0000
  H   H122      1.0  0.09102  0.51266  0.37630  1.0000
  Fe  Fe16      1.0  0.08429  0.46600  0.34143  1.0000
  C   C83       1.0  0.00571  0.40509  0.65047  1.0000
  C   C84       1.0  0.09120  0.54710  0.63404  1.0000
  C   C85       1.0  0.08160  0.52259  0.60859  1.0000
  C   C86       1.0  0.11873  0.53225  0.39581  1.0000
  H   H123      1.0  0.11954  0.65053  0.41307  1.0000
  H   H124      1.0  0.11044  0.51983  0.61980  1.0000
  Fe  Fe17      1.0  0.05575  0.44399  0.65622  1.0000
  H   H125      1.0  0.05202  0.41583  0.40966  1.0000
  H   H126      1.0  0.11812  0.54368  0.38500  1.0000
  H   H127      1.0  0.11585  0.55449  0.59364  1.0000
  H   H128      1.0  0.01052  0.38938  0.39728  1.0000
  H   H129      1.0  0.01744  0.45927  0.35384  1.0000
  H   H130      1.0  0.15304  0.66071  0.46366  1.0000
  H   H131      1.0  0.10187  0.55698  0.64052  1.0000
  H   H132      1.0  0.09994  0.50768  0.34383  1.0000
  H   H133      1.0  0.01278  0.40945  0.45133  1.0000
  H   H134      1.0  0.12124  0.63654  0.49019  1.0000
  H   H135      1.0  0.02649  0.54909  0.35999  1.0000
  H   H136      1.0  0.06556  0.60855  0.59181  1.0000
  C   C87       1.0  0.14252  0.63748  0.42589  1.0000
  H   H137      1.0  0.00566  0.38162  0.43450  1.0000
  C   C88       1.0  0.14148  0.65999  0.45374  1.0000
  H   H138      1.0  0.13620  0.62483  0.42043  1.0000
  C   C89       1.0  0.01340  0.40709  0.33716  1.0000
  H   H139      1.0  0.11790  0.53835  0.63802  1.0000
  H   H140      1.0  0.01983  0.46855  0.64898  1.0000
  H   H141      1.0  0.10054  0.52251  0.65345  1.0000
  H   H142      1.0  0.02601  0.51519  0.34818  1.0000
  H   H143      1.0  0.10108  0.52826  0.34907  1.0000
  Fe  Fe18      1.0  0.05927  0.47876  0.66205  1.0000
  H   H144      1.0  0.13423  0.66469  0.46944  1.0000
  H   H145      1.0  0.00448  0.50588  0.35012  1.0000
  H   H146      1.0  0.00824  0.44790  0.65938  1.0000
  H   H147      1.0  0.01106  0.49087  0.66673  1.0000
  C   C90       1.0  0.13050  0.52434  0.35268  1.0000
  H   H148      1.0  0.13094  0.53564  0.34003  1.0000
  H   H149      1.0  0.12936  0.51478  0.33686  1.0000
  C   C91       1.0  0.01201  0.46043  0.66688  1.0000
  Fe  Fe19      1.0  0.07787  0.59811  0.69034  1.0000
  H   H150      1.0  0.02015  0.59718  0.67607  1.0000
  Fe  Fe20      1.0  0.11389  0.61173  0.70220  1.0000
  S   S36       1.0  0.13593  0.63079  0.71869  1.0000
  S   S37       1.0  0.08086  0.57633  0.67027  1.0000
  H   H151      1.0  0.21916  0.51509  0.90525  1.0000
  H   H152      1.0  0.22979  0.49181  0.90470  1.0000
  S   S38       1.0  0.09201  0.59624  0.72965  1.0000
  H   H153      1.0  0.06884  0.40793  0.69512  1.0000
  H   H154      1.0  0.21166  0.47951  0.92449  1.0000
  H   H155      1.0  0.21255  0.52109  0.93929  1.0000
  H   H156      1.0  0.22890  0.53586  0.77738  1.0000
  H   H157      1.0  0.18853  0.60358  0.94311  1.0000
  S   S39       1.0  0.05322  0.60123  0.68637  1.0000
  S   S40       1.0  0.11201  0.47221  0.69693  1.0000
  S   S41       1.0  0.06254  0.46002  0.69385  1.0000
  Fe  Fe21      1.0  0.16731  0.50980  0.83644  1.0000
  S   S42       1.0  0.19098  0.52050  0.81017  1.0000
  S   S43       1.0  0.14230  0.49793  0.81810  1.0000
  Fe  Fe22      1.0  0.18225  0.52538  0.89314  1.0000
  S   S44       1.0  0.20648  0.53759  0.86991  1.0000
  S   S45       1.0  0.18036  0.53395  0.93899  1.0000
  Fe  Fe23      1.0  0.19281  0.54309  0.83315  1.0000
  S   S46       1.0  0.19870  0.56711  0.80821  1.0000
  Fe  Fe24      1.0  0.20292  0.51408  0.84953  1.0000
  S   S47       1.0  0.22418  0.50419  0.84740  1.0000
  S   S48       1.0  0.16883  0.53304  0.85760  1.0000
  S   S49       1.0  0.17903  0.50118  0.87456  1.0000
  S   S50       1.0  0.22876  0.62679  0.88409  1.0000
  S   S51       1.0  0.18870  0.63296  0.90433  1.0000
  C   C92       1.0  0.20700  0.58371  0.82932  1.0000
  C   C93       1.0  0.21670  0.58252  0.85214  1.0000
  C   C94       1.0  0.22375  0.59598  0.86820  1.0000
  C   C95       1.0  0.22059  0.61050  0.86235  1.0000
  C   C96       1.0  0.21065  0.61165  0.83988  1.0000
  C   C97       1.0  0.20409  0.59833  0.82305  1.0000
  H   H158      1.0  0.21913  0.57138  0.85703  1.0000
  H   H159      1.0  0.23146  0.59509  0.88554  1.0000
  H   H160      1.0  0.20817  0.62285  0.83526  1.0000
  H   H161      1.0  0.19660  0.59934  0.80540  1.0000
  C   C98       1.0  0.12013  0.48018  0.73040  1.0000
  C   C99       1.0  0.13698  0.48486  0.73297  1.0000
  C   C100      1.0  0.14400  0.49055  0.75927  1.0000
  C   C101      1.0  0.13425  0.49131  0.78382  1.0000
  C   C102      1.0  0.11738  0.48660  0.78128  1.0000
  C   C103      1.0  0.11039  0.48128  0.75475  1.0000
  H   H162      1.0  0.14470  0.48401  0.71445  1.0000
  H   H163      1.0  0.15695  0.49401  0.76070  1.0000
  H   H164      1.0  0.10964  0.48708  0.80003  1.0000
  H   H165      1.0  0.09743  0.47776  0.75339  1.0000
  Fe  Fe25      1.0  0.18301  0.64954  0.87098  1.0000
  H   H166      1.0  0.23160  0.53691  0.81569  1.0000
  C   C104      1.0  0.17789  0.59236  0.94531  1.0000
  H   H167      1.0  0.24598  0.51757  0.92325  1.0000
  H   H168      1.0  0.09896  0.41837  0.68740  1.0000
  H   H169      1.0  0.24062  0.53660  0.86695  1.0000
  C   C105      1.0  0.00573  0.56171  0.71746  1.0000
  Fe  Fe26      1.0  0.08809  0.46752  0.67385  1.0000
  H   H170      1.0  0.11056  0.43319  0.71093  1.0000
  C   C106      1.0  0.14257  0.63176  0.75496  1.0000
  C   C107      1.0  0.13197  0.62490  0.77921  1.0000
  C   C108      1.0  0.13736  0.62714  0.80773  1.0000
  H   H171      1.0  0.11948  0.61829  0.77602  1.0000
  H   H172      1.0  0.12888  0.62218  0.82626  1.0000
  H   H173      1.0  0.08460  0.44810  0.72652  1.0000
  H   H174      1.0  0.07625  0.40654  0.75958  1.0000
  H   H175      1.0  0.09801  0.43856  0.68554  1.0000
  C   C109      1.0  0.15874  0.64047  0.75969  1.0000
  H   H176      1.0  0.04660  0.57129  0.72292  1.0000
  C   C110      1.0  0.15349  0.63591  0.81250  1.0000
  N   N11       1.0  0.22332  0.50212  0.94321  1.0000
  C   C111      1.0  0.03517  0.58566  0.69826  1.0000
  C   C112      1.0  0.16478  0.56622  0.92689  1.0000
  H   H177      1.0  0.15321  0.56890  0.92532  1.0000
  C   C113      1.0  0.00571  0.57478  0.69880  1.0000
  C   C114      1.0  0.06968  0.41847  0.70847  1.0000
  C   C115      1.0  0.05965  0.51123  0.69287  1.0000
  C   C116      1.0  0.06809  0.53842  0.70958  1.0000
  H   H178      1.0  0.02070  0.55063  0.74089  1.0000
  H   H179      1.0  0.20331  0.48799  0.97200  1.0000
  Fe  Fe27      1.0  0.19416  0.65313  0.93488  1.0000
  H   H180      1.0  0.19406  0.57067  0.94674  1.0000
  H   H181      1.0  0.24385  0.55905  0.74325  1.0000
  N   N12       1.0  0.13485  0.54260  0.77410  1.0000
  C   C117      1.0  0.12094  0.52776  0.77245  1.0000
  C   C118      1.0  0.14800  0.53851  0.78837  1.0000
  C   C119      1.0  0.12982  0.55431  0.79123  1.0000
  C   C120      1.0  0.14061  0.54979  0.74431  1.0000
  H   H182      1.0  0.11042  0.53054  0.76353  1.0000
  H   H183      1.0  0.11692  0.52143  0.79438  1.0000
  H   H184      1.0  0.12400  0.51906  0.75814  1.0000
  H   H185      1.0  0.15882  0.54936  0.78985  1.0000
  H   H186      1.0  0.14405  0.53308  0.81094  1.0000
  H   H187      1.0  0.15187  0.52946  0.77625  1.0000
  H   H188      1.0  0.14003  0.56565  0.79307  1.0000
  H   H189      1.0  0.12519  0.54921  0.81372  1.0000
  H   H190      1.0  0.11998  0.55774  0.78079  1.0000
  H   H191      1.0  0.14452  0.54129  0.73075  1.0000
  H   H192      1.0  0.15102  0.56110  0.74476  1.0000
  H   H193      1.0  0.13092  0.55294  0.73292  1.0000
  N   N13       1.0  0.08508  0.42383  0.72306  1.0000
  C   C121      1.0  0.23143  0.54426  0.79541  1.0000
  H   H194      1.0  0.09710  0.44231  0.75146  1.0000
  C   C122      1.0  0.08553  0.43778  0.74050  1.0000
  C   C123      1.0  0.09874  0.42862  0.70080  1.0000
  C   C124      1.0  0.22397  0.48804  0.92708  1.0000
  H   H195      1.0  0.16692  0.59614  0.94367  1.0000
  H   H196      1.0  0.20474  0.58788  0.92250  1.0000
  H   H197      1.0  0.19509  0.56857  0.90817  1.0000
  C   C125      1.0  0.24458  0.51461  0.85472  1.0000
  C   C126      1.0  0.19387  0.57690  0.92515  1.0000
  H   H198      1.0  0.18448  0.54591  0.99626  1.0000
  H   H199      1.0  0.21478  0.50688  0.98551  1.0000
  H   H200      1.0  0.17748  0.58676  0.96768  1.0000
  H   H201      1.0  0.22107  0.54899  0.79812  1.0000
  H   H202      1.0  0.07543  0.43468  0.75759  1.0000
  H   H203      1.0  0.16781  0.59224  0.89072  1.0000
  H   H204      1.0  0.17751  0.50051  0.95764  1.0000
  Fe  Fe28      1.0  0.21432  0.64392  0.88725  1.0000
  H   H205      1.0  0.16520  0.55745  0.91022  1.0000
  C   C127      1.0  0.21365  0.51057  0.92752  1.0000
  H   H206      1.0  0.20119  0.50239  0.92497  1.0000
  S   S52       1.0  0.18457  0.64404  0.98163  1.0000
  C   C128      1.0  0.17974  0.50776  0.97643  1.0000
  C   C129      1.0  0.08639  0.41044  0.74251  1.0000
  C   C130      1.0  0.08268  0.53655  0.71759  1.0000
  H   H207      1.0  0.23101  0.48123  0.93841  1.0000
  C   C131      1.0  0.08544  0.52180  0.71439  1.0000
  H   H208      1.0  0.16706  0.64581  0.74111  1.0000
  C   C132      1.0  0.16425  0.64233  0.78822  1.0000
  H   H209      1.0  0.09668  0.52027  0.72050  1.0000
  C   C133      1.0  0.05656  0.52575  0.69715  1.0000
  H   H210      1.0  0.07617  0.49781  0.69958  1.0000
  C   C134      1.0  0.24590  0.56683  0.76220  1.0000
  N   N14       1.0  0.17886  0.58109  0.92272  1.0000
  S   S53       1.0  0.15903  0.63964  0.84912  1.0000
  H   H211      1.0  0.17672  0.64899  0.79134  1.0000
  H   H212      1.0  0.04543  0.52732  0.69039  1.0000
  C   C135      1.0  0.03526  0.57229  0.71602  1.0000
  S   S54       1.0  0.20856  0.65922  0.85140  1.0000
  Fe  Fe29      1.0  0.09675  0.57583  0.70693  1.0000
  S   S55       1.0  0.04635  0.49614  0.67405  1.0000
  H   H213      1.0  0.01972  0.46076  0.68566  1.0000
  H   H214      1.0  0.06571  0.54965  0.71286  1.0000
  H   H215      1.0  0.17991  0.58083  0.87581  1.0000
  C   C136      1.0  0.18126  0.52418  0.97333  1.0000
  H   H216      1.0  0.23576  0.57197  0.76403  1.0000
  C   C137      1.0  0.23988  0.51331  0.94529  1.0000
  H   H217      1.0  0.18938  0.60018  0.88979  1.0000
  S   S56       1.0  0.11916  0.59095  0.68142  1.0000
  C   C138      1.0  0.02057  0.56054  0.72605  1.0000
  C   C139      1.0  0.21576  0.49659  0.97286  1.0000
  C   C140      1.0  0.17895  0.58888  0.89347  1.0000
  H   H218      1.0  0.09788  0.41410  0.75385  1.0000
  C   C141      1.0  0.07392  0.50914  0.70209  1.0000
  S   S57       1.0  0.09808  0.55294  0.72911  1.0000
  H   H219      1.0  0.16444  0.55990  0.94863  1.0000
  H   H220      1.0  0.02068  0.42865  0.70621  1.0000
  N   N15       1.0  0.24679  0.55756  0.78942  1.0000
  H   H221      1.0  0.01106  0.48329  0.70353  1.0000
  H   H222      1.0  0.08609  0.39970  0.73006  1.0000
  C   C142      1.0  0.01195  0.42125  0.69238  1.0000
  H   H223      1.0  0.22278  0.49031  0.98557  1.0000
  C   C143      1.0  0.02034  0.58682  0.68965  1.0000
  H   H224      1.0  0.05903  0.41495  0.72444  1.0000
  H   H225      1.0  0.23969  0.57392  0.81643  1.0000
  S   S58       1.0  0.22038  0.66321  0.91968  1.0000
  C   C144      1.0  0.00350  0.48231  0.68437  1.0000
  H   H226      1.0  0.06835  0.42819  0.69338  1.0000
  H   H227      1.0  0.23981  0.52418  0.95702  1.0000
  C   C145      1.0  0.18345  0.53324  0.99829  1.0000
  H   H228      1.0  0.24751  0.50736  0.95713  1.0000
  N   N16       1.0  0.99791  0.46557  0.67492  1.0000
  C   C146      1.0  0.01726  0.41516  0.66761  1.0000
  H   H229      1.0  0.20738  0.69265  0.03664  1.0000
  C   C147      1.0  0.19739  0.67168  0.01190  1.0000
  C   C148      1.0  0.19968  0.68019  0.03763  1.0000
  N   N17       1.0  0.21242  0.72866  0.13333  1.0000
  H   H230      1.0  0.21921  0.70730  0.12841  1.0000
  Fe  Fe30      1.0  0.19493  0.67168  0.14151  1.0000
  Fe  Fe31      1.0  0.21372  0.68166  0.19561  1.0000
  H   H231      1.0  0.21895  0.71834  0.09484  1.0000
  H   H232      1.0  0.20843  0.73517  0.17710  1.0000
  S   S59       1.0  0.18982  0.68330  0.18211  1.0000
  H   H233      1.0  0.19216  0.72020  0.10656  1.0000
  S   S60       1.0  0.23196  0.70297  0.21528  1.0000
  C   C149      1.0  0.19503  0.72058  0.12997  1.0000
  C   C150      1.0  0.21568  0.72894  0.16468  1.0000
  S   S61       1.0  0.19532  0.68368  0.09641  1.0000
  H   H234      1.0  0.18741  0.72674  0.14156  1.0000
  H   H235      1.0  0.19114  0.70781  0.13878  1.0000
  H   H236      1.0  0.21276  0.71652  0.17501  1.0000
  H   H237      1.0  0.22865  0.73526  0.16802  1.0000
  H   H238      1.0  0.23506  0.72593  0.11876  1.0000
  C   C151      1.0  0.22187  0.71972  0.11814  1.0000
  H   H239      1.0  0.21500  0.74562  0.09671  1.0000
  C   C152      1.0  0.21715  0.74540  0.12042  1.0000
  H   H240      1.0  0.21015  0.75244  0.13128  1.0000
  S   S62       1.0  0.21926  0.67127  0.15430  1.0000
  C   C153      1.0  0.19218  0.67263  0.06454  1.0000
  H   H241      1.0  0.23020  0.75188  0.12280  1.0000
  H   H242      1.0  0.24456  0.70804  0.15425  1.0000
  H   H243      1.0  0.14439  0.66827  0.43369  1.0000
  S   S63       1.0  0.22305  0.70503  0.87416  1.0000
  Fe  Fe32      1.0  0.21245  0.67785  0.88541  1.0000
  H   H244      1.0  0.20336  0.67756  0.99136  1.0000
  C   C154      1.0  0.18652  0.68270  0.82216  1.0000
  C   C155      1.0  0.17974  0.70719  0.81531  1.0000
  H   H245      1.0  0.19217  0.68409  0.79961  1.0000
  N   N18       1.0  0.17326  0.68975  0.82403  1.0000
  H   H246      1.0  0.18205  0.66957  0.82858  1.0000
  H   H247      1.0  0.16564  0.68219  0.78148  1.0000
  H   H248      1.0  0.15603  0.69251  0.85662  1.0000
  H   H249      1.0  0.15072  0.68697  0.80435  1.0000
  C   C156      1.0  0.16064  0.68157  0.80438  1.0000
  H   H250      1.0  0.15506  0.66853  0.81134  1.0000
  H   H251      1.0  0.17539  0.69361  0.86981  1.0000
  H   H252      1.0  0.18504  0.70926  0.79243  1.0000
  C   C157      1.0  0.16622  0.68752  0.85438  1.0000
  H   H253      1.0  0.17015  0.71303  0.81687  1.0000
  H   H254      1.0  0.19623  0.68852  0.83688  1.0000
  H   H255      1.0  0.16142  0.67445  0.86173  1.0000
  H   H256      1.0  0.18948  0.71357  0.82959  1.0000
  S   S64       1.0  0.18635  0.66904  0.90301  1.0000
  H   H257      1.0  0.23996  0.73928  0.86967  1.0000
  C   C158      1.0  0.24403  0.71622  0.87326  1.0000
  S   S65       1.0  0.48263  0.03963  0.32566  1.0000
  C   C159      1.0  0.49488  0.09849  0.23073  1.0000
  H   H258      1.0  0.48472  0.07801  0.26199  1.0000
  H   H259      1.0  0.48903  0.09206  0.21256  1.0000
  H   H260      1.0  0.49404  0.32660  0.27719  1.0000
  S   S66       1.0  0.49668  0.08944  0.31904  1.0000
  H   H261      1.0  0.49109  0.09316  0.07653  1.0000
  C   C160      1.0  0.49239  0.09046  0.25882  1.0000
  H   H262      1.0  0.48193  0.11129  0.10841  1.0000
  H   H263      1.0  0.43544  0.32822  0.30714  1.0000
  H   H264      1.0  0.49190  0.10548  0.13845  1.0000
  C   C161      1.0  0.49364  0.11400  0.11889  1.0000
  H   H265      1.0  0.49647  0.12630  0.12724  1.0000
  H   H266      1.0  0.49763  0.12227  0.06107  1.0000
  S   S67       1.0  0.47564  0.05896  0.63549  1.0000
  C   C162      1.0  0.42551  0.04691  0.43112  1.0000
  H   H267      1.0  0.40715  0.02034  0.46268  1.0000
  Fe  Fe33      1.0  0.49457  0.03635  0.36671  1.0000
  C   C163      1.0  0.49386  0.05422  0.53390  1.0000
  Fe  Fe34      1.0  0.47371  0.04956  0.40601  1.0000
  S   S68       1.0  0.47182  0.02441  0.39426  1.0000
  S   S69       1.0  0.46484  0.05293  0.45195  1.0000
  H   H268      1.0  0.39468  0.02776  0.43951  1.0000
  C   C164      1.0  0.40398  0.02153  0.43965  1.0000
  S   S70       1.0  0.48785  0.02675  0.63473  1.0000
  Fe  Fe35      1.0  0.45972  0.02965  0.35489  1.0000
  S   S71       1.0  0.46040  0.05457  0.36774  1.0000
  C   C165      1.0  0.49251  0.05402  0.48067  1.0000
  H   H269      1.0  0.42439  0.03842  0.37539  1.0000
  H   H270      1.0  0.40471  0.03826  0.38861  1.0000
  C   C166      1.0  0.47624  0.05314  0.48315  1.0000
  C   C167      1.0  0.46883  0.05270  0.51114  1.0000
  C   C168      1.0  0.47754  0.05314  0.53640  1.0000
  H   H271      1.0  0.39836  0.00913  0.43227  1.0000
  H   H272      1.0  0.40854  0.01964  0.38161  1.0000
  H   H273      1.0  0.45628  0.05207  0.51333  1.0000
  H   H274      1.0  0.47169  0.05284  0.55776  1.0000
  C   C169      1.0  0.41375  0.03178  0.39033  1.0000
  Fe  Fe36      1.0  0.48434  0.06415  0.34167  1.0000
  N   N19       1.0  0.41840  0.03053  0.42069  1.0000
  Fe  Fe37      1.0  0.49548  0.05175  0.61254  1.0000
  H   H275      1.0  0.45729  0.00231  0.62707  1.0000
  H   H276      1.0  0.41688  0.05389  0.43066  1.0000
  S   S72       1.0  0.43479  0.01297  0.34545  1.0000
  H   H277      1.0  0.43653  0.05397  0.41743  1.0000
  H   H278      1.0  0.44132  0.02832  0.40749  1.0000
  H   H279      1.0  0.42558  0.00949  0.41366  1.0000
  H   H280      1.0  0.42934  0.04642  0.45388  1.0000
  C   C170      1.0  0.43039  0.02186  0.42167  1.0000
  H   H281      1.0  0.43449  0.02092  0.44411  1.0000
  Fe  Fe38      1.0  0.46915  0.03441  0.65962  1.0000
  S   S73       1.0  0.49756  0.06119  0.38146  1.0000
  H   H282      1.0  0.43081  0.06464  0.75094  1.0000
  S   S74       1.0  0.48470  0.04404  0.69670  1.0000
  H   H283      1.0  0.47949  0.32714  0.88955  1.0000
  H   H284      1.0  0.46052  0.09446  0.69816  1.0000
  H   H285      1.0  0.46723  0.08293  0.74320  1.0000
  S   S75       1.0  0.44407  0.01716  0.67312  1.0000
  C   C171      1.0  0.45499  0.08208  0.69058  1.0000
  H   H286      1.0  0.46422  0.30854  0.90174  1.0000
  H   H287      1.0  0.43991  0.08579  0.74063  1.0000
  H   H288      1.0  0.43284  0.05261  0.68941  1.0000
  H   H289      1.0  0.46455  0.07939  0.67695  1.0000
  N   N20       1.0  0.44888  0.06998  0.71540  1.0000
  H   H290      1.0  0.46967  0.29081  0.94124  1.0000
  H   H291      1.0  0.45798  0.06181  0.75390  1.0000
  H   H292      1.0  0.48859  0.29712  0.95818  1.0000
  C   C172      1.0  0.46210  0.07068  0.73480  1.0000
  H   H293      1.0  0.42545  0.07307  0.71805  1.0000
  H   H294      1.0  0.43822  0.04411  0.72223  1.0000
  H   H295      1.0  0.48397  0.29423  0.89199  1.0000
  C   C173      1.0  0.43566  0.07352  0.73200  1.0000
  H   H296      1.0  0.48605  0.00781  0.70301  1.0000
  H   H297      1.0  0.45248  0.05065  0.69152  1.0000
  C   C174      1.0  0.49348  0.30456  0.90037  1.0000
  H   H298      1.0  0.47224  0.06800  0.72303  1.0000
  C   C175      1.0  0.44280  0.05366  0.70423  1.0000
  H   H299      1.0  0.44525  0.08234  0.67600  1.0000
  H   H300      1.0  0.47414  0.30746  0.96471  1.0000
  H   H301      1.0  0.46906  0.32533  0.92483  1.0000
  C   C176      1.0  0.47430  0.31874  0.90907  1.0000
  N   N21       1.0  0.48671  0.31293  0.92227  1.0000
  C   C177      1.0  0.47940  0.30159  0.94770  1.0000
  Fe  Fe39      1.0  0.49309  0.06797  0.67097  1.0000
  S   S76       1.0  0.49725  0.09285  0.69013  1.0000
  H   H302      1.0  0.49006  0.32920  0.78486  1.0000
  Fe  Fe40      1.0  0.44309  0.63863  0.18945  1.0000
  S   S77       1.0  0.46804  0.63751  0.17983  1.0000
  S   S78       1.0  0.42286  0.61931  0.17022  1.0000
  Fe  Fe41      1.0  0.47439  0.64926  0.22233  1.0000
  H   H303      1.0  0.30330  0.50058  0.08281  1.0000
  H   H304      1.0  0.40505  0.42967  0.23932  1.0000
  H   H305      1.0  0.37840  0.56747  0.26181  1.0000
  S   S79       1.0  0.44867  0.64848  0.23378  1.0000
  H   H306      1.0  0.37981  0.55386  0.21576  1.0000
  Fe  Fe42      1.0  0.34847  0.51475  0.18655  1.0000
  S   S80       1.0  0.33185  0.52382  0.21441  1.0000
  S   S81       1.0  0.36549  0.50190  0.20433  1.0000
  Fe  Fe43      1.0  0.34303  0.53334  0.13071  1.0000
  S   S82       1.0  0.32673  0.54423  0.15575  1.0000
  S   S83       1.0  0.34847  0.54248  0.08282  1.0000
  Fe  Fe44      1.0  0.34468  0.54792  0.19058  1.0000
  S   S84       1.0  0.35491  0.56992  0.21698  1.0000
  Fe  Fe45      1.0  0.31549  0.51925  0.17676  1.0000
  S   S85       1.0  0.28849  0.50533  0.17727  1.0000
  S   S86       1.0  0.36181  0.53903  0.16405  1.0000
  S   S87       1.0  0.33125  0.50812  0.15034  1.0000
  H   H307      1.0  0.42266  0.62105  0.02779  1.0000
  H   H308      1.0  0.29274  0.53040  0.12812  1.0000
  C   C178      1.0  0.34194  0.53960  0.02519  1.0000
  C   C179      1.0  0.34217  0.53124  0.05191  1.0000
  C   C180      1.0  0.33761  0.51436  0.05313  1.0000
  C   C181      1.0  0.33299  0.50598  0.02777  1.0000
  S   S88       1.0  0.49510  0.34716  0.32512  1.0000
  H   H309      1.0  0.34534  0.55265  0.02411  1.0000
  H   H310      1.0  0.33793  0.50778  0.07349  1.0000
  H   H311      1.0  0.45662  0.35864  0.27201  1.0000
  H   H312      1.0  0.29999  0.50540  0.11957  1.0000
  H   H313      1.0  0.37767  0.64508  0.21953  1.0000
  C   C182      1.0  0.25706  0.50386  0.16961  1.0000
  C   C183      1.0  0.27247  0.51368  0.17650  1.0000
  C   C184      1.0  0.27473  0.52978  0.18236  1.0000
  C   C185      1.0  0.38351  0.44576  0.24531  1.0000
  H   H314      1.0  0.25519  0.49137  0.16510  1.0000
  H   H315      1.0  0.28648  0.53746  0.18785  1.0000
  H   H316      1.0  0.37993  0.45674  0.24876  1.0000
  C   C186      1.0  0.40430  0.60560  0.18467  1.0000
  C   C187      1.0  0.39805  0.60612  0.21307  1.0000
  C   C188      1.0  0.38273  0.59535  0.22269  1.0000
  C   C189      1.0  0.37379  0.58381  0.20423  1.0000
  C   C190      1.0  0.38014  0.58329  0.17600  1.0000
  C   C191      1.0  0.39526  0.59419  0.16626  1.0000
  H   H317      1.0  0.40497  0.61482  0.22746  1.0000
  H   H318      1.0  0.37784  0.59586  0.24455  1.0000
  H   H319      1.0  0.37330  0.57466  0.16143  1.0000
  H   H320      1.0  0.39998  0.59377  0.14422  1.0000
  C   C192      1.0  0.49375  0.63113  0.27987  1.0000
  H   H321      1.0  0.39861  0.56771  0.26775  1.0000
  H   H322      1.0  0.44032  0.37217  0.30136  1.0000
  C   C193      1.0  0.46011  0.64041  0.06150  1.0000
  N   N22       1.0  0.44828  0.35256  0.31720  1.0000
  C   C194      1.0  0.48095  0.62783  0.30107  1.0000
  H   H323      1.0  0.32975  0.49293  0.02876  1.0000
  C   C195      1.0  0.36568  0.47981  0.29738  1.0000
  C   C196      1.0  0.37974  0.48500  0.27894  1.0000
  C   C197      1.0  0.37939  0.49148  0.25043  1.0000
  C   C198      1.0  0.36518  0.49361  0.24047  1.0000
  C   C199      1.0  0.35126  0.48900  0.25927  1.0000
  C   C200      1.0  0.35147  0.48192  0.28740  1.0000
  H   H324      1.0  0.39026  0.49511  0.23613  1.0000
  H   H325      1.0  0.34020  0.49048  0.25188  1.0000
  H   H326      1.0  0.37633  0.65988  0.19222  1.0000
  C   C201      1.0  0.43329  0.33995  0.31033  1.0000
  H   H327      1.0  0.30771  0.54252  0.10141  1.0000
  H   H328      1.0  0.40721  0.46968  0.26636  1.0000
  C   C202      1.0  0.39157  0.53517  0.27285  1.0000
  S   S89       1.0  0.42834  0.44138  0.32806  1.0000
  H   H329      1.0  0.38868  0.44683  0.22244  1.0000
  H   H330      1.0  0.27391  0.49835  0.07752  1.0000
  H   H331      1.0  0.29616  0.51480  0.04189  1.0000
  C   C203      1.0  0.44489  0.36790  0.32131  1.0000
  H   H332      1.0  0.26750  0.51568  0.08370  1.0000
  H   H333      1.0  0.27255  0.50484  0.11380  1.0000
  H   H334      1.0  0.37222  0.43522  0.24740  1.0000
  H   H335      1.0  0.41889  0.45748  0.27903  1.0000
  H   H336      1.0  0.40316  0.62357  0.03318  1.0000
  C   C204      1.0  0.29721  0.52519  0.05577  1.0000
  C   C205      1.0  0.27597  0.50920  0.09052  1.0000
  H   H337      1.0  0.44971  0.62959  0.06346  1.0000
  H   H338      1.0  0.28927  0.53189  0.04733  1.0000
  H   H339      1.0  0.28678  0.54081  0.09845  1.0000
  S   S90       1.0  0.44860  0.66297  0.16596  1.0000
  N   N23       1.0  0.38219  0.54450  0.25873  1.0000
  C   C206      1.0  0.38565  0.56037  0.27158  1.0000
  C   C207      1.0  0.38674  0.54693  0.22707  1.0000
  H   H340      1.0  0.39979  0.55376  0.22263  1.0000
  N   N24       1.0  0.40034  0.65902  0.19760  1.0000
  H   H341      1.0  0.40829  0.42778  0.27748  1.0000
  S   S91       1.0  0.49375  0.64142  0.24538  1.0000
  C   C208      1.0  0.26163  0.53588  0.18190  1.0000
  C   C209      1.0  0.40994  0.65581  0.22138  1.0000
  H   H342      1.0  0.38264  0.55898  0.29555  1.0000
  C   C210      1.0  0.29513  0.53402  0.10442  1.0000
  H   H343      1.0  0.47217  0.36430  0.29740  1.0000
  H   H344      1.0  0.48639  0.66570  0.01026  1.0000
  N   N25       1.0  0.29296  0.51978  0.08687  1.0000
  H   H345      1.0  0.39083  0.48385  0.28656  1.0000
  H   H346      1.0  0.38946  0.54655  0.01184  1.0000
  C   C211      1.0  0.36475  0.53553  0.26333  1.0000
  H   H347      1.0  0.30991  0.53338  0.05255  1.0000
  C   C212      1.0  0.30360  0.51071  0.09689  1.0000
  C   C213      1.0  0.48076  0.66073  0.03152  1.0000
  H   H348      1.0  0.38931  0.52323  0.26333  1.0000
  H   H349      1.0  0.46080  0.64272  0.10813  1.0000
  H   H350      1.0  0.31632  0.51870  0.09692  1.0000
  H   H351      1.0  0.39618  0.44141  0.31304  1.0000
  N   N26       1.0  0.39516  0.44405  0.26657  1.0000
  C   C214      1.0  0.46722  0.64680  0.03371  1.0000
  H   H352      1.0  0.41123  0.66464  0.23864  1.0000
  H   H353      1.0  0.41595  0.45940  0.24078  1.0000
  H   H354      1.0  0.38864  0.41826  0.26454  1.0000
  H   H355      1.0  0.37650  0.43241  0.30000  1.0000
  H   H356      1.0  0.47049  0.63141  0.29660  1.0000
  C   C215      1.0  0.39945  0.42927  0.26168  1.0000
  H   H357      1.0  0.38454  0.45389  0.30121  1.0000
  H   H358      1.0  0.35732  0.54251  0.25379  1.0000
  H   H359      1.0  0.46376  0.34361  0.28973  1.0000
  H   H360      1.0  0.49526  0.63959  0.13787  1.0000
  C   C216      1.0  0.48009  0.66158  0.08480  1.0000
  S   S92       1.0  0.36517  0.46993  0.33228  1.0000
  C   C217      1.0  0.38392  0.65748  0.20955  1.0000
  H   H361      1.0  0.42235  0.65693  0.21296  1.0000
  C   C218      1.0  0.38777  0.44289  0.29649  1.0000
  C   C219      1.0  0.39935  0.64723  0.17504  1.0000
  C   C220      1.0  0.46641  0.64782  0.08690  1.0000
  H   H362      1.0  0.38423  0.53519  0.21661  1.0000
  H   H363      1.0  0.36157  0.52380  0.25279  1.0000
  H   H364      1.0  0.45591  0.37769  0.32659  1.0000
  H   H365      1.0  0.38827  0.53283  0.29670  1.0000
  H   H366      1.0  0.26341  0.54826  0.18714  1.0000
  H   H367      1.0  0.40447  0.64342  0.23180  1.0000
  H   H368      1.0  0.39351  0.63458  0.18415  1.0000
  H   H369      1.0  0.41156  0.64792  0.16578  1.0000
  H   H370      1.0  0.42374  0.33788  0.32828  1.0000
  H   H371      1.0  0.39228  0.64930  0.15661  1.0000
  C   C221      1.0  0.40993  0.45827  0.26298  1.0000
  H   H372      1.0  0.45461  0.42942  0.31362  1.0000
  S   S93       1.0  0.45897  0.63655  0.00272  1.0000
  Fe  Fe46      1.0  0.47384  0.66251  0.15945  1.0000
  H   H373      1.0  0.42842  0.34342  0.28998  1.0000
  S   S94       1.0  0.41187  0.47734  0.33257  1.0000
  C   C222      1.0  0.41007  0.61713  0.02043  1.0000
  H   H374      1.0  0.34051  0.47798  0.30148  1.0000
  H   H375      1.0  0.36094  0.53289  0.28694  1.0000
  H   H376      1.0  0.40479  0.54165  0.27002  1.0000
  H   H377      1.0  0.40470  0.60398  0.02644  1.0000
  C   C223      1.0  0.48174  0.62000  0.32829  1.0000
  C   C224      1.0  0.33295  0.51437  0.00097  1.0000
  C   C225      1.0  0.46067  0.35487  0.29296  1.0000
  H   H378      1.0  0.38428  0.66616  0.22678  1.0000
  H   H379      1.0  0.49718  0.62733  0.18696  1.0000
  H   H380      1.0  0.36684  0.52271  0.00205  1.0000
  S   S95       1.0  0.39864  0.42328  0.66202  1.0000
  H   H381      1.0  0.45358  0.50158  0.48092  1.0000
  H   H382      1.0  0.45828  0.51479  0.44853  1.0000
  Fe  Fe47      1.0  0.40371  0.47759  0.61988  1.0000
  S   S96       1.0  0.39603  0.48530  0.57653  1.0000
  S   S97       1.0  0.42053  0.46323  0.62492  1.0000
  Fe  Fe48      1.0  0.41976  0.48945  0.37369  1.0000
  S   S98       1.0  0.39496  0.48231  0.39592  1.0000
  S   S99       1.0  0.43401  0.51579  0.37153  1.0000
  Fe  Fe49      1.0  0.41583  0.45558  0.35488  1.0000
  S   S100      1.0  0.39054  0.44584  0.37519  1.0000
  S   S101      1.0  0.45940  0.48874  0.65115  1.0000
  Fe  Fe50      1.0  0.38733  0.46875  0.35555  1.0000
  C   C226      1.0  0.36442  0.42106  0.62262  1.0000
  Fe  Fe51      1.0  0.40072  0.46047  0.41335  1.0000
  S   S102      1.0  0.39846  0.44946  0.45978  1.0000
  H   H383      1.0  0.47201  0.56277  0.61406  1.0000
  S   S103      1.0  0.42622  0.46870  0.39388  1.0000
  N   N27       1.0  0.46696  0.39886  0.47851  1.0000
  S   S104      1.0  0.47958  0.36483  0.57954  1.0000
  C   C227      1.0  0.36162  0.41242  0.57334  1.0000
  Fe  Fe52      1.0  0.47785  0.38724  0.38099  1.0000
  S   S105      1.0  0.48474  0.36598  0.39827  1.0000
  S   S106      1.0  0.45243  0.38769  0.39057  1.0000
  H   H384      1.0  0.48010  0.53925  0.60316  1.0000
  H   H385      1.0  0.44707  0.40575  0.49607  1.0000
  H   H386      1.0  0.44396  0.52072  0.61366  1.0000
  H   H387      1.0  0.41381  0.49502  0.44954  1.0000
  C   C228      1.0  0.42662  0.50833  0.49820  1.0000
  Fe  Fe53      1.0  0.43237  0.48065  0.65759  1.0000
  N   N28       1.0  0.37053  0.42533  0.59182  1.0000
  C   C229      1.0  0.44816  0.53408  0.61533  1.0000
  H   H388      1.0  0.43893  0.52784  0.43146  1.0000
  H   H389      1.0  0.42786  0.48534  0.46168  1.0000
  H   H390      1.0  0.48894  0.40420  0.50099  1.0000
  H   H391      1.0  0.46559  0.37386  0.47984  1.0000
  C   C230      1.0  0.49098  0.37121  0.54576  1.0000
  H   H392      1.0  0.42702  0.49692  0.50945  1.0000
  H   H393      1.0  0.47495  0.35207  0.52309  1.0000
  C   C231      1.0  0.43298  0.52558  0.45387  1.0000
  C   C232      1.0  0.42273  0.40959  0.65224  1.0000
  C   C233      1.0  0.42843  0.41965  0.37357  1.0000
  C   C234      1.0  0.43373  0.40758  0.38691  1.0000
  C   C235      1.0  0.44674  0.40357  0.37418  1.0000
  S   S107      1.0  0.47779  0.39851  0.63101  1.0000
  H   H394      1.0  0.45610  0.45371  0.65256  1.0000
  H   H395      1.0  0.41836  0.42262  0.38351  1.0000
  H   H396      1.0  0.42766  0.40131  0.40710  1.0000
  H   H397      1.0  0.47413  0.41222  0.51670  1.0000
  H   H398      1.0  0.46267  0.38192  0.44485  1.0000
  H   H399      1.0  0.35131  0.41949  0.62556  1.0000
  C   C236      1.0  0.49408  0.36746  0.49353  1.0000
  C   C237      1.0  0.39725  0.47556  0.54403  1.0000
  C   C238      1.0  0.40502  0.46387  0.54243  1.0000
  C   C239      1.0  0.40544  0.45609  0.51635  1.0000
  C   C240      1.0  0.39851  0.46025  0.49143  1.0000
  C   C241      1.0  0.39101  0.47217  0.49286  1.0000
  C   C242      1.0  0.39023  0.47965  0.51918  1.0000
  H   H400      1.0  0.41063  0.46076  0.56131  1.0000
  H   H401      1.0  0.41122  0.44685  0.51537  1.0000
  H   H402      1.0  0.38534  0.47522  0.47397  1.0000
  H   H403      1.0  0.38407  0.48859  0.52034  1.0000
  H   H404      1.0  0.39289  0.42991  0.56615  1.0000
  C   C243      1.0  0.47845  0.54110  0.39383  1.0000
  C   C244      1.0  0.46304  0.53689  0.38308  1.0000
  C   C245      1.0  0.45411  0.52064  0.38086  1.0000
  C   C246      1.0  0.46090  0.50860  0.38829  1.0000
  C   C247      1.0  0.47631  0.51282  0.39930  1.0000
  H   H405      1.0  0.47088  0.52021  0.62323  1.0000
  H   H406      1.0  0.45791  0.54624  0.37704  1.0000
  H   H407      1.0  0.45423  0.49607  0.38601  1.0000
  H   H408      1.0  0.48138  0.50349  0.40579  1.0000
  H   H409      1.0  0.42007  0.52452  0.45149  1.0000
  H   H410      1.0  0.35531  0.44010  0.58464  1.0000
  H   H411      1.0  0.37084  0.43059  0.63712  1.0000
  C   C248      1.0  0.42687  0.49676  0.45148  1.0000
  Fe  Fe54      1.0  0.48597  0.37716  0.62219  1.0000
  C   C249      1.0  0.47485  0.53352  0.62501  1.0000
  H   H412      1.0  0.46705  0.41133  0.43701  1.0000
  S   S108      1.0  0.41702  0.49637  0.64948  1.0000
  H   H413      1.0  0.49235  0.50781  0.65182  1.0000
  H   H414      1.0  0.37229  0.44413  0.55872  1.0000
  H   H415      1.0  0.42046  0.41038  0.62936  1.0000
  H   H416      1.0  0.47178  0.61760  0.34450  1.0000
  H   H417      1.0  0.46455  0.40882  0.33807  1.0000
  H   H418      1.0  0.44452  0.38454  0.50074  1.0000
  H   H419      1.0  0.48252  0.38728  0.45798  1.0000
  H   H420      1.0  0.48836  0.61794  0.42817  1.0000
  H   H421      1.0  0.47088  0.42405  0.46740  1.0000
  H   H422      1.0  0.48528  0.46797  0.65505  1.0000
  H   H423      1.0  0.44261  0.39328  0.46542  1.0000
  N   N29       1.0  0.43459  0.51083  0.46854  1.0000
  C   C250      1.0  0.36821  0.44076  0.58212  1.0000
  H   H424      1.0  0.43861  0.53647  0.46610  1.0000
  H   H425      1.0  0.48993  0.36059  0.47475  1.0000
  H   H426      1.0  0.43254  0.49833  0.42893  1.0000
  H   H427      1.0  0.49582  0.61725  0.46416  1.0000
  H   H428      1.0  0.43754  0.53755  0.62302  1.0000
  C   C251      1.0  0.47305  0.41332  0.45809  1.0000
  C   C252      1.0  0.45189  0.51262  0.47053  1.0000
  H   H429      1.0  0.45813  0.52306  0.48338  1.0000
  H   H430      1.0  0.36634  0.40968  0.63091  1.0000
  S   S109      1.0  0.49564  0.60579  0.36983  1.0000
  H   H431      1.0  0.48481  0.53657  0.64021  1.0000
  C   C253      1.0  0.48564  0.36262  0.52097  1.0000
  H   H432      1.0  0.41369  0.50752  0.49748  1.0000
  H   H433      1.0  0.47629  0.44016  0.63809  1.0000
  C   C254      1.0  0.38790  0.42705  0.58918  1.0000
  H   H434      1.0  0.43245  0.51843  0.51206  1.0000
  Fe  Fe55      1.0  0.40410  0.45030  0.66308  1.0000
  H   H435      1.0  0.48517  0.55368  0.39572  1.0000
  H   H436      1.0  0.39499  0.43689  0.60243  1.0000
  C   C255      1.0  0.46955  0.38486  0.46471  1.0000
  H   H437      1.0  0.36597  0.41528  0.54994  1.0000
  C   C256      1.0  0.48492  0.52907  0.40263  1.0000
  H   H438      1.0  0.34845  0.41079  0.57480  1.0000
  H   H439      1.0  0.44548  0.34596  0.36337  1.0000
  H   H440      1.0  0.44054  0.39740  0.64529  1.0000
  H   H441      1.0  0.36316  0.40063  0.58008  1.0000
  C   C257      1.0  0.44950  0.39546  0.48553  1.0000
  H   H442      1.0  0.37521  0.45090  0.59495  1.0000
  H   H443      1.0  0.48629  0.41647  0.45295  1.0000
  C   C258      1.0  0.45426  0.34743  0.34432  1.0000
  S   S110      1.0  0.38594  0.46341  0.65579  1.0000
  H   H444      1.0  0.47150  0.39100  0.52147  1.0000
  H   H445      1.0  0.39018  0.41581  0.59727  1.0000
  N   N30       1.0  0.46139  0.53908  0.63536  1.0000
  C   C259      1.0  0.45545  0.53184  0.66507  1.0000
  C   C260      1.0  0.47505  0.43535  0.66121  1.0000
  C   C261      1.0  0.43409  0.40220  0.66123  1.0000
  H   H446      1.0  0.49688  0.64585  0.46901  1.0000
  H   H447      1.0  0.45213  0.53970  0.59292  1.0000
  C   C262      1.0  0.46712  0.55689  0.63601  1.0000
  S   S111      1.0  0.48980  0.38828  0.33650  1.0000
  C   C263      1.0  0.47574  0.40173  0.50559  1.0000
  H   H448      1.0  0.45688  0.33585  0.34218  1.0000
  H   H449      1.0  0.46529  0.42349  0.66308  1.0000
  C   C264      1.0  0.43580  0.42742  0.34690  1.0000
  C   C265      1.0  0.45445  0.41172  0.34800  1.0000
  H   H450      1.0  0.48961  0.64643  0.43310  1.0000
  H   H451      1.0  0.45729  0.56158  0.64356  1.0000
  H   H452      1.0  0.46573  0.35649  0.34962  1.0000
  H   H453      1.0  0.45062  0.51844  0.66515  1.0000
  H   H454      1.0  0.47709  0.56100  0.65096  1.0000
  H   H455      1.0  0.43579  0.36667  0.33977  1.0000
  H   H456      1.0  0.48639  0.43287  0.66596  1.0000
  S   S112      1.0  0.47704  0.36461  0.66696  1.0000
  C   C266      1.0  0.49521  0.61518  0.33466  1.0000
  C   C267      1.0  0.44881  0.42340  0.33418  1.0000
  H   H457      1.0  0.39965  0.52659  0.77649  1.0000
  H   H458      1.0  0.38734  0.51314  0.85399  1.0000
  H   H459      1.0  0.46529  0.53491  0.68058  1.0000
  H   H460      1.0  0.39082  0.50955  0.80180  1.0000
  C   C268      1.0  0.48597  0.62611  0.81132  1.0000
  Fe  Fe56      1.0  0.40029  0.48134  0.68639  1.0000
  S   S113      1.0  0.39047  0.49783  0.71409  1.0000
  S   S114      1.0  0.41711  0.46691  0.69666  1.0000
  C   C269      1.0  0.47029  0.49927  0.67908  1.0000
  H   H461      1.0  0.27207  0.56048  0.78185  1.0000
  S   S115      1.0  0.45021  0.39086  0.70383  1.0000
  H   H462      1.0  0.25857  0.54254  0.76795  1.0000
  H   H463      1.0  0.46154  0.42791  0.71530  1.0000
  H   H464      1.0  0.38276  0.55984  0.95142  1.0000
  Fe  Fe57      1.0  0.46409  0.64551  0.95481  1.0000
  H   H465      1.0  0.41207  0.52002  0.80099  1.0000
  C   C270      1.0  0.37495  0.54807  0.96194  1.0000
  Fe  Fe58      1.0  0.47564  0.63914  0.89254  1.0000
  S   S116      1.0  0.46263  0.65451  0.87065  1.0000
  Fe  Fe59      1.0  0.44225  0.64243  0.90424  1.0000
  S   S117      1.0  0.41531  0.63291  0.89798  1.0000
  S   S118      1.0  0.45457  0.62594  0.92376  1.0000
  Fe  Fe60      1.0  0.33940  0.51033  0.85798  1.0000
  S   S119      1.0  0.34151  0.53599  0.84421  1.0000
  S   S120      1.0  0.34601  0.49140  0.83142  1.0000
  Fe  Fe61      1.0  0.33215  0.51555  0.92331  1.0000
  S   S121      1.0  0.33417  0.54144  0.91372  1.0000
  S   S122      1.0  0.32841  0.50348  0.96918  1.0000
  Fe  Fe62      1.0  0.31933  0.53203  0.87515  1.0000
  S   S123      1.0  0.29824  0.54185  0.86812  1.0000
  Fe  Fe63      1.0  0.35581  0.54294  0.88405  1.0000
  S   S124      1.0  0.38233  0.55755  0.88611  1.0000
  S   S125      1.0  0.31634  0.50588  0.88643  1.0000
  S   S126      1.0  0.35460  0.51746  0.89621  1.0000
  N   N31       1.0  0.38444  0.53731  0.96944  1.0000
  C   C271      1.0  0.48867  0.62236  0.78232  1.0000
  C   C272      1.0  0.27262  0.51467  0.85637  1.0000
  C   C273      1.0  0.27758  0.53072  0.86427  1.0000
  C   C274      1.0  0.26584  0.53850  0.86805  1.0000
  H   H466      1.0  0.36419  0.51579  0.96582  1.0000
  H   H467      1.0  0.40877  0.52308  0.85450  1.0000
  H   H468      1.0  0.28148  0.50851  0.85330  1.0000
  H   H469      1.0  0.26952  0.55087  0.87437  1.0000
  H   H470      1.0  0.26116  0.54365  0.80632  1.0000
  C   C275      1.0  0.40610  0.61202  0.89388  1.0000
  C   C276      1.0  0.41537  0.60168  0.89131  1.0000
  C   C277      1.0  0.40782  0.58505  0.88897  1.0000
  C   C278      1.0  0.39095  0.57858  0.88900  1.0000
  C   C279      1.0  0.38160  0.58885  0.89166  1.0000
  C   C280      1.0  0.38919  0.60555  0.89407  1.0000
  H   H471      1.0  0.42839  0.60651  0.89066  1.0000
  H   H472      1.0  0.41516  0.57721  0.88678  1.0000
  H   H473      1.0  0.36858  0.58399  0.89161  1.0000
  H   H474      1.0  0.38193  0.61349  0.89591  1.0000
  C   C281      1.0  0.47180  0.50902  0.72786  1.0000
  H   H475      1.0  0.49227  0.34781  0.74121  1.0000
  H   H476      1.0  0.37120  0.52356  0.82307  1.0000
  C   C282      1.0  0.37665  0.49474  0.74516  1.0000
  C   C283      1.0  0.36973  0.50687  0.75119  1.0000
  C   C284      1.0  0.35983  0.50576  0.77684  1.0000
  C   C285      1.0  0.35703  0.49267  0.79726  1.0000
  C   C286      1.0  0.36358  0.48031  0.79085  1.0000
  C   C287      1.0  0.37331  0.48131  0.76498  1.0000
  H   H477      1.0  0.37206  0.51723  0.73588  1.0000
  H   H478      1.0  0.35444  0.51508  0.78087  1.0000
  H   H479      1.0  0.36133  0.47001  0.80626  1.0000
  H   H480      1.0  0.37853  0.47188  0.76073  1.0000
  H   H481      1.0  0.47798  0.63304  0.81601  1.0000
  C   C288      1.0  0.41687  0.41419  0.70245  1.0000
  C   C289      1.0  0.42795  0.40657  0.71144  1.0000
  C   C290      1.0  0.43659  0.40051  0.69096  1.0000
  C   C291      1.0  0.25625  0.50673  0.85148  1.0000
  H   H482      1.0  0.25267  0.49443  0.84476  1.0000
  H   H483      1.0  0.41006  0.41849  0.71856  1.0000
  H   H484      1.0  0.42970  0.40518  0.73446  1.0000
  C   C292      1.0  0.39321  0.61545  0.97944  1.0000
  C   C293      1.0  0.39706  0.52508  0.85072  1.0000
  S   S127      1.0  0.49676  0.56902  0.70137  1.0000
  C   C294      1.0  0.48792  0.51844  0.72128  1.0000
  S   S128      1.0  0.49200  0.62652  0.87062  1.0000
  C   C295      1.0  0.38133  0.53488  0.81723  1.0000
  S   S129      1.0  0.49511  0.39938  0.69383  1.0000
  H   H485      1.0  0.40325  0.53684  0.99774  1.0000
  H   H486      1.0  0.39480  0.53285  0.86784  1.0000
  S   S130      1.0  0.48646  0.65717  0.92573  1.0000
  H   H487      1.0  0.48269  0.47122  0.69294  1.0000
  H   H488      1.0  0.40164  0.54675  0.93291  1.0000
  H   H489      1.0  0.45028  0.49273  0.71134  1.0000
  H   H490      1.0  0.40085  0.52704  0.94766  1.0000
  H   H491      1.0  0.42002  0.61474  0.94889  1.0000
  C   C296      1.0  0.46288  0.49958  0.70657  1.0000
  H   H492      1.0  0.36856  0.55067  0.98162  1.0000
  H   H493      1.0  0.45328  0.45770  0.69005  1.0000
  H   H494      1.0  0.40441  0.55664  0.98313  1.0000
  C   C297      1.0  0.48658  0.50811  0.67304  1.0000
  N   N32       1.0  0.40997  0.62065  0.98867  1.0000
  H   H495      1.0  0.38577  0.62187  0.99082  1.0000
  H   H496      1.0  0.44554  0.53606  0.67395  1.0000
  C   C298      1.0  0.48470  0.46244  0.67756  1.0000
  H   H497      1.0  0.48266  0.43834  0.71726  1.0000
  N   N33       1.0  0.39713  0.53252  0.82118  1.0000
  C   C299      1.0  0.39592  0.54468  0.99149  1.0000
  S   S131      1.0  0.45087  0.66161  0.93651  1.0000
  H   H498      1.0  0.48279  0.62657  0.76491  1.0000
  C   C300      1.0  0.39344  0.53500  0.94288  1.0000
  H   H499      1.0  0.49324  0.65721  0.84035  1.0000
  H   H500      1.0  0.38506  0.52938  0.92596  1.0000
  C   C301      1.0  0.49530  0.51791  0.69390  1.0000
  H   H501      1.0  0.41023  0.55431  0.79567  1.0000
  H   H502      1.0  0.38020  0.53883  0.79429  1.0000
  H   H503      1.0  0.37943  0.54418  0.83140  1.0000
  C   C302      1.0  0.40008  0.52174  0.79917  1.0000
  H   H504      1.0  0.46607  0.50945  0.74904  1.0000
  H   H505      1.0  0.38008  0.51284  0.98648  1.0000
  H   H506      1.0  0.41387  0.59858  0.97666  1.0000
  H   H507      1.0  0.46808  0.44803  0.72787  1.0000
  H   H508      1.0  0.42214  0.54711  0.82043  1.0000
  H   H509      1.0  0.40813  0.55674  0.83413  1.0000
  C   C303      1.0  0.41000  0.54836  0.81770  1.0000
  C   C304      1.0  0.37344  0.52148  0.98145  1.0000
  C   C305      1.0  0.26024  0.55079  0.78619  1.0000
  H   H510      1.0  0.33703  0.53779  0.97950  1.0000
  H   H511      1.0  0.36567  0.54255  0.94630  1.0000
  H   H512      1.0  0.41748  0.64133  0.95808  1.0000
  C   C306      1.0  0.47097  0.44000  0.71186  1.0000
  C   C307      1.0  0.24949  0.56839  0.81386  1.0000
  C   C308      1.0  0.49369  0.62094  0.83400  1.0000
  H   H513      1.0  0.26111  0.57845  0.81033  1.0000
  H   H514      1.0  0.39292  0.61804  0.95548  1.0000
  H   H515      1.0  0.25723  0.57707  0.75705  1.0000
  H   H516      1.0  0.24987  0.56178  0.83492  1.0000
  H   H517      1.0  0.44600  0.43741  0.67867  1.0000
  C   C309      1.0  0.33723  0.53121  0.99989  1.0000
  H   H518      1.0  0.49674  0.46113  0.68119  1.0000
  C   C310      1.0  0.45609  0.44897  0.67546  1.0000
  H   H519      1.0  0.41063  0.64524  0.99351  1.0000
  C   C311      1.0  0.24944  0.53046  0.86365  1.0000
  Fe  Fe64      1.0  0.47091  0.38730  0.67635  1.0000
  C   C312      1.0  0.41734  0.63822  0.98188  1.0000
  C   C313      1.0  0.41933  0.61188  0.97280  1.0000
  H   H520      1.0  0.43004  0.64258  0.98834  1.0000
  H   H521      1.0  0.43196  0.61522  0.97961  1.0000
  H   H522      1.0  0.38723  0.60224  0.98406  1.0000
  C   C314      1.0  0.41408  0.41560  0.67286  1.0000
  N   N34       1.0  0.47170  0.44671  0.68153  1.0000
  H   H523      1.0  0.49518  0.33328  0.94885  1.0000
  H   H524      1.0  0.40782  0.81445  0.07721  1.0000
  C   C315      1.0  0.27374  0.74362  0.16678  1.0000
  S   S132      1.0  0.44465  0.69281  0.21987  1.0000
  Fe  Fe65      1.0  0.47373  0.78964  0.22024  1.0000
  H   H525      1.0  0.41129  0.79618  0.16365  1.0000
  H   H526      1.0  0.27727  0.75523  0.07769  1.0000
  Fe  Fe66      1.0  0.44779  0.80560  0.22721  1.0000
  S   S133      1.0  0.46197  0.82724  0.19888  1.0000
  S   S134      1.0  0.42440  0.80817  0.24462  1.0000
  Fe  Fe67      1.0  0.46764  0.80982  0.16899  1.0000
  Fe  Fe68      1.0  0.48287  0.82660  0.22531  1.0000
  C   C316      1.0  0.26407  0.73083  0.15147  1.0000
  H   H527      1.0  0.42066  0.67711  0.17527  1.0000
  S   S135      1.0  0.45164  0.78806  0.19586  1.0000
  S   S136      1.0  0.46829  0.80530  0.25477  1.0000
  Fe  Fe69      1.0  0.34631  0.77755  0.17147  1.0000
  S   S137      1.0  0.35791  0.80234  0.15107  1.0000
  S   S138      1.0  0.36229  0.76406  0.18889  1.0000
  Fe  Fe70      1.0  0.31248  0.77706  0.15690  1.0000
  S   S139      1.0  0.32207  0.80268  0.13630  1.0000
  S   S140      1.0  0.28727  0.76078  0.14661  1.0000
  Fe  Fe71      1.0  0.34160  0.79476  0.11452  1.0000
  S   S141      1.0  0.35322  0.79740  0.06834  1.0000
  Fe  Fe72      1.0  0.33777  0.80822  0.17523  1.0000
  S   S142      1.0  0.34866  0.83245  0.19585  1.0000
  S   S143      1.0  0.33155  0.76926  0.13334  1.0000
  S   S144      1.0  0.32666  0.78329  0.19743  1.0000
  C   C317      1.0  0.35209  0.83846  0.23228  1.0000
  C   C318      1.0  0.36638  0.85080  0.23772  1.0000
  C   C319      1.0  0.36920  0.85659  0.26591  1.0000
  C   C320      1.0  0.35761  0.85029  0.28904  1.0000
  C   C321      1.0  0.34327  0.83802  0.28356  1.0000
  C   C322      1.0  0.34052  0.83212  0.25543  1.0000
  H   H528      1.0  0.37527  0.85607  0.21990  1.0000
  H   H529      1.0  0.38022  0.86613  0.26962  1.0000
  H   H530      1.0  0.32920  0.82312  0.25140  1.0000
  C   C323      1.0  0.34506  0.80188  0.03556  1.0000
  C   C324      1.0  0.35019  0.79705  0.00905  1.0000
  H   H531      1.0  0.44008  0.84432  0.23209  1.0000
  C   C325      1.0  0.32699  0.81276  0.00892  1.0000
  H   H532      1.0  0.31866  0.78358  0.07558  1.0000
  C   C326      1.0  0.33350  0.80987  0.03534  1.0000
  H   H533      1.0  0.33410  0.79591  0.25896  1.0000
  H   H534      1.0  0.49401  0.77592  0.16221  1.0000
  H   H535      1.0  0.45857  0.75380  0.10244  1.0000
  H   H536      1.0  0.32973  0.81399  0.05547  1.0000
  H   H537      1.0  0.27825  0.75308  0.20916  1.0000
  H   H538      1.0  0.33409  0.83327  0.30113  1.0000
  H   H539      1.0  0.39354  0.82218  0.11927  1.0000
  C   C327      1.0  0.24866  0.71785  0.19635  1.0000
  C   C328      1.0  0.40775  0.79612  0.22741  1.0000
  C   C329      1.0  0.39550  0.80243  0.22014  1.0000
  C   C330      1.0  0.38169  0.79273  0.20765  1.0000
  C   C331      1.0  0.37998  0.77661  0.20276  1.0000
  C   C332      1.0  0.39236  0.77036  0.20962  1.0000
  C   C333      1.0  0.40633  0.78015  0.22170  1.0000
  H   H540      1.0  0.39669  0.81485  0.22422  1.0000
  H   H541      1.0  0.37216  0.79762  0.20274  1.0000
  H   H542      1.0  0.39108  0.75788  0.20589  1.0000
  H   H543      1.0  0.41575  0.77521  0.22744  1.0000
  H   H544      1.0  0.37798  0.80844  0.26902  1.0000
  H   H545      1.0  0.42471  0.84469  0.27887  1.0000
  C   C334      1.0  0.41550  0.81067  0.09289  1.0000
  C   C335      1.0  0.40189  0.81855  0.13367  1.0000
  H   H546      1.0  0.30344  0.74010  0.06333  1.0000
  H   H547      1.0  0.46607  0.84239  0.27014  1.0000
  H   H548      1.0  0.48617  0.74655  0.15733  1.0000
  H   H549      1.0  0.32824  0.78223  0.29081  1.0000
  C   C336      1.0  0.45558  0.71379  0.22057  1.0000
  C   C337      1.0  0.47245  0.71952  0.22000  1.0000
  S   S145      1.0  0.44082  0.89225  0.31778  1.0000
  C   C338      1.0  0.47209  0.74732  0.22399  1.0000
  C   C339      1.0  0.45523  0.74165  0.22380  1.0000
  C   C340      1.0  0.44704  0.72497  0.22232  1.0000
  H   H550      1.0  0.32249  0.77102  0.02798  1.0000
  C   C341      1.0  0.25852  0.73049  0.21173  1.0000
  H   H551      1.0  0.44848  0.75006  0.22551  1.0000
  C   C342      1.0  0.47056  0.80830  0.08736  1.0000
  N   N35       1.0  0.40679  0.80525  0.12174  1.0000
  H   H552      1.0  0.43477  0.85672  0.30752  1.0000
  C   C343      1.0  0.46187  0.80703  0.06203  1.0000
  H   H553      1.0  0.30574  0.75561  0.01499  1.0000
  H   H554      1.0  0.43051  0.86639  0.27519  1.0000
  C   C344      1.0  0.35785  0.79118  0.31296  1.0000
  H   H555      1.0  0.49396  0.74937  0.01795  1.0000
  C   C345      1.0  0.39225  0.79120  0.11855  1.0000
  H   H556      1.0  0.30579  0.77621  0.01438  1.0000
  H   H557      1.0  0.44516  0.86597  0.22831  1.0000
  H   H558      1.0  0.45669  0.84357  0.30513  1.0000
  S   S146      1.0  0.48869  0.67065  0.11655  1.0000
  C   C346      1.0  0.48255  0.77559  0.15221  1.0000
  S   S147      1.0  0.49013  0.81104  0.19228  1.0000
  H   H559      1.0  0.48413  0.78780  0.14193  1.0000
  H   H560      1.0  0.44955  0.80716  0.06359  1.0000
  H   H561      1.0  0.44529  0.83117  0.27831  1.0000
  H   H562      1.0  0.31813  0.81903  0.00894  1.0000
  C   C347      1.0  0.35530  0.77941  0.26605  1.0000
  H   H563      1.0  0.38541  0.78676  0.13993  1.0000
  H   H564      1.0  0.35925  0.79101  0.00891  1.0000
  H   H565      1.0  0.32006  0.75621  0.07513  1.0000
  H   H566      1.0  0.30252  0.78877  0.05923  1.0000
  H   H567      1.0  0.46087  0.85682  0.22668  1.0000
  H   H568      1.0  0.43398  0.72069  0.22294  1.0000
  C   C348      1.0  0.48495  0.80556  0.03195  1.0000
  H   H569      1.0  0.26605  0.73097  0.12804  1.0000
  H   H570      1.0  0.27973  0.74603  0.04424  1.0000
  N   N36       1.0  0.45014  0.85670  0.26968  1.0000
  C   C349      1.0  0.46253  0.87196  0.27606  1.0000
  C   C350      1.0  0.45474  0.84287  0.28140  1.0000
  C   C351      1.0  0.44899  0.85592  0.23775  1.0000
  C   C352      1.0  0.43432  0.85605  0.28342  1.0000
  H   H571      1.0  0.45928  0.88268  0.26810  1.0000
  H   H572      1.0  0.47453  0.87293  0.26549  1.0000
  H   H573      1.0  0.46394  0.87287  0.29993  1.0000
  H   H574      1.0  0.41252  0.82944  0.13602  1.0000
  H   H575      1.0  0.41923  0.80086  0.08313  1.0000
  H   H576      1.0  0.42183  0.79090  0.13326  1.0000
  C   C353      1.0  0.28349  0.75757  0.05542  1.0000
  H   H577      1.0  0.35205  0.78036  0.24302  1.0000
  C   C354      1.0  0.27109  0.74323  0.19711  1.0000
  N   N37       1.0  0.35390  0.79318  0.28236  1.0000
  S   S148      1.0  0.48307  0.76814  0.22650  1.0000
  H   H578      1.0  0.47920  0.71110  0.21883  1.0000
  H   H579      1.0  0.37035  0.79060  0.31417  1.0000
  C   C355      1.0  0.30910  0.76676  0.02730  1.0000
  N   N38       1.0  0.30120  0.76382  0.05708  1.0000
  H   H580      1.0  0.29909  0.77763  0.09384  1.0000
  H   H581      1.0  0.46217  0.80488  0.01522  1.0000
  H   H582      1.0  0.49054  0.83609  0.30177  1.0000
  C   C356      1.0  0.30670  0.75188  0.07371  1.0000
  H   H583      1.0  0.36783  0.77879  0.26544  1.0000
  C   C357      1.0  0.25179  0.71787  0.16621  1.0000
  C   C358      1.0  0.48654  0.80822  0.08484  1.0000
  H   H584      1.0  0.47319  0.77333  0.17042  1.0000
  S   S149      1.0  0.46057  0.80940  0.12147  1.0000
  S   S150      1.0  0.48173  0.67463  0.20100  1.0000
  C   C359      1.0  0.47525  0.74695  0.14613  1.0000
  H   H585      1.0  0.49306  0.77805  0.09601  1.0000
  H   H586      1.0  0.30122  0.74961  0.09651  1.0000
  H   H587      1.0  0.25623  0.73057  0.23506  1.0000
  H   H588      1.0  0.42848  0.81104  0.14523  1.0000
  C   C360      1.0  0.36527  0.80842  0.26878  1.0000
  H   H589      1.0  0.40955  0.68477  0.20115  1.0000
  H   H590      1.0  0.40130  0.67858  0.16666  1.0000
  H   H591      1.0  0.39549  0.81494  0.15562  1.0000
  S   S151      1.0  0.39787  0.89931  0.31611  1.0000
  H   H592      1.0  0.42670  0.82108  0.09459  1.0000
  H   H593      1.0  0.39545  0.78092  0.10956  1.0000
  Fe  Fe73      1.0  0.45576  0.67313  0.20925  1.0000
  C   C361      1.0  0.40824  0.67558  0.18453  1.0000
  H   H594      1.0  0.36266  0.81044  0.24564  1.0000
  H   H595      1.0  0.34712  0.76767  0.27596  1.0000
  C   C362      1.0  0.46901  0.80572  0.03450  1.0000
  C   C363      1.0  0.48063  0.73616  0.22197  1.0000
  H   H596      1.0  0.38382  0.79431  0.10360  1.0000
  C   C364      1.0  0.41754  0.80062  0.14186  1.0000
  C   C365      1.0  0.30555  0.77912  0.07202  1.0000
  H   H597      1.0  0.36455  0.81906  0.28056  1.0000
  H   H598      1.0  0.34942  0.77989  0.32406  1.0000
  H   H599      1.0  0.47223  0.73709  0.13075  1.0000
  H   H600      1.0  0.33558  0.80365  0.29463  1.0000
  C   C366      1.0  0.46270  0.76330  0.11829  1.0000
  C   C367      1.0  0.33721  0.79374  0.28169  1.0000
  H   H601      1.0  0.27898  0.76637  0.04314  1.0000
  H   H602      1.0  0.46517  0.74406  0.16325  1.0000
  H   H603      1.0  0.45280  0.76140  0.13555  1.0000
  S   S152      1.0  0.36045  0.85703  0.32515  1.0000
  C   C368      1.0  0.45603  0.90890  0.32913  1.0000
  H   H604      1.0  0.49366  0.74039  0.22221  1.0000
  N   N39       1.0  0.47782  0.76294  0.13102  1.0000
  C   C369      1.0  0.49364  0.80674  0.05730  1.0000
  H   H605      1.0  0.46583  0.74845  0.00899  1.0000
  H   H606      1.0  0.46426  0.77520  0.10663  1.0000
  C   C370      1.0  0.48724  0.66800  0.05702  1.0000
  H   H607      1.0  0.47402  0.89682  0.32874  1.0000
  H   H608      1.0  0.49353  0.80956  0.10395  1.0000
  H   H609      1.0  0.35706  0.80149  0.32575  1.0000
  C   C371      1.0  0.49079  0.76602  0.10766  1.0000
  H   H610      1.0  0.48763  0.75674  0.09119  1.0000
  H   H611      1.0  0.44109  0.92430  0.33118  1.0000
  C   C372      1.0  0.49584  0.84901  0.30321  1.0000
  S   S153      1.0  0.49743  0.85136  0.24187  1.0000
  H   H612      1.0  0.39103  0.92673  0.49234  1.0000
  S   S154      1.0  0.41169  0.90438  0.61077  1.0000
  Fe  Fe74      1.0  0.38519  0.89235  0.60926  1.0000
  S   S155      1.0  0.37159  0.88660  0.56783  1.0000
  S   S156      1.0  0.49016  0.94551  0.38326  1.0000
  S   S157      1.0  0.40127  0.87044  0.36273  1.0000
  H   H613      1.0  0.38551  0.92167  0.41383  1.0000
  Fe  Fe75      1.0  0.39653  0.91315  0.35614  1.0000
  S   S158      1.0  0.41731  0.90836  0.37659  1.0000
  C   C373      1.0  0.44727  0.99310  0.63843  1.0000
  H   H614      1.0  0.45940  0.93352  0.57392  1.0000
  Fe  Fe76      1.0  0.40598  0.92075  0.64313  1.0000
  Fe  Fe77      1.0  0.39928  0.88637  0.39900  1.0000
  S   S159      1.0  0.40671  0.88249  0.44502  1.0000
  C   C374      1.0  0.39518  0.94737  0.44474  1.0000
  S   S160      1.0  0.37801  0.89173  0.38059  1.0000
  H   H615      1.0  0.47879  0.94059  0.58944  1.0000
  H   H616      1.0  0.45672  0.89005  0.57959  1.0000
  C   C375      1.0  0.42310  0.96324  0.35618  1.0000
  C   C376      1.0  0.38162  0.88595  0.53369  1.0000
  C   C377      1.0  0.39783  0.88664  0.53150  1.0000
  C   C378      1.0  0.40526  0.88551  0.50419  1.0000
  C   C379      1.0  0.39667  0.88389  0.47874  1.0000
  C   C380      1.0  0.38051  0.88340  0.48083  1.0000
  C   C381      1.0  0.37303  0.88439  0.50821  1.0000
  H   H617      1.0  0.40454  0.88773  0.55094  1.0000
  H   H618      1.0  0.41774  0.88583  0.50284  1.0000
  H   H619      1.0  0.37366  0.88188  0.46152  1.0000
  H   H620      1.0  0.36045  0.88373  0.50973  1.0000
  C   C382      1.0  0.47773  0.93228  0.36011  1.0000
  H   H621      1.0  0.35165  0.87073  0.61879  1.0000
  H   H622      1.0  0.44882  0.87714  0.45707  1.0000
  H   H623      1.0  0.41168  0.93969  0.48818  1.0000
  H   H624      1.0  0.46024  0.94494  0.35887  1.0000
  H   H625      1.0  0.40167  0.99558  0.34596  1.0000
  C   C383      1.0  0.45243  0.92276  0.33669  1.0000
  H   H626      1.0  0.42554  0.94675  0.43805  1.0000
  H   H627      1.0  0.44961  0.97428  0.61154  1.0000
  C   C384      1.0  0.40617  0.95838  0.35506  1.0000
  C   C385      1.0  0.45489  0.90178  0.58410  1.0000
  H   H628      1.0  0.42909  0.95420  0.35843  1.0000
  C   C386      1.0  0.46330  0.93449  0.35217  1.0000
  H   H629      1.0  0.49044  0.92645  0.55180  1.0000
  H   H630      1.0  0.33179  0.84436  0.60977  1.0000
  H   H631      1.0  0.35204  0.84584  0.64637  1.0000
  C   C387      1.0  0.40257  0.92939  0.47884  1.0000
  H   H632      1.0  0.38337  0.94537  0.45697  1.0000
  Fe  Fe78      1.0  0.41744  0.89299  0.33889  1.0000
  H   H633      1.0  0.49285  0.91710  0.35671  1.0000
  N   N40       1.0  0.33293  0.85637  0.64985  1.0000
  H   H634      1.0  0.45979  0.86426  0.44411  1.0000
  H   H635      1.0  0.47680  0.98400  0.65424  1.0000
  N   N41       1.0  0.40051  0.93297  0.44776  1.0000
  C   C388      1.0  0.48100  0.91143  0.60440  1.0000
  C   C389      1.0  0.32362  0.84633  0.62751  1.0000
  C   C390      1.0  0.42953  0.96504  0.64334  1.0000
  C   C391      1.0  0.44282  0.97717  0.62954  1.0000
  C   C392      1.0  0.46734  0.93031  0.58973  1.0000
  C   C393      1.0  0.47101  0.90735  0.33497  1.0000
  H   H636      1.0  0.33540  0.87872  0.62538  1.0000
  H   H637      1.0  0.31549  0.85222  0.61711  1.0000
  H   H638      1.0  0.43572  0.91218  0.65247  1.0000
  S   S161      1.0  0.38402  0.87375  0.64562  1.0000
  Fe  Fe79      1.0  0.38132  0.87737  0.34207  1.0000
  H   H639      1.0  0.44532  0.98367  0.35457  1.0000
  C   C394      1.0  0.39870  0.97029  0.35203  1.0000
  H   H640      1.0  0.39365  0.95034  0.42137  1.0000
  C   C395      1.0  0.48173  0.91889  0.35090  1.0000
  S   S162      1.0  0.39320  0.93794  0.35860  1.0000
  S   S163      1.0  0.42473  0.94534  0.63052  1.0000
  H   H641      1.0  0.38571  0.96676  0.35106  1.0000
  H   H642      1.0  0.42054  0.92549  0.43284  1.0000
  H   H643      1.0  0.37665  0.91552  0.45011  1.0000
  H   H644      1.0  0.40665  0.91860  0.48165  1.0000
  H   H645      1.0  0.46932  0.88574  0.44257  1.0000
  H   H646      1.0  0.46115  0.92927  0.61177  1.0000
  C   C396      1.0  0.38822  0.91900  0.43656  1.0000
  H   H647      1.0  0.41477  0.93839  0.40706  1.0000
  H   H648      1.0  0.34995  0.88013  0.65221  1.0000
  H   H649      1.0  0.39242  0.90827  0.43622  1.0000
  S   S164      1.0  0.37913  0.90969  0.63896  1.0000
  C   C397      1.0  0.43231  0.97996  0.35406  1.0000
  H   H650      1.0  0.48027  0.90556  0.54678  1.0000
  H   H651      1.0  0.40413  0.95816  0.45303  1.0000
  C   C398      1.0  0.41604  0.93605  0.43073  1.0000
  N   N42       1.0  0.45194  0.87737  0.41036  1.0000
  C   C399      1.0  0.44958  0.89329  0.40563  1.0000
  C   C400      1.0  0.46393  0.87568  0.38804  1.0000
  C   C401      1.0  0.43642  0.86444  0.40788  1.0000
  C   C402      1.0  0.45772  0.87605  0.43983  1.0000
  H   H652      1.0  0.44077  0.89507  0.42233  1.0000
  H   H653      1.0  0.44480  0.89450  0.38394  1.0000
  H   H654      1.0  0.46110  0.90340  0.40654  1.0000
  H   H655      1.0  0.46660  0.86414  0.39165  1.0000
  H   H656      1.0  0.45953  0.87596  0.36572  1.0000
  H   H657      1.0  0.47560  0.88564  0.38823  1.0000
  H   H658      1.0  0.43775  0.85224  0.41096  1.0000
  H   H659      1.0  0.43156  0.86532  0.38609  1.0000
  H   H660      1.0  0.42710  0.86521  0.42455  1.0000
  N   N43       1.0  0.47040  0.91512  0.58285  1.0000
  H   H661      1.0  0.47101  0.92040  0.53649  1.0000
  C   C403      1.0  0.42461  0.99176  0.35022  1.0000
  H   H662      1.0  0.47538  0.90996  0.62696  1.0000
  C   C404      1.0  0.40779  0.98671  0.34927  1.0000
  H   H663      1.0  0.44850  0.90014  0.60609  1.0000
  Fe  Fe80      1.0  0.41010  0.88776  0.64986  1.0000
  S   S165      1.0  0.43046  0.87801  0.65696  1.0000
  H   H664      1.0  0.44657  0.90409  0.56811  1.0000
  C   C405      1.0  0.47835  0.91698  0.55321  1.0000
  C   C406      1.0  0.34289  0.87216  0.63595  1.0000
  H   H665      1.0  0.48353  0.90001  0.60002  1.0000
  H   H666      1.0  0.31603  0.83426  0.63715  1.0000
  H   H667      1.0  0.49283  0.92123  0.60420  1.0000
  C   C407      1.0  0.34351  0.84808  0.66308  1.0000
  C   C408      1.0  0.44550  0.91005  0.66354  1.0000
  H   H668      1.0  0.49561  0.84760  0.35034  1.0000
  C   C409      1.0  0.43847  0.99714  0.66132  1.0000
  H   H669      1.0  0.31353  0.86510  0.66363  1.0000
  C   C410      1.0  0.42075  0.96898  0.66642  1.0000
  H   H670      1.0  0.48811  0.97124  0.66646  1.0000
  H   H671      1.0  0.49671  0.99290  0.66671  1.0000
  H   H672      1.0  0.46542  0.95652  0.70209  1.0000
  S   S166      1.0  0.48791  0.69848  0.89525  1.0000
  H   H673      1.0  0.49531  0.77934  0.95811  1.0000
  Fe  Fe81      1.0  0.47027  0.78469  0.90302  1.0000
  C   C411      1.0  0.49186  0.76668  0.95135  1.0000
  S   S167      1.0  0.46225  0.75919  0.88662  1.0000
  Fe  Fe82      1.0  0.45178  0.80613  0.92710  1.0000
  S   S168      1.0  0.47433  0.82539  0.93752  1.0000
  S   S169      1.0  0.42815  0.81016  0.93904  1.0000
  C   C412      1.0  0.47114  0.92092  0.68503  1.0000
  H   H674      1.0  0.35081  0.74679  0.87303  1.0000
  Fe  Fe83      1.0  0.48253  0.80506  0.95457  1.0000
  C   C413      1.0  0.48222  0.73835  0.96701  1.0000
  S   S170      1.0  0.46089  0.80351  0.88187  1.0000
  S   S171      1.0  0.45913  0.78607  0.94746  1.0000
  Fe  Fe84      1.0  0.32797  0.80799  0.84163  1.0000
  S   S172      1.0  0.33114  0.78429  0.83088  1.0000
  S   S173      1.0  0.32481  0.82822  0.81145  1.0000
  Fe  Fe85      1.0  0.32757  0.80053  0.90742  1.0000
  S   S174      1.0  0.33127  0.77657  0.90223  1.0000
  S   S175      1.0  0.32336  0.81153  0.94982  1.0000
  Fe  Fe86      1.0  0.34909  0.78939  0.86551  1.0000
  S   S176      1.0  0.37163  0.78309  0.85502  1.0000
  Fe  Fe87      1.0  0.31288  0.77247  0.86808  1.0000
  S   S177      1.0  0.29840  0.74567  0.86608  1.0000
  S   S178      1.0  0.34733  0.81389  0.87374  1.0000
  S   S179      1.0  0.30778  0.79569  0.87589  1.0000
  H   H675      1.0  0.45425  0.96918  0.68900  1.0000
  C   C414      1.0  0.45926  0.89191  0.68172  1.0000
  H   H676      1.0  0.42179  0.82506  0.84503  1.0000
  S   S180      1.0  0.35892  0.88389  0.71165  1.0000
  H   H677      1.0  0.42352  0.84562  0.85123  1.0000
  H   H678      1.0  0.44056  0.82486  0.88340  1.0000
  H   H679      1.0  0.44623  0.81757  0.83343  1.0000
  C   C415      1.0  0.45307  0.83058  0.82828  1.0000
  H   H680      1.0  0.35163  0.76172  0.81159  1.0000
  H   H681      1.0  0.41048  0.95974  0.67722  1.0000
  H   H682      1.0  0.32934  0.73604  0.87609  1.0000
  H   H683      1.0  0.45993  0.84012  0.88267  1.0000
  H   H684      1.0  0.46838  0.86091  0.84216  1.0000
  Fe  Fe88      1.0  0.37948  0.89160  0.67584  1.0000
  H   H685      1.0  0.31484  0.72680  0.83194  1.0000
  H   H686      1.0  0.45515  0.86121  0.81352  1.0000
  H   H687      1.0  0.45063  0.86652  0.84962  1.0000
  C   C416      1.0  0.33564  0.84311  0.78351  1.0000
  C   C417      1.0  0.35048  0.84377  0.76933  1.0000
  C   C418      1.0  0.35799  0.85607  0.74701  1.0000
  C   C419      1.0  0.35080  0.86787  0.73922  1.0000
  C   C420      1.0  0.33612  0.86708  0.75368  1.0000
  C   C421      1.0  0.32860  0.85484  0.77529  1.0000
  H   H688      1.0  0.35609  0.83480  0.77534  1.0000
  H   H689      1.0  0.36936  0.85650  0.73613  1.0000
  H   H690      1.0  0.33042  0.87605  0.74808  1.0000
  H   H691      1.0  0.31719  0.85452  0.78584  1.0000
  C   C422      1.0  0.26552  0.74250  0.86900  1.0000
  H   H692      1.0  0.26912  0.75554  0.86680  1.0000
  H   H693      1.0  0.45977  0.87979  0.68561  1.0000
  C   C423      1.0  0.45546  0.85821  0.83725  1.0000
  C   C424      1.0  0.27733  0.73482  0.86967  1.0000
  C   C425      1.0  0.41245  0.80241  0.91578  1.0000
  C   C426      1.0  0.41442  0.79329  0.89245  1.0000
  C   C427      1.0  0.40184  0.78747  0.87380  1.0000
  C   C428      1.0  0.38723  0.79066  0.87850  1.0000
  C   C429      1.0  0.38524  0.79977  0.90181  1.0000
  C   C430      1.0  0.39786  0.80565  0.92039  1.0000
  H   H694      1.0  0.42552  0.79051  0.88901  1.0000
  H   H695      1.0  0.40338  0.78034  0.85589  1.0000
  H   H696      1.0  0.37397  0.80221  0.90565  1.0000
  H   H697      1.0  0.39628  0.81266  0.93848  1.0000
  C   C431      1.0  0.48053  0.71522  0.89446  1.0000
  C   C432      1.0  0.46401  0.71322  0.89576  1.0000
  C   C433      1.0  0.45865  0.72682  0.89365  1.0000
  C   C434      1.0  0.46971  0.74259  0.89089  1.0000
  C   C435      1.0  0.48626  0.74461  0.89006  1.0000
  H   H698      1.0  0.32553  0.73074  0.79659  1.0000
  H   H699      1.0  0.45533  0.70118  0.89760  1.0000
  H   H700      1.0  0.44584  0.72511  0.89387  1.0000
  H   H701      1.0  0.41829  0.98800  0.69302  1.0000
  H   H702      1.0  0.44188  0.84517  0.89043  1.0000
  H   H703      1.0  0.33412  0.71349  0.84998  1.0000
  N   N44       1.0  0.33235  0.85433  0.88782  1.0000
  C   C436      1.0  0.32678  0.86829  0.89341  1.0000
  C   C437      1.0  0.34113  0.85102  0.91288  1.0000
  C   C438      1.0  0.34316  0.85797  0.86097  1.0000
  C   C439      1.0  0.31823  0.84000  0.88399  1.0000
  H   H704      1.0  0.32009  0.87105  0.87489  1.0000
  H   H705      1.0  0.33713  0.87933  0.89642  1.0000
  H   H706      1.0  0.31855  0.86588  0.91348  1.0000
  H   H707      1.0  0.34541  0.84048  0.90949  1.0000
  H   H708      1.0  0.35187  0.86154  0.91655  1.0000
  H   H709      1.0  0.33323  0.84799  0.93343  1.0000
  H   H710      1.0  0.34745  0.84761  0.85589  1.0000
  H   H711      1.0  0.35400  0.86870  0.86293  1.0000
  H   H712      1.0  0.33685  0.86036  0.84158  1.0000
  H   H713      1.0  0.32209  0.82939  0.87933  1.0000
  H   H714      1.0  0.31127  0.84196  0.86525  1.0000
  H   H715      1.0  0.30993  0.83658  0.90399  1.0000
  H   H716      1.0  0.48181  0.90331  0.70093  1.0000
  C   C440      1.0  0.34353  0.79976  0.98269  1.0000
  H   H717      1.0  0.47791  0.72916  0.98561  1.0000
  C   C441      1.0  0.33935  0.74444  0.86172  1.0000
  H   H718      1.0  0.34489  0.71743  0.81476  1.0000
  C   C442      1.0  0.42908  0.83787  0.83882  1.0000
  C   C443      1.0  0.44720  0.83771  0.87678  1.0000
  N   N45       1.0  0.44620  0.84111  0.84526  1.0000
  S   S181      1.0  0.40565  0.90440  0.68264  1.0000
  C   C444      1.0  0.35378  0.74986  0.81447  1.0000
  H   H719      1.0  0.48509  0.97938  0.74469  1.0000
  H   H720      1.0  0.45285  0.83307  0.80436  1.0000
  H   H721      1.0  0.34755  0.79590  0.96248  1.0000
  C   C445      1.0  0.45790  0.92329  0.67205  1.0000
  H   H722      1.0  0.35512  0.74553  0.79239  1.0000
  N   N46       1.0  0.34054  0.73808  0.83272  1.0000
  N   N47       1.0  0.47832  0.98199  0.70075  1.0000
  H   H723      1.0  0.46121  0.75473  0.97363  1.0000
  H   H724      1.0  0.25225  0.69551  0.87634  1.0000
  H   H725      1.0  0.36556  0.75229  0.82474  1.0000
  Fe  Fe89      1.0  0.47252  0.67211  0.90512  1.0000
  C   C446      1.0  0.32173  0.85892  0.67280  1.0000
  H   H726      1.0  0.49309  0.73651  0.95614  1.0000
  H   H727      1.0  0.32217  0.74696  0.81593  1.0000
  C   C447      1.0  0.47177  0.90522  0.69021  1.0000
  H   H728      1.0  0.42780  0.84016  0.81516  1.0000
  S   S182      1.0  0.49391  0.84685  0.86672  1.0000
  H   H729      1.0  0.33684  0.75608  0.85967  1.0000
  H   H730      1.0  0.31420  0.84730  0.68416  1.0000
  N   N48       1.0  0.48573  0.75498  0.97666  1.0000
  C   C448      1.0  0.34390  0.72259  0.83623  1.0000
  H   H731      1.0  0.35544  0.72418  0.84694  1.0000
  H   H732      1.0  0.46589  0.83245  0.83312  1.0000
  C   C449      1.0  0.49162  0.73099  0.89174  1.0000
  H   H733      1.0  0.49297  0.96866  0.71861  1.0000
  C   C450      1.0  0.27237  0.71782  0.87237  1.0000
  Fe  Fe90      1.0  0.48412  0.82206  0.89264  1.0000
  C   C451      1.0  0.42519  0.98501  0.67529  1.0000
  C   C452      1.0  0.46318  0.96822  0.70497  1.0000
  H   H734      1.0  0.28135  0.71172  0.87288  1.0000
  C   C453      1.0  0.32514  0.73549  0.81858  1.0000
  S   S183      1.0  0.49447  0.80299  0.91064  1.0000
  C   C454      1.0  0.25584  0.70857  0.87437  1.0000
  H   H735      1.0  0.45738  0.96754  0.72724  1.0000
  S   S184      1.0  0.48728  0.93776  0.69258  1.0000
  C   C455      1.0  0.33191  0.80766  0.98250  1.0000
  C   C456      1.0  0.24898  0.73323  0.87059  1.0000
  H   H736      1.0  0.49359  0.67774  0.84374  1.0000
  H   H737      1.0  0.47267  0.73563  0.95097  1.0000
  H   H738      1.0  0.48256  0.76539  0.93508  1.0000
  C   C457      1.0  0.47486  0.99720  0.70555  1.0000
  C   C458      1.0  0.48998  0.97999  0.72175  1.0000
  H   H739      1.0  0.35092  0.85544  0.67971  1.0000
  C   C459      1.0  0.48531  0.98257  0.67067  1.0000
  H   H740      1.0  0.33640  0.83625  0.67429  1.0000
  H   H741      1.0  0.32846  0.86662  0.68977  1.0000
  H   H742      1.0  0.46926  0.99709  0.72781  1.0000
  C   C460      1.0  0.47077  0.75698  0.98968  1.0000
  H   H743      1.0  0.46642  0.99930  0.68965  1.0000
  S   S185      1.0  0.49420  0.80337  0.99777  1.0000
  H   H744      1.0  0.45738  0.93536  0.66765  1.0000
  C   C461      1.0  0.44609  0.89434  0.66837  1.0000
  H   H745      1.0  0.49491  0.75662  0.88700  1.0000
  H   H746      1.0  0.47293  0.76950  0.99678  1.0000
  H   H747      1.0  0.71543  0.22241  0.10360  1.0000
  S   S186      1.0  0.56731  0.32034  0.18896  1.0000
  H   H748      1.0  0.61529  0.12521  0.25419  1.0000
  H   H749      1.0  0.51940  0.30503  0.29265  1.0000
  S   S187      1.0  0.56253  0.30979  0.12117  1.0000
  C   C462      1.0  0.74269  0.22707  0.19979  1.0000
  Fe  Fe91      1.0  0.55074  0.29988  0.16577  1.0000
  S   S188      1.0  0.54778  0.27544  0.18928  1.0000
  H   H750      1.0  0.59945  0.13240  0.19869  1.0000
  S   S189      1.0  0.53102  0.31152  0.16337  1.0000
  Fe  Fe92      1.0  0.54408  0.16066  0.11346  1.0000
  S   S190      1.0  0.55606  0.18559  0.12794  1.0000
  S   S191      1.0  0.55038  0.15147  0.07019  1.0000
  Fe  Fe93      1.0  0.52460  0.14900  0.17237  1.0000
  S   S192      1.0  0.53436  0.17347  0.19126  1.0000
  H   H751      1.0  0.53145  0.10237  0.31202  1.0000
  Fe  Fe94      1.0  0.53162  0.18431  0.14712  1.0000
  S   S193      1.0  0.52422  0.20640  0.13487  1.0000
  Fe  Fe95      1.0  0.55825  0.17354  0.17089  1.0000
  S   S194      1.0  0.58044  0.18267  0.19633  1.0000
  S   S195      1.0  0.51932  0.15990  0.12977  1.0000
  S   S196      1.0  0.54891  0.14865  0.15497  1.0000
  Fe  Fe96      1.0  0.69633  0.17370  0.13559  1.0000
  S   S197      1.0  0.68917  0.19604  0.13561  1.0000
  S   S198      1.0  0.71123  0.17337  0.09383  1.0000
  Fe  Fe97      1.0  0.67918  0.16175  0.19723  1.0000
  S   S199      1.0  0.67110  0.18378  0.20019  1.0000
  S   S200      1.0  0.66971  0.13851  0.22776  1.0000
  Fe  Fe98      1.0  0.66506  0.17999  0.15337  1.0000
  S   S201      1.0  0.64348  0.17963  0.12802  1.0000
  Fe  Fe99      1.0  0.69651  0.19798  0.18186  1.0000
  S   S202      1.0  0.71036  0.22410  0.19178  1.0000
  S   S203      1.0  0.67174  0.15741  0.15091  1.0000
  S   S204      1.0  0.70505  0.17620  0.18138  1.0000
  C   C463      1.0  0.66104  0.13232  0.26427  1.0000
  C   C464      1.0  0.65955  0.14331  0.28466  1.0000
  C   C465      1.0  0.65232  0.13770  0.31298  1.0000
  C   C466      1.0  0.74110  0.21655  0.07893  1.0000
  C   C467      1.0  0.64759  0.11007  0.30087  1.0000
  C   C468      1.0  0.65498  0.11568  0.27266  1.0000
  H   H752      1.0  0.66419  0.15613  0.27884  1.0000
  H   H753      1.0  0.74464  0.22672  0.06198  1.0000
  H   H754      1.0  0.64314  0.09726  0.30687  1.0000
  H   H755      1.0  0.65604  0.10701  0.25721  1.0000
  C   C469      1.0  0.70176  0.16740  0.06097  1.0000
  C   C470      1.0  0.70834  0.17627  0.03456  1.0000
  H   H756      1.0  0.53122  0.29347  0.22055  1.0000
  H   H757      1.0  0.53793  0.32075  0.28215  1.0000
  C   C471      1.0  0.68861  0.15325  0.06037  1.0000
  H   H758      1.0  0.71866  0.18708  0.03468  1.0000
  H   H759      1.0  0.67260  0.17635  0.04421  1.0000
  H   H760      1.0  0.51580  0.27677  0.27841  1.0000
  H   H761      1.0  0.68363  0.14616  0.08048  1.0000
  C   C472      1.0  0.70187  0.17103  0.00778  1.0000
  H   H762      1.0  0.67770  0.18825  0.01028  1.0000
  C   C473      1.0  0.50882  0.12461  0.07310  1.0000
  H   H763      1.0  0.55959  0.31487  0.25360  1.0000
  N   N49       1.0  0.73973  0.22229  0.10844  1.0000
  C   C474      1.0  0.59799  0.18196  0.17736  1.0000
  C   C475      1.0  0.59728  0.17625  0.14935  1.0000
  C   C476      1.0  0.61139  0.17577  0.13429  1.0000
  C   C477      1.0  0.62622  0.18085  0.14728  1.0000
  C   C478      1.0  0.62698  0.18668  0.17524  1.0000
  C   C479      1.0  0.61286  0.18729  0.19025  1.0000
  H   H764      1.0  0.58585  0.17216  0.13925  1.0000
  H   H765      1.0  0.61077  0.17129  0.11262  1.0000
  H   H766      1.0  0.63847  0.19089  0.18509  1.0000
  H   H767      1.0  0.61345  0.19184  0.21186  1.0000
  C   C480      1.0  0.66919  0.18523  0.03002  1.0000
  H   H768      1.0  0.72311  0.19962  0.12541  1.0000
  C   C481      1.0  0.53109  0.16151  0.03205  1.0000
  C   C482      1.0  0.54386  0.15530  0.03525  1.0000
  C   C483      1.0  0.53264  0.30758  0.28847  1.0000
  H   H769      1.0  0.67282  0.13639  0.03315  1.0000
  H   H770      1.0  0.64929  0.20211  0.01577  1.0000
  H   H771      1.0  0.52538  0.16480  0.05108  1.0000
  H   H772      1.0  0.51586  0.29851  0.24140  1.0000
  H   H773      1.0  0.60054  0.14316  0.23151  1.0000
  C   C484      1.0  0.53245  0.32067  0.04482  1.0000
  C   C485      1.0  0.52915  0.28033  0.27451  1.0000
  H   H774      1.0  0.53420  0.27727  0.29495  1.0000
  H   H775      1.0  0.64440  0.16519  0.06340  1.0000
  C   C486      1.0  0.64810  0.19100  0.00392  1.0000
  C   C487      1.0  0.52915  0.30396  0.04388  1.0000
  H   H776      1.0  0.61358  0.11498  0.22062  1.0000
  H   H777      1.0  0.60829  0.15389  0.19708  1.0000
  H   H778      1.0  0.51874  0.12423  0.05735  1.0000
  H   H779      1.0  0.54974  0.09988  0.29723  1.0000
  C   C488      1.0  0.54151  0.25642  0.17343  1.0000
  C   C489      1.0  0.54118  0.24249  0.19032  1.0000
  C   C490      1.0  0.53612  0.22712  0.17871  1.0000
  C   C491      1.0  0.53125  0.22552  0.15009  1.0000
  C   C492      1.0  0.53153  0.23945  0.13325  1.0000
  C   C493      1.0  0.53675  0.25484  0.14474  1.0000
  H   H780      1.0  0.54467  0.24355  0.21263  1.0000
  H   H781      1.0  0.53558  0.21645  0.19210  1.0000
  H   H782      1.0  0.52762  0.23832  0.11119  1.0000
  H   H783      1.0  0.53686  0.26543  0.13153  1.0000
  H   H784      1.0  0.67123  0.19637  0.04219  1.0000
  H   H785      1.0  0.52812  0.29664  0.06393  1.0000
  H   H786      1.0  0.53214  0.11600  0.09862  1.0000
  C   C494      1.0  0.73694  0.25160  0.18631  1.0000
  H   H787      1.0  0.52537  0.12897  0.12114  1.0000
  C   C495      1.0  0.73141  0.23478  0.19282  1.0000
  C   C496      1.0  0.52914  0.30104  0.23821  1.0000
  S   S205      1.0  0.53480  0.33048  0.07808  1.0000
  H   H788      1.0  0.72563  0.23458  0.13162  1.0000
  C   C497      1.0  0.50473  0.11474  0.22601  1.0000
  C   C498      1.0  0.65022  0.16413  0.00547  1.0000
  H   H789      1.0  0.55961  0.29915  0.28009  1.0000
  H   H790      1.0  0.51359  0.32727  0.23569  1.0000
  C   C499      1.0  0.55112  0.15112  0.01016  1.0000
  H   H791      1.0  0.56099  0.14627  0.01237  1.0000
  N   N50       1.0  0.65225  0.17868  0.02211  1.0000
  C   C500      1.0  0.54372  0.10236  0.31750  1.0000
  H   H792      1.0  0.51210  0.13722  0.08013  1.0000
  N   N51       1.0  0.58400  0.22915  0.16281  1.0000
  C   C501      1.0  0.59467  0.24456  0.17270  1.0000
  C   C502      1.0  0.57398  0.23256  0.13985  1.0000
  C   C503      1.0  0.57342  0.21982  0.18781  1.0000
  C   C504      1.0  0.59395  0.21970  0.15100  1.0000
  H   H793      1.0  0.60233  0.24242  0.19014  1.0000
  H   H794      1.0  0.58753  0.25201  0.18170  1.0000
  H   H795      1.0  0.60285  0.25190  0.15440  1.0000
  H   H796      1.0  0.56509  0.22126  0.13299  1.0000
  H   H797      1.0  0.56695  0.24036  0.14761  1.0000
  H   H798      1.0  0.58149  0.23886  0.12004  1.0000
  H   H799      1.0  0.58053  0.21637  0.20499  1.0000
  H   H800      1.0  0.56476  0.20838  0.18095  1.0000
  H   H801      1.0  0.56625  0.22682  0.19811  1.0000
  H   H802      1.0  0.58631  0.20790  0.14370  1.0000
  H   H803      1.0  0.60163  0.21690  0.16783  1.0000
  H   H804      1.0  0.60206  0.22625  0.13200  1.0000
  H   H805      1.0  0.53458  0.31390  0.23015  1.0000
  H   H806      1.0  0.51961  0.13537  0.24677  1.0000
  H   H807      1.0  0.64274  0.18507  0.06219  1.0000
  C   C505      1.0  0.49956  0.09866  0.28276  1.0000
  C   C506      1.0  0.72737  0.23056  0.10939  1.0000
  H   H808      1.0  0.63293  0.12363  0.23494  1.0000
  S   S206      1.0  0.50706  0.12440  0.19015  1.0000
  C   C507      1.0  0.68254  0.14770  0.03350  1.0000
  C   C508      1.0  0.52191  0.11658  0.11340  1.0000
  H   H809      1.0  0.53169  0.27264  0.25733  1.0000
  H   H810      1.0  0.73350  0.21199  0.15237  1.0000
  C   C509      1.0  0.73493  0.20830  0.12994  1.0000
  H   H811      1.0  0.51494  0.12148  0.29629  1.0000
  H   H812      1.0  0.72940  0.20784  0.07319  1.0000
  C   C510      1.0  0.53358  0.32997  0.01859  1.0000
  H   H813      1.0  0.73863  0.21422  0.20549  1.0000
  H   H814      1.0  0.53768  0.30530  0.30944  1.0000
  C   C511      1.0  0.50944  0.11490  0.27800  1.0000
  H   H815      1.0  0.72834  0.25776  0.18127  1.0000
  N   N52       1.0  0.53620  0.29768  0.26541  1.0000
  C   C512      1.0  0.51211  0.12285  0.24987  1.0000
  H   H816      1.0  0.53958  0.07059  0.31303  1.0000
  C   C513      1.0  0.55387  0.30179  0.26019  1.0000
  N   N53       1.0  0.62313  0.14091  0.21522  1.0000
  C   C514      1.0  0.63270  0.15451  0.23165  1.0000
  C   C515      1.0  0.63170  0.14102  0.18670  1.0000
  C   C516      1.0  0.60714  0.14264  0.21048  1.0000
  C   C517      1.0  0.62107  0.12550  0.23199  1.0000
  H   H817      1.0  0.62694  0.15454  0.25373  1.0000
  H   H818      1.0  0.63420  0.16635  0.21998  1.0000
  H   H819      1.0  0.64502  0.15383  0.23475  1.0000
  H   H820      1.0  0.62469  0.13122  0.17328  1.0000
  H   H821      1.0  0.63401  0.15269  0.17381  1.0000
  H   H822      1.0  0.64362  0.13924  0.18959  1.0000
  H   H823      1.0  0.51218  0.09515  0.07255  1.0000
  H   H824      1.0  0.56607  0.32269  0.01491  1.0000
  C   C518      1.0  0.64149  0.17437  0.04903  1.0000
  H   H825      1.0  0.52305  0.28359  0.01665  1.0000
  C   C519      1.0  0.50252  0.09635  0.08804  1.0000
  H   H826      1.0  0.52077  0.10821  0.13297  1.0000
  N   N54       1.0  0.50670  0.11288  0.09834  1.0000
  C   C520      1.0  0.52539  0.16307  0.00419  1.0000
  C   C521      1.0  0.64631  0.12106  0.32142  1.0000
  H   H827      1.0  0.56451  0.32345  0.05389  1.0000
  Fe  Fe100     1.0  0.54405  0.32274  0.11998  1.0000
  H   H828      1.0  0.73078  0.24143  0.09397  1.0000
  H   H829      1.0  0.55697  0.29478  0.24240  1.0000
  H   H830      1.0  0.58054  0.31772  0.03696  1.0000
  C   C522      1.0  0.68915  0.15653  0.00709  1.0000
  H   H831      1.0  0.74385  0.20162  0.12982  1.0000
  C   C523      1.0  0.52632  0.29660  0.01704  1.0000
  H   H832      1.0  0.65327  0.15454  0.01841  1.0000
  H   H833      1.0  0.51520  0.16744  0.00213  1.0000
  H   H834      1.0  0.55050  0.11477  0.32354  1.0000
  H   H835      1.0  0.65152  0.14637  0.32862  1.0000
  H   H836      1.0  0.52118  0.07335  0.32681  1.0000
  H   H837      1.0  0.62859  0.16934  0.04400  1.0000
  C   C524      1.0  0.57323  0.32599  0.03450  1.0000
  H   H838      1.0  0.50089  0.08724  0.10660  1.0000
  Fe  Fe101     1.0  0.57722  0.33115  0.14448  1.0000
  H   H839      1.0  0.56593  0.08785  0.32889  1.0000
  C   C525      1.0  0.53361  0.07396  0.33247  1.0000
  Fe  Fe102     1.0  0.54840  0.33250  0.18421  1.0000
  H   H840      1.0  0.53210  0.01288  0.63668  1.0000
  Fe  Fe103     1.0  0.61759  0.08583  0.65844  1.0000
  S   S207      1.0  0.50556  0.05546  0.56496  1.0000
  S   S208      1.0  0.62130  0.09832  0.61270  1.0000
  Fe  Fe104     1.0  0.62343  0.09149  0.38556  1.0000
  S   S209      1.0  0.61326  0.09531  0.43017  1.0000
  C   C526      1.0  0.63778  0.02597  0.41270  1.0000
  Fe  Fe105     1.0  0.60650  0.05442  0.39375  1.0000
  S   S210      1.0  0.59501  0.05593  0.43742  1.0000
  Fe  Fe106     1.0  0.59033  0.07756  0.41729  1.0000
  S   S211      1.0  0.56605  0.07940  0.43023  1.0000
  Fe  Fe107     1.0  0.61889  0.07336  0.44727  1.0000
  S   S212      1.0  0.62668  0.06653  0.49142  1.0000
  S   S213      1.0  0.59974  0.07488  0.37204  1.0000
  S   S214      1.0  0.63113  0.07081  0.40414  1.0000
  H   H841      1.0  0.58001  0.01107  0.64321  1.0000
  C   C527      1.0  0.55192  0.06222  0.41807  1.0000
  C   C528      1.0  0.55705  0.05269  0.39868  1.0000
  C   C529      1.0  0.54577  0.04088  0.38428  1.0000
  C   C530      1.0  0.52930  0.03824  0.38997  1.0000
  C   C531      1.0  0.52416  0.04651  0.41178  1.0000
  C   C532      1.0  0.53547  0.05878  0.42546  1.0000
  H   H842      1.0  0.56970  0.05497  0.39342  1.0000
  H   H843      1.0  0.61348  0.02799  0.47130  1.0000
  H   H844      1.0  0.51143  0.04377  0.41749  1.0000
  H   H845      1.0  0.53141  0.06586  0.44097  1.0000
  H   H846      1.0  0.54994  0.03460  0.36756  1.0000
  N   N55       1.0  0.54280  0.09019  0.34146  1.0000
  H   H847      1.0  0.68220  0.14436  0.64572  1.0000
  C   C533      1.0  0.62134  0.08856  0.57946  1.0000
  C   C534      1.0  0.62391  0.07358  0.57852  1.0000
  C   C535      1.0  0.62525  0.06690  0.55145  1.0000
  C   C536      1.0  0.62369  0.07491  0.52504  1.0000
  C   C537      1.0  0.62049  0.08959  0.52605  1.0000
  C   C538      1.0  0.61951  0.09645  0.55308  1.0000
  H   H848      1.0  0.62539  0.06738  0.59858  1.0000
  H   H849      1.0  0.62776  0.05556  0.55099  1.0000
  H   H850      1.0  0.61942  0.09598  0.50593  1.0000
  H   H851      1.0  0.61763  0.10809  0.55351  1.0000
  N   N56       1.0  0.56295  0.07593  0.52111  1.0000
  C   C539      1.0  0.54981  0.06416  0.53959  1.0000
  C   C540      1.0  0.57119  0.06724  0.50235  1.0000
  C   C541      1.0  0.57477  0.08636  0.53985  1.0000
  C   C542      1.0  0.55603  0.08600  0.50256  1.0000
  H   H852      1.0  0.54318  0.07032  0.55375  1.0000
  H   H853      1.0  0.55452  0.05641  0.55411  1.0000
  H   H854      1.0  0.54069  0.05609  0.52613  1.0000
  H   H855      1.0  0.57668  0.05958  0.51550  1.0000
  H   H856      1.0  0.56269  0.05933  0.48771  1.0000
  H   H857      1.0  0.58109  0.07582  0.48798  1.0000
  H   H858      1.0  0.58479  0.09544  0.52653  1.0000
  H   H859      1.0  0.58038  0.07918  0.55394  1.0000
  H   H860      1.0  0.56899  0.09306  0.55447  1.0000
  H   H861      1.0  0.56555  0.09497  0.48809  1.0000
  H   H862      1.0  0.54967  0.09272  0.51592  1.0000
  H   H863      1.0  0.54712  0.07848  0.48805  1.0000
  S   S215      1.0  0.60495  0.03040  0.37424  1.0000
  H   H864      1.0  0.49839  0.05444  0.45930  1.0000
  H   H865      1.0  0.56732  0.03738  0.63032  1.0000
  H   H866      1.0  0.64619  0.00973  0.45708  1.0000
  C   C543      1.0  0.53454  0.09389  0.36772  1.0000
  C   C544      1.0  0.54163  0.00036  0.34406  1.0000
  C   C545      1.0  0.65864  0.11583  0.64504  1.0000
  S   S216      1.0  0.63758  0.11485  0.35787  1.0000
  H   H867      1.0  0.54121  0.10596  0.37538  1.0000
  H   H868      1.0  0.61621  0.03808  0.43583  1.0000
  N   N57       1.0  0.63344  0.02603  0.44419  1.0000
  C   C546      1.0  0.59349  0.00947  0.37909  1.0000
  S   S217      1.0  0.51330  0.06253  0.64601  1.0000
  H   H869      1.0  0.60783  0.01660  0.43932  1.0000
  H   H870      1.0  0.51387  0.05551  0.50364  1.0000
  H   H871      1.0  0.56651  0.10254  0.35548  1.0000
  H   H872      1.0  0.53236  0.06451  0.35026  1.0000
  H   H873      1.0  0.61004  0.00356  0.34901  1.0000
  H   H874      1.0  0.57478  0.01111  0.40987  1.0000
  C   C547      1.0  0.61699  0.02715  0.44796  1.0000
  H   H875      1.0  0.53343  0.08482  0.38614  1.0000
  C   C548      1.0  0.54218  0.00944  0.62613  1.0000
  H   H876      1.0  0.65760  0.03980  0.45414  1.0000
  H   H877      1.0  0.63754  0.03723  0.40064  1.0000
  H   H878      1.0  0.54577  0.01663  0.60491  1.0000
  H   H879      1.0  0.62906  0.01572  0.40241  1.0000
  C   C549      1.0  0.64500  0.04009  0.45674  1.0000
  H   H880      1.0  0.57268  0.01392  0.60847  1.0000
  H   H881      1.0  0.55897  0.08146  0.36605  1.0000
  H   H882      1.0  0.64201  0.04058  0.48046  1.0000
  H   H883      1.0  0.52211  0.09391  0.36328  1.0000
  H   H884      1.0  0.55247  0.00206  0.35697  1.0000
  S   S218      1.0  0.51547  0.02678  0.36666  1.0000
  C   C550      1.0  0.57935  0.00305  0.39750  1.0000
  C   C551      1.0  0.68499  0.13365  0.65514  1.0000
  H   H885      1.0  0.64475  0.05169  0.44607  1.0000
  C   C552      1.0  0.50128  0.05466  0.50589  1.0000
  C   C553      1.0  0.55928  0.09055  0.34817  1.0000
  H   H886      1.0  0.65008  0.02503  0.40886  1.0000
  H   H887      1.0  0.63056  0.01061  0.48311  1.0000
  C   C554      1.0  0.56204  0.02980  0.65063  1.0000
  H   H888      1.0  0.69089  0.12887  0.63732  1.0000
  H   H889      1.0  0.64731  0.10657  0.65403  1.0000
  H   H890      1.0  0.65511  0.12598  0.63518  1.0000
  H   H891      1.0  0.66365  0.11034  0.62707  1.0000
  N   N58       1.0  0.55593  0.01243  0.64508  1.0000
  H   H892      1.0  0.55226  0.03413  0.65969  1.0000
  C   C555      1.0  0.56902  0.00770  0.63051  1.0000
  H   H893      1.0  0.53826  0.01158  0.34461  1.0000
  C   C556      1.0  0.63392  0.01095  0.45935  1.0000
  H   H894      1.0  0.57167  0.03226  0.66657  1.0000
  H   H895      1.0  0.68026  0.10181  0.66328  1.0000
  H   H896      1.0  0.62532  0.00014  0.45031  1.0000
  Fe  Fe108     1.0  0.55433  0.29841  0.86431  1.0000
  S   S219      1.0  0.52794  0.29413  0.87339  1.0000
  S   S220      1.0  0.56415  0.27871  0.84850  1.0000
  H   H897      1.0  0.63763  0.15896  0.99880  1.0000
  C   C557      1.0  0.53261  0.15886  0.97908  1.0000
  Fe  Fe109     1.0  0.53524  0.30700  0.91450  1.0000
  S   S221      1.0  0.52206  0.29617  0.95799  1.0000
  C   C558      1.0  0.50304  0.10033  0.72506  1.0000
  S   S222      1.0  0.56143  0.30976  0.90695  1.0000
  Fe  Fe110     1.0  0.53394  0.16004  0.89757  1.0000
  S   S223      1.0  0.55277  0.18234  0.87711  1.0000
  S   S224      1.0  0.52440  0.16055  0.94479  1.0000
  Fe  Fe111     1.0  0.52648  0.14484  0.83662  1.0000
  S   S225      1.0  0.54412  0.16685  0.81287  1.0000
  H   H898      1.0  0.52261  0.28182  0.74372  1.0000
  Fe  Fe112     1.0  0.56028  0.16529  0.84886  1.0000
  S   S226      1.0  0.58554  0.16600  0.83512  1.0000
  Fe  Fe113     1.0  0.53488  0.18204  0.84343  1.0000
  S   S227      1.0  0.52671  0.20406  0.83306  1.0000
  S   S228      1.0  0.54311  0.14292  0.87196  1.0000
  S   S229      1.0  0.51567  0.16005  0.86440  1.0000
  Fe  Fe114     1.0  0.67698  0.16888  0.86806  1.0000
  S   S230      1.0  0.67612  0.19431  0.87287  1.0000
  S   S231      1.0  0.66763  0.15934  0.82393  1.0000
  Fe  Fe115     1.0  0.68294  0.16538  0.93367  1.0000
  S   S232      1.0  0.68195  0.18995  0.94183  1.0000
  S   S233      1.0  0.68163  0.14874  0.97372  1.0000
  Fe  Fe116     1.0  0.66089  0.18401  0.91386  1.0000
  S   S234      1.0  0.63726  0.18682  0.92987  1.0000
  Fe  Fe117     1.0  0.69767  0.19821  0.90024  1.0000
  S   S235      1.0  0.71619  0.22272  0.90782  1.0000
  S   S236      1.0  0.66068  0.15876  0.90817  1.0000
  S   S237      1.0  0.69985  0.17345  0.89307  1.0000
  Fe  Fe118     1.0  0.63088  0.08559  0.71995  1.0000
  S   S238      1.0  0.65165  0.09631  0.74954  1.0000
  H   H899      1.0  0.56473  0.29790  0.79245  1.0000
  Fe  Fe119     1.0  0.59554  0.07966  0.71397  1.0000
  S   S239      1.0  0.57394  0.08441  0.73466  1.0000
  H   H900      1.0  0.53321  0.26173  0.76944  1.0000
  S   S240      1.0  0.60884  0.06539  0.73780  1.0000
  C   C559      1.0  0.50337  0.09014  0.74924  1.0000
  C   C560      1.0  0.74116  0.25121  0.90029  1.0000
  H   H901      1.0  0.55592  0.09741  0.78041  1.0000
  C   C561      1.0  0.55772  0.06731  0.72853  1.0000
  H   H902      1.0  0.51327  0.13623  0.75893  1.0000
  C   C562      1.0  0.51048  0.11316  0.78079  1.0000
  C   C563      1.0  0.54270  0.06886  0.72287  1.0000
  H   H903      1.0  0.50941  0.32282  0.94152  1.0000
  H   H904      1.0  0.52139  0.19212  0.96619  1.0000
  C   C564      1.0  0.53059  0.05574  0.71300  1.0000
  C   C565      1.0  0.66267  0.14116  0.80499  1.0000
  C   C566      1.0  0.65228  0.13949  0.78190  1.0000
  C   C567      1.0  0.64806  0.12548  0.76584  1.0000
  C   C568      1.0  0.65476  0.11319  0.77179  1.0000
  C   C569      1.0  0.66514  0.11485  0.79488  1.0000
  C   C570      1.0  0.66886  0.12859  0.81172  1.0000
  H   H905      1.0  0.64750  0.14917  0.77633  1.0000
  H   H906      1.0  0.64001  0.12445  0.74832  1.0000
  H   H907      1.0  0.67047  0.10548  0.79968  1.0000
  H   H908      1.0  0.67694  0.12969  0.82925  1.0000
  H   H909      1.0  0.53085  0.21118  0.98140  1.0000
  S   S241      1.0  0.51462  0.12033  0.81650  1.0000
  Fe  Fe120     1.0  0.50378  0.03816  0.66978  1.0000
  H   H910      1.0  0.55712  0.31240  0.77438  1.0000
  H   H911      1.0  0.53812  0.28485  0.81788  1.0000
  H   H912      1.0  0.57173  0.05103  0.73138  1.0000
  C   C571      1.0  0.59977  0.17338  0.86120  1.0000
  C   C572      1.0  0.61625  0.17766  0.85292  1.0000
  C   C573      1.0  0.62781  0.18208  0.87385  1.0000
  C   C574      1.0  0.62294  0.18246  0.90316  1.0000
  C   C575      1.0  0.60647  0.17870  0.91134  1.0000
  C   C576      1.0  0.59487  0.17409  0.89040  1.0000
  H   H913      1.0  0.62012  0.17744  0.83027  1.0000
  H   H914      1.0  0.64049  0.18512  0.86730  1.0000
  H   H915      1.0  0.60265  0.17900  0.93398  1.0000
  H   H916      1.0  0.58216  0.17076  0.89696  1.0000
  C   C577      1.0  0.55337  0.25771  0.84759  1.0000
  C   C578      1.0  0.53649  0.25183  0.84796  1.0000
  C   C579      1.0  0.52852  0.23537  0.84375  1.0000
  C   C580      1.0  0.53726  0.22449  0.83998  1.0000
  C   C581      1.0  0.55408  0.23023  0.84089  1.0000
  C   C582      1.0  0.56207  0.24678  0.84423  1.0000
  H   H917      1.0  0.52956  0.25999  0.85069  1.0000
  H   H918      1.0  0.51551  0.23103  0.84319  1.0000
  H   H919      1.0  0.56099  0.22205  0.83789  1.0000
  H   H920      1.0  0.57513  0.25118  0.84376  1.0000
  H   H921      1.0  0.55132  0.14971  0.96313  1.0000
  C   C583      1.0  0.55701  0.13668  0.77955  1.0000
  N   N59       1.0  0.54258  0.28760  0.77145  1.0000
  C   C584      1.0  0.53237  0.28747  0.79800  1.0000
  C   C585      1.0  0.55844  0.30019  0.77291  1.0000
  H   H922      1.0  0.67103  0.13190  0.70948  1.0000
  H   H923      1.0  0.55720  0.21140  0.95923  1.0000
  H   H924      1.0  0.54070  0.08039  0.72441  1.0000
  H   H925      1.0  0.56277  0.14785  0.76533  1.0000
  H   H926      1.0  0.50072  0.07732  0.74678  1.0000
  C   C586      1.0  0.53337  0.04099  0.70940  1.0000
  H   H927      1.0  0.70716  0.17785  0.98755  1.0000
  C   C587      1.0  0.54567  0.15306  0.98217  1.0000
  H   H928      1.0  0.54777  0.19248  0.94367  1.0000
  C   C588      1.0  0.53458  0.29115  0.74550  1.0000
  N   N60       1.0  0.61903  0.13131  0.85990  1.0000
  C   C589      1.0  0.61737  0.14017  0.88593  1.0000
  C   C590      1.0  0.60426  0.11735  0.85810  1.0000
  C   C591      1.0  0.63314  0.12556  0.86209  1.0000
  C   C592      1.0  0.62134  0.14220  0.83340  1.0000
  H   H929      1.0  0.62820  0.15094  0.88759  1.0000
  H   H930      1.0  0.61590  0.13248  0.90646  1.0000
  H   H931      1.0  0.60678  0.14462  0.88510  1.0000
  H   H932      1.0  0.60214  0.10890  0.87780  1.0000
  H   H933      1.0  0.59341  0.12134  0.85640  1.0000
  H   H934      1.0  0.60515  0.11040  0.83867  1.0000
  H   H935      1.0  0.63487  0.11895  0.84266  1.0000
  H   H936      1.0  0.63191  0.11736  0.88188  1.0000
  H   H937      1.0  0.64448  0.13583  0.86342  1.0000
  H   H938      1.0  0.62278  0.13597  0.81335  1.0000
  H   H939      1.0  0.63238  0.15293  0.83411  1.0000
  H   H940      1.0  0.61090  0.14675  0.83097  1.0000
  H   H941      1.0  0.56126  0.13919  0.80190  1.0000
  C   C593      1.0  0.55430  0.11931  0.73924  1.0000
  H   H942      1.0  0.56655  0.30057  0.75334  1.0000
  H   H943      1.0  0.53037  0.23228  0.92622  1.0000
  H   H944      1.0  0.58442  0.13676  0.75015  1.0000
  H   H945      1.0  0.53036  0.29935  0.80023  1.0000
  N   N61       1.0  0.53632  0.21056  0.93542  1.0000
  H   H946      1.0  0.55235  0.27114  0.74955  1.0000
  H   H947      1.0  0.52395  0.18919  0.91360  1.0000
  C   C594      1.0  0.74272  0.23090  0.86728  1.0000
  H   H948      1.0  0.53656  0.20564  0.89023  1.0000
  C   C595      1.0  0.51058  0.12341  0.75644  1.0000
  C   C596      1.0  0.50672  0.11700  0.72892  1.0000
  H   H949      1.0  0.55821  0.11028  0.81065  1.0000
  H   H950      1.0  0.55129  0.26883  0.78862  1.0000
  H   H951      1.0  0.54014  0.00555  0.68405  1.0000
  C   C597      1.0  0.55089  0.20583  0.93995  1.0000
  H   H952      1.0  0.58387  0.12918  0.78727  1.0000
  H   H953      1.0  0.54998  0.02760  0.71578  1.0000
  H   H954      1.0  0.52031  0.27809  0.79786  1.0000
  H   H955      1.0  0.49957  0.31286  0.88122  1.0000
  H   H956      1.0  0.53247  0.30305  0.74656  1.0000
  S   S242      1.0  0.61732  0.10029  0.69803  1.0000
  H   H957      1.0  0.73772  0.21899  0.85924  1.0000
  H   H958      1.0  0.51397  0.20876  0.95896  1.0000
  H   H959      1.0  0.55966  0.20956  0.92059  1.0000
  H   H960      1.0  0.51931  0.05726  0.70738  1.0000
  H   H961      1.0  0.54378  0.13462  0.78083  1.0000
  H   H962      1.0  0.54089  0.11599  0.74049  1.0000
  C   C598      1.0  0.52750  0.30592  0.99081  1.0000
  H   H963      1.0  0.58188  0.11577  0.75797  1.0000
  H   H964      1.0  0.51754  0.20634  0.90497  1.0000
  S   S243      1.0  0.55874  0.32248  0.83908  1.0000
  C   C599      1.0  0.56019  0.05232  0.72657  1.0000
  H   H965      1.0  0.55742  0.10907  0.72978  1.0000
  S   S244      1.0  0.51344  0.32198  0.82062  1.0000
  H   H966      1.0  0.54201  0.29153  0.72500  1.0000
  C   C600      1.0  0.53156  0.32271  0.99164  1.0000
  C   C601      1.0  0.50685  0.09649  0.77689  1.0000
  C   C602      1.0  0.54787  0.03906  0.71764  1.0000
  H   H967      1.0  0.73482  0.25505  0.91784  1.0000
  C   C603      1.0  0.52820  0.20258  0.91003  1.0000
  C   C604      1.0  0.54106  0.22829  0.92981  1.0000
  S   S245      1.0  0.51957  0.02583  0.69127  1.0000
  Fe  Fe121     1.0  0.53253  0.31880  0.85074  1.0000
  C   C605      1.0  0.54494  0.27163  0.76960  1.0000
  C   C606      1.0  0.58449  0.01016  0.72859  1.0000
  C   C607      1.0  0.55349  0.10830  0.78856  1.0000
  H   H968      1.0  0.55917  0.12999  0.72353  1.0000
  H   H969      1.0  0.54734  0.23478  0.94839  1.0000
  C   C608      1.0  0.73446  0.23568  0.89012  1.0000
  N   N62       1.0  0.56083  0.12264  0.76829  1.0000
  H   H970      1.0  0.58662  0.02135  0.73936  1.0000
  H   H971      1.0  0.54015  0.10543  0.79128  1.0000
  Fe  Fe122     1.0  0.60963  0.05393  0.69496  1.0000
  H   H972      1.0  0.54937  0.23239  0.90984  1.0000
  S   S246      1.0  0.53716  0.33104  0.89299  1.0000
  C   C609      1.0  0.59243  0.01011  0.70148  1.0000
  C   C610      1.0  0.57855  0.12624  0.76584  1.0000
  S   S247      1.0  0.60552  0.02797  0.68300  1.0000
  C   C611      1.0  0.52514  0.20548  0.96169  1.0000
  H   H973      1.0  0.50650  0.12504  0.71047  1.0000
  S   S248      1.0  0.63316  0.07274  0.67886  1.0000
  C   C612      1.0  0.67447  0.10726  0.68022  1.0000
  S   S249      1.0  0.59432  0.06665  0.67265  1.0000
  H   H974      1.0  0.63549  0.18636  0.99697  1.0000
  H   H975      1.0  0.53254  0.33007  0.97167  1.0000
  H   H976      1.0  0.50676  0.08840  0.79546  1.0000
  H   H977      1.0  0.50255  0.29964  0.90993  1.0000
  H   H978      1.0  0.65826  0.16693  0.98513  1.0000
  C   C613      1.0  0.55047  0.00279  0.67307  1.0000
  H   H979      1.0  0.65160  0.11897  0.70132  1.0000
  H   H980      1.0  0.68282  0.11075  0.69818  1.0000
  N   N63       1.0  0.67023  0.12120  0.66793  1.0000
  C   C614      1.0  0.49975  0.32682  0.93190  1.0000
  H   H981      1.0  0.66358  0.09758  0.68980  1.0000
  C   C615      1.0  0.66281  0.12806  0.69142  1.0000
  H   H982      1.0  0.56026  0.00535  0.68851  1.0000
  H   H983      1.0  0.65951  0.13868  0.68315  1.0000
  H   H984      1.0  0.69395  0.13796  0.67191  1.0000
  H   H985      1.0  0.65610  0.19463  0.98355  1.0000
  H   H986      1.0  0.51845  0.61485  0.31790  1.0000
  H   H987      1.0  0.60752  0.38725  0.23011  1.0000
  S   S250      1.0  0.60287  0.34545  0.12942  1.0000
  H   H988      1.0  0.54709  0.36964  0.26772  1.0000
  Fe  Fe123     1.0  0.66717  0.45174  0.21769  1.0000
  S   S251      1.0  0.67905  0.43288  0.22875  1.0000
  S   S252      1.0  0.66389  0.47079  0.24797  1.0000
  Fe  Fe124     1.0  0.66416  0.44263  0.15340  1.0000
  S   S253      1.0  0.67524  0.42305  0.16033  1.0000
  S   S254      1.0  0.65558  0.44893  0.10975  1.0000
  Fe  Fe125     1.0  0.65986  0.41693  0.20218  1.0000
  S   S255      1.0  0.64573  0.39138  0.21871  1.0000
  Fe  Fe126     1.0  0.69363  0.44076  0.18576  1.0000
  S   S256      1.0  0.71943  0.44275  0.16957  1.0000
  S   S257      1.0  0.64722  0.43521  0.19367  1.0000
  S   S258      1.0  0.68325  0.46083  0.17642  1.0000
  C   C616      1.0  0.66188  0.44310  0.07591  1.0000
  C   C617      1.0  0.65716  0.44877  0.04976  1.0000
  H   H989      1.0  0.72233  0.38519  0.21852  1.0000
  C   C618      1.0  0.67899  0.43149  0.04726  1.0000
  C   C619      1.0  0.67254  0.43412  0.07448  1.0000
  H   H990      1.0  0.64891  0.45573  0.05065  1.0000
  C   C620      1.0  0.62812  0.46818  0.32714  1.0000
  H   H991      1.0  0.67608  0.42945  0.09433  1.0000
  H   H992      1.0  0.53972  0.65805  0.13944  1.0000
  H   H993      1.0  0.70553  0.37858  0.24515  1.0000
  C   C621      1.0  0.73788  0.44528  0.18673  1.0000
  H   H994      1.0  0.70677  0.41999  0.22016  1.0000
  H   H995      1.0  0.67950  0.37961  0.20264  1.0000
  H   H996      1.0  0.72933  0.44902  0.22966  1.0000
  C   C622      1.0  0.53551  0.36023  0.26954  1.0000
  C   C623      1.0  0.61461  0.35816  0.15446  1.0000
  C   C624      1.0  0.61254  0.35394  0.18445  1.0000
  C   C625      1.0  0.62233  0.36410  0.20393  1.0000
  C   C626      1.0  0.63397  0.37869  0.19363  1.0000
  C   C627      1.0  0.63583  0.38305  0.16371  1.0000
  C   C628      1.0  0.62633  0.37269  0.14415  1.0000
  H   H997      1.0  0.60363  0.34269  0.19254  1.0000
  H   H998      1.0  0.62085  0.36067  0.22706  1.0000
  H   H999      1.0  0.64469  0.39431  0.15554  1.0000
  H   H1000     1.0  0.62800  0.37601  0.12098  1.0000
  C   C629      1.0  0.52429  0.36013  0.29261  1.0000
  H   H1001     1.0  0.70459  0.50097  0.10451  1.0000
  S   S259      1.0  0.52773  0.42626  0.32904  1.0000
  C   C630      1.0  0.68546  0.39029  0.21518  1.0000
  C   C631      1.0  0.53436  0.64719  0.15464  1.0000
  H   H1002     1.0  0.68083  0.40015  0.20764  1.0000
  C   C632      1.0  0.63890  0.48297  0.31575  1.0000
  C   C633      1.0  0.64965  0.48350  0.29153  1.0000
  C   C634      1.0  0.64976  0.46931  0.27816  1.0000
  C   C635      1.0  0.63888  0.45453  0.28940  1.0000
  H   H1003     1.0  0.59048  0.41735  0.19670  1.0000
  H   H1004     1.0  0.68753  0.42485  0.04641  1.0000
  H   H1005     1.0  0.65800  0.49501  0.28311  1.0000
  H   H1006     1.0  0.63882  0.44350  0.27951  1.0000
  H   H1007     1.0  0.60818  0.40801  0.22917  1.0000
  C   C636      1.0  0.70893  0.38185  0.22151  1.0000
  C   C637      1.0  0.73949  0.44809  0.21638  1.0000
  H   H1008     1.0  0.58332  0.34536  0.07856  1.0000
  H   H1009     1.0  0.61575  0.40028  0.19816  1.0000
  H   H1010     1.0  0.68307  0.47358  0.07378  1.0000
  C   C638      1.0  0.62820  0.45398  0.31375  1.0000
  H   H1011     1.0  0.68120  0.38718  0.23855  1.0000
  H   H1012     1.0  0.56409  0.35169  0.04624  1.0000
  H   H1013     1.0  0.63905  0.49400  0.32573  1.0000
  N   N64       1.0  0.70326  0.39524  0.21109  1.0000
  H   H1014     1.0  0.70344  0.40885  0.17090  1.0000
  H   H1015     1.0  0.70353  0.38863  0.16648  1.0000
  C   C639      1.0  0.66344  0.44591  0.02243  1.0000
  H   H1016     1.0  0.54110  0.64919  0.17489  1.0000
  C   C640      1.0  0.70818  0.39930  0.17975  1.0000
  H   H1017     1.0  0.52091  0.66086  0.19561  1.0000
  H   H1018     1.0  0.70678  0.40709  0.25158  1.0000
  N   N65       1.0  0.58351  0.34312  0.03210  1.0000
  H   H1019     1.0  0.72394  0.41351  0.22561  1.0000
  H   H1020     1.0  0.61997  0.44247  0.32236  1.0000
  C   C641      1.0  0.59202  0.34707  0.05927  1.0000
  C   C642      1.0  0.50933  0.34795  0.29570  1.0000
  C   C643      1.0  0.71049  0.40954  0.22791  1.0000
  S   S260      1.0  0.55957  0.34463  0.14085  1.0000
  N   N66       1.0  0.51694  0.64430  0.16118  1.0000
  H   H1021     1.0  0.55769  0.45147  0.33066  1.0000
  N   N67       1.0  0.58982  0.39267  0.20397  1.0000
  C   C644      1.0  0.58738  0.37815  0.18707  1.0000
  C   C645      1.0  0.57726  0.38911  0.22820  1.0000
  C   C646      1.0  0.58864  0.40617  0.18466  1.0000
  C   C647      1.0  0.60598  0.39724  0.21591  1.0000
  H   H1022     1.0  0.59670  0.38029  0.16869  1.0000
  H   H1023     1.0  0.57530  0.37439  0.17775  1.0000
  H   H1024     1.0  0.58803  0.36767  0.20105  1.0000
  H   H1025     1.0  0.57775  0.37885  0.24300  1.0000
  H   H1026     1.0  0.57868  0.39975  0.24155  1.0000
  H   H1027     1.0  0.56491  0.38556  0.21990  1.0000
  H   H1028     1.0  0.59959  0.33922  0.06374  1.0000
  H   H1029     1.0  0.57660  0.40317  0.17526  1.0000
  H   H1030     1.0  0.59796  0.40912  0.16612  1.0000
  H   H1031     1.0  0.52731  0.36942  0.30818  1.0000
  H   H1032     1.0  0.70362  0.37080  0.20944  1.0000
  H   H1033     1.0  0.69777  0.46870  0.05085  1.0000
  H   H1034     1.0  0.72157  0.40402  0.17598  1.0000
  H   H1035     1.0  0.50174  0.65658  0.18039  1.0000
  H   H1036     1.0  0.69903  0.48946  0.05483  1.0000
  S   S261      1.0  0.54686  0.34901  0.22093  1.0000
  C   C648      1.0  0.67458  0.43745  0.02112  1.0000
  H   H1037     1.0  0.53651  0.63671  0.14428  1.0000
  C   C649      1.0  0.53188  0.34832  0.24898  1.0000
  N   N68       1.0  0.70617  0.47804  0.09201  1.0000
  C   C650      1.0  0.70290  0.46158  0.10549  1.0000
  C   C651      1.0  0.72343  0.48470  0.08218  1.0000
  C   C652      1.0  0.70218  0.48840  0.11377  1.0000
  C   C653      1.0  0.69613  0.47744  0.06672  1.0000
  H   H1038     1.0  0.69005  0.45629  0.11359  1.0000
  H   H1039     1.0  0.71037  0.46157  0.12449  1.0000
  H   H1040     1.0  0.70547  0.45327  0.08968  1.0000
  H   H1041     1.0  0.73130  0.48511  0.10075  1.0000
  H   H1042     1.0  0.72669  0.47716  0.06557  1.0000
  H   H1043     1.0  0.72643  0.49721  0.07218  1.0000
  H   H1044     1.0  0.70931  0.48892  0.13343  1.0000
  H   H1045     1.0  0.68915  0.48368  0.12139  1.0000
  C   C654      1.0  0.51031  0.62986  0.18152  1.0000
  C   C655      1.0  0.51470  0.65850  0.17482  1.0000
  C   C656      1.0  0.51677  0.33627  0.25171  1.0000
  C   C657      1.0  0.57334  0.35359  0.02779  1.0000
  H   H1046     1.0  0.51299  0.65246  0.11807  1.0000
  H   H1047     1.0  0.51624  0.63156  0.20268  1.0000
  H   H1048     1.0  0.51728  0.62888  0.27019  1.0000
  C   C658      1.0  0.50798  0.61840  0.31340  1.0000
  H   H1049     1.0  0.51187  0.61889  0.17217  1.0000
  C   C659      1.0  0.50564  0.33600  0.27515  1.0000
  H   H1050     1.0  0.58068  0.36661  0.02630  1.0000
  H   H1051     1.0  0.60008  0.35983  0.05835  1.0000
  C   C660      1.0  0.50843  0.64170  0.13379  1.0000
  C   C661      1.0  0.50726  0.62638  0.28629  1.0000
  H   H1052     1.0  0.53595  0.34287  0.01914  1.0000
  H   H1053     1.0  0.50982  0.63109  0.12279  1.0000
  H   H1054     1.0  0.60338  0.33821  0.00956  1.0000
  H   H1055     1.0  0.56682  0.35103  0.00736  1.0000
  C   C662      1.0  0.59542  0.34584  0.00696  1.0000
  H   H1056     1.0  0.60333  0.35868  0.00444  1.0000
  H   H1057     1.0  0.65999  0.45061  0.00247  1.0000
  S   S262      1.0  0.51120  0.38882  0.63549  1.0000
  S   S263      1.0  0.52137  0.38504  0.37035  1.0000
  Fe  Fe127     1.0  0.50225  0.40916  0.64782  1.0000
  C   C663      1.0  0.57175  0.42983  0.43967  1.0000
  C   C664      1.0  0.57412  0.43614  0.38762  1.0000
  H   H1058     1.0  0.53247  0.65299  0.44934  1.0000
  H   H1059     1.0  0.52425  0.39991  0.51340  1.0000
  Fe  Fe128     1.0  0.51267  0.59341  0.38984  1.0000
  S   S264      1.0  0.52278  0.57447  0.37316  1.0000
  Fe  Fe129     1.0  0.52576  0.59142  0.45098  1.0000
  S   S265      1.0  0.53703  0.57247  0.43947  1.0000
  S   S266      1.0  0.52740  0.60458  0.49305  1.0000
  Fe  Fe130     1.0  0.54497  0.58676  0.39677  1.0000
  S   S267      1.0  0.57010  0.59223  0.37588  1.0000
  Fe  Fe131     1.0  0.51426  0.56129  0.41685  1.0000
  S   S268      1.0  0.53576  0.60695  0.40977  1.0000
  H   H1060     1.0  0.54753  0.57855  0.57325  1.0000
  H   H1061     1.0  0.50813  0.66121  0.44185  1.0000
  C   C665      1.0  0.50794  0.38103  0.49053  1.0000
  C   C666      1.0  0.54939  0.45329  0.34733  1.0000
  H   H1062     1.0  0.56536  0.52701  0.36427  1.0000
  H   H1063     1.0  0.52128  0.63310  0.39587  1.0000
  C   C667      1.0  0.53769  0.53417  0.36286  1.0000
  S   S269      1.0  0.59213  0.47660  0.61509  1.0000
  H   H1064     1.0  0.57446  0.40648  0.40576  1.0000
  Fe  Fe132     1.0  0.60944  0.50035  0.44556  1.0000
  S   S270      1.0  0.59187  0.51326  0.43413  1.0000
  S   S271      1.0  0.62163  0.50697  0.48815  1.0000
  Fe  Fe133     1.0  0.60934  0.48660  0.38399  1.0000
  S   S272      1.0  0.59241  0.49955  0.36817  1.0000
  Fe  Fe134     1.0  0.60678  0.52061  0.39215  1.0000
  S   S273      1.0  0.61421  0.54671  0.37548  1.0000
  Fe  Fe135     1.0  0.57898  0.49103  0.41165  1.0000
  S   S274      1.0  0.55189  0.48094  0.41625  1.0000
  S   S275      1.0  0.62528  0.50872  0.40400  1.0000
  S   S276      1.0  0.59499  0.47713  0.42697  1.0000
  C   C668      1.0  0.52407  0.44741  0.66268  1.0000
  C   C669      1.0  0.50494  0.38470  0.54284  1.0000
  C   C670      1.0  0.54450  0.46725  0.38949  1.0000
  C   C671      1.0  0.55496  0.46516  0.36727  1.0000
  H   H1065     1.0  0.54369  0.51025  0.41868  1.0000
  H   H1066     1.0  0.50742  0.55577  0.55958  1.0000
  C   C672      1.0  0.52274  0.44548  0.37171  1.0000
  C   C673      1.0  0.52825  0.45766  0.39128  1.0000
  H   H1067     1.0  0.56751  0.47222  0.36588  1.0000
  H   H1068     1.0  0.50595  0.61224  0.43319  1.0000
  H   H1069     1.0  0.51026  0.43792  0.37335  1.0000
  H   H1070     1.0  0.52007  0.45927  0.40836  1.0000
  H   H1071     1.0  0.55372  0.44025  0.62596  1.0000
  C   C674      1.0  0.56249  0.40845  0.40666  1.0000
  H   H1072     1.0  0.58725  0.57999  0.60143  1.0000
  H   H1073     1.0  0.55282  0.51503  0.33828  1.0000
  C   C675      1.0  0.59993  0.48591  0.58008  1.0000
  C   C676      1.0  0.61357  0.49970  0.57645  1.0000
  C   C677      1.0  0.61999  0.50607  0.54815  1.0000
  C   C678      1.0  0.61269  0.49891  0.52325  1.0000
  C   C679      1.0  0.59881  0.48539  0.52689  1.0000
  C   C680      1.0  0.59257  0.47884  0.55518  1.0000
  H   H1074     1.0  0.61942  0.50518  0.59542  1.0000
  H   H1075     1.0  0.63079  0.51647  0.54556  1.0000
  H   H1076     1.0  0.59310  0.47975  0.50794  1.0000
  H   H1077     1.0  0.58202  0.46818  0.55776  1.0000
  C   C681      1.0  0.58150  0.57876  0.37681  1.0000
  C   C682      1.0  0.52486  0.60245  0.55315  1.0000
  H   H1078     1.0  0.55464  0.40002  0.42424  1.0000
  C   C683      1.0  0.60098  0.55839  0.37614  1.0000
  C   C684      1.0  0.58620  0.55367  0.39283  1.0000
  C   C685      1.0  0.57648  0.56391  0.39325  1.0000
  H   H1079     1.0  0.58245  0.54231  0.40566  1.0000
  H   H1080     1.0  0.56524  0.56050  0.40643  1.0000
  N   N69       1.0  0.50979  0.63756  0.43560  1.0000
  H   H1081     1.0  0.52957  0.61551  0.55137  1.0000
  H   H1082     1.0  0.57566  0.44907  0.39090  1.0000
  H   H1083     1.0  0.58363  0.42890  0.63359  1.0000
  H   H1084     1.0  0.56178  0.60703  0.60970  1.0000
  C   C686      1.0  0.52085  0.59427  0.58097  1.0000
  H   H1085     1.0  0.52701  0.53663  0.37314  1.0000
  C   C687      1.0  0.52260  0.59385  0.52762  1.0000
  C   C688      1.0  0.51452  0.57740  0.58343  1.0000
  H   H1086     1.0  0.53997  0.41942  0.43165  1.0000
  H   H1087     1.0  0.58764  0.60073  0.60046  1.0000
  H   H1088     1.0  0.52236  0.60105  0.60039  1.0000
  H   H1089     1.0  0.52324  0.50348  0.34917  1.0000
  H   H1090     1.0  0.53154  0.52338  0.41920  1.0000
  H   H1091     1.0  0.64974  0.57658  0.44795  1.0000
  H   H1092     1.0  0.56583  0.57397  0.56549  1.0000
  H   H1093     1.0  0.54366  0.59073  0.62050  1.0000
  N   N70       1.0  0.56397  0.58323  0.60772  1.0000
  C   C689      1.0  0.52538  0.50537  0.37264  1.0000
  H   H1094     1.0  0.58430  0.58906  0.63467  1.0000
  Fe  Fe136     1.0  0.59789  0.48796  0.65865  1.0000
  H   H1095     1.0  0.55993  0.59619  0.64443  1.0000
  C   C690      1.0  0.51639  0.57699  0.53015  1.0000
  H   H1096     1.0  0.63980  0.57791  0.48242  1.0000
  Fe  Fe137     1.0  0.50697  0.38455  0.41268  1.0000
  C   C691      1.0  0.55646  0.56704  0.62247  1.0000
  H   H1097     1.0  0.61707  0.55428  0.50367  1.0000
  S   S277      1.0  0.50215  0.57885  0.43213  1.0000
  N   N71       1.0  0.56407  0.42544  0.41186  1.0000
  H   H1098     1.0  0.55294  0.53159  0.41162  1.0000
  H   H1099     1.0  0.50920  0.39140  0.56176  1.0000
  H   H1100     1.0  0.54838  0.54500  0.36529  1.0000
  C   C692      1.0  0.50070  0.64826  0.44535  1.0000
  C   C693      1.0  0.56075  0.58257  0.57637  1.0000
  H   H1101     1.0  0.52666  0.49402  0.38268  1.0000
  H   H1102     1.0  0.53586  0.53315  0.33912  1.0000
  Fe  Fe138     1.0  0.51532  0.57365  0.66370  1.0000
  C   C694      1.0  0.55704  0.59482  0.62112  1.0000
  H   H1103     1.0  0.56603  0.59464  0.56456  1.0000
  H   H1104     1.0  0.58648  0.43508  0.38558  1.0000
  C   C695      1.0  0.59630  0.58337  0.36050  1.0000
  H   H1105     1.0  0.57276  0.44249  0.44446  1.0000
  H   H1106     1.0  0.55628  0.50566  0.37169  1.0000
  H   H1107     1.0  0.55867  0.56721  0.64615  1.0000
  C   C696      1.0  0.51230  0.56883  0.55792  1.0000
  H   H1108     1.0  0.65242  0.56523  0.47979  1.0000
  H   H1109     1.0  0.56862  0.43331  0.36628  1.0000
  H   H1110     1.0  0.53951  0.42021  0.62938  1.0000
  H   H1111     1.0  0.52119  0.63736  0.47619  1.0000
  S   S278      1.0  0.51874  0.38768  0.45623  1.0000
  S   S279      1.0  0.51541  0.43522  0.63458  1.0000
  H   H1112     1.0  0.54854  0.43997  0.41745  1.0000
  S   S280      1.0  0.61455  0.46666  0.35824  1.0000
  H   H1113     1.0  0.53151  0.63237  0.44556  1.0000
  H   H1114     1.0  0.51460  0.57023  0.51068  1.0000
  H   H1115     1.0  0.51436  0.50709  0.38321  1.0000
  C   C697      1.0  0.60597  0.57331  0.36027  1.0000
  N   N72       1.0  0.53986  0.51937  0.37631  1.0000
  H   H1116     1.0  0.52246  0.65382  0.39939  1.0000
  C   C698      1.0  0.54212  0.52125  0.40782  1.0000
  C   C699      1.0  0.51458  0.64112  0.40410  1.0000
  H   H1117     1.0  0.56142  0.55794  0.61306  1.0000
  H   H1118     1.0  0.61079  0.53610  0.48427  1.0000
  H   H1119     1.0  0.62972  0.54161  0.50076  1.0000
  H   H1120     1.0  0.58417  0.42893  0.43899  1.0000
  C   C700      1.0  0.54785  0.42730  0.41355  1.0000
  H   H1121     1.0  0.55692  0.40490  0.38560  1.0000
  Fe  Fe139     1.0  0.51162  0.40467  0.35543  1.0000
  H   H1122     1.0  0.54037  0.46546  0.63266  1.0000
  C   C701      1.0  0.58158  0.58849  0.61112  1.0000
  C   C702      1.0  0.52437  0.64027  0.45238  1.0000
  C   C703      1.0  0.51344  0.38950  0.51539  1.0000
  N   N73       1.0  0.62939  0.55580  0.46144  1.0000
  C   C704      1.0  0.63486  0.54505  0.44258  1.0000
  C   C705      1.0  0.61782  0.56191  0.44601  1.0000
  C   C706      1.0  0.64347  0.56951  0.46825  1.0000
  C   C707      1.0  0.62140  0.54663  0.48878  1.0000
  H   H1123     1.0  0.64341  0.53991  0.45351  1.0000
  H   H1124     1.0  0.64077  0.55139  0.42147  1.0000
  H   H1125     1.0  0.62449  0.53468  0.43713  1.0000
  H   H1126     1.0  0.61338  0.57011  0.45940  1.0000
  H   H1127     1.0  0.62337  0.56868  0.42501  1.0000
  H   H1128     1.0  0.60711  0.55180  0.44044  1.0000
  C   C708      1.0  0.53662  0.46174  0.65537  1.0000
  H   H1129     1.0  0.56461  0.42180  0.45835  1.0000
  C   C709      1.0  0.55420  0.51666  0.36201  1.0000
  H   H1130     1.0  0.60033  0.59483  0.34788  1.0000
  H   H1131     1.0  0.54165  0.42401  0.39299  1.0000
  H   H1132     1.0  0.61738  0.57712  0.34750  1.0000
  C   C710      1.0  0.53343  0.44309  0.35014  1.0000
  C   C711      1.0  0.49946  0.62054  0.44060  1.0000
  S   S281      1.0  0.49902  0.40555  0.39846  1.0000
  S   S282      1.0  0.50901  0.56635  0.61761  1.0000
  C   C712      1.0  0.55260  0.42718  0.62865  1.0000
  S   S283      1.0  0.50331  0.53428  0.41931  1.0000
  H   H1133     1.0  0.50384  0.63906  0.39078  1.0000
  H   H1134     1.0  0.55832  0.42407  0.60864  1.0000
  H   H1135     1.0  0.54313  0.56271  0.62047  1.0000
  C   C713      1.0  0.57756  0.43258  0.65258  1.0000
  H   H1136     1.0  0.57981  0.44584  0.64913  1.0000
  Fe  Fe140     1.0  0.49844  0.36836  0.35431  1.0000
  N   N74       1.0  0.56006  0.42363  0.65528  1.0000
  H   H1137     1.0  0.56245  0.40162  0.63951  1.0000
  C   C714      1.0  0.55744  0.40607  0.65887  1.0000
  H   H1138     1.0  0.54432  0.39904  0.66185  1.0000
  Fe  Fe141     1.0  0.51350  0.59092  0.72080  1.0000
  S   S284      1.0  0.52709  0.57702  0.74532  1.0000
  C   C715      1.0  0.69207  0.38093  0.88284  1.0000
  S   S285      1.0  0.58403  0.50371  0.67573  1.0000
  C   C716      1.0  0.60833  0.57129  0.70478  1.0000
  Fe  Fe142     1.0  0.61236  0.48496  0.71852  1.0000
  S   S286      1.0  0.63013  0.47349  0.73820  1.0000
  S   S287      1.0  0.59915  0.50016  0.74006  1.0000
  C   C717      1.0  0.65044  0.53424  0.72481  1.0000
  C   C718      1.0  0.49883  0.61314  0.77562  1.0000
  H   H1139     1.0  0.50930  0.43199  0.69801  1.0000
  H   H1140     1.0  0.63369  0.50691  0.75712  1.0000
  H   H1141     1.0  0.62105  0.57658  0.70818  1.0000
  H   H1142     1.0  0.71459  0.40900  0.89354  1.0000
  S   S288      1.0  0.57897  0.35766  0.89628  1.0000
  Fe  Fe143     1.0  0.66755  0.45009  0.88417  1.0000
  S   S289      1.0  0.67694  0.43439  0.85586  1.0000
  S   S290      1.0  0.65256  0.46554  0.86725  1.0000
  Fe  Fe144     1.0  0.67846  0.43740  0.94036  1.0000
  S   S291      1.0  0.68805  0.42045  0.91554  1.0000
  H   H1143     1.0  0.69631  0.37250  0.89666  1.0000
  Fe  Fe145     1.0  0.69891  0.44103  0.88261  1.0000
  S   S292      1.0  0.72289  0.44141  0.86023  1.0000
  Fe  Fe146     1.0  0.66572  0.41486  0.89085  1.0000
  S   S293      1.0  0.65472  0.38964  0.87553  1.0000
  S   S294      1.0  0.69062  0.45867  0.90838  1.0000
  S   S295      1.0  0.65491  0.42996  0.91818  1.0000
  C   C719      1.0  0.54060  0.46602  0.70672  1.0000
  C   C720      1.0  0.50387  0.61175  0.82730  1.0000
  H   H1144     1.0  0.70122  0.37346  0.83017  1.0000
  S   S296      1.0  0.59041  0.46984  0.69719  1.0000
  H   H1145     1.0  0.64943  0.50724  0.78097  1.0000
  H   H1146     1.0  0.73524  0.46127  0.90918  1.0000
  C   C721      1.0  0.71858  0.40100  0.87887  1.0000
  H   H1147     1.0  0.72857  0.40908  0.86402  1.0000
  S   S297      1.0  0.52060  0.37032  0.70751  1.0000
  C   C722      1.0  0.60019  0.36525  0.89221  1.0000
  C   C723      1.0  0.60812  0.37934  0.90608  1.0000
  C   C724      1.0  0.62490  0.38662  0.90175  1.0000
  C   C725      1.0  0.63388  0.37990  0.88335  1.0000
  C   C726      1.0  0.62603  0.36558  0.86999  1.0000
  C   C727      1.0  0.60920  0.35824  0.87442  1.0000
  H   H1148     1.0  0.60122  0.38478  0.91997  1.0000
  H   H1149     1.0  0.63085  0.39749  0.91250  1.0000
  H   H1150     1.0  0.63293  0.36028  0.85582  1.0000
  H   H1151     1.0  0.60317  0.34737  0.86367  1.0000
  S   S298      1.0  0.50230  0.60933  0.73847  1.0000
  C   C728      1.0  0.74213  0.44810  0.87527  1.0000
  C   C729      1.0  0.50186  0.33671  0.77608  1.0000
  H   H1152     1.0  0.69435  0.41005  0.85826  1.0000
  H   H1153     1.0  0.54387  0.36350  0.74384  1.0000
  C   C730      1.0  0.63574  0.47103  0.77448  1.0000
  C   C731      1.0  0.62883  0.47625  0.79860  1.0000
  C   C732      1.0  0.63425  0.47464  0.82674  1.0000
  C   C733      1.0  0.64636  0.46748  0.83126  1.0000
  C   C734      1.0  0.65305  0.46202  0.80720  1.0000
  C   C735      1.0  0.64782  0.46387  0.77901  1.0000
  H   H1154     1.0  0.61942  0.48165  0.79559  1.0000
  H   H1155     1.0  0.62894  0.47885  0.84522  1.0000
  H   H1156     1.0  0.66246  0.45660  0.81024  1.0000
  H   H1157     1.0  0.65329  0.45982  0.76053  1.0000
  H   H1158     1.0  0.56940  0.52732  0.74761  1.0000
  C   C736      1.0  0.71107  0.38097  0.84300  1.0000
  Fe  Fe147     1.0  0.60609  0.51611  0.69869  1.0000
  H   H1159     1.0  0.50775  0.52501  0.68876  1.0000
  C   C737      1.0  0.60197  0.55475  0.70078  1.0000
  H   H1160     1.0  0.52393  0.44835  0.73687  1.0000
  H   H1161     1.0  0.56131  0.52194  0.78464  1.0000
  C   C738      1.0  0.52446  0.66396  0.82332  1.0000
  C   C739      1.0  0.58190  0.57455  0.70050  1.0000
  H   H1162     1.0  0.56277  0.55296  0.69213  1.0000
  C   C740      1.0  0.74500  0.45786  0.89908  1.0000
  C   C741      1.0  0.51919  0.44282  0.69210  1.0000
  H   H1163     1.0  0.68115  0.54026  0.73909  1.0000
  H   H1164     1.0  0.68854  0.39521  0.83183  1.0000
  H   H1165     1.0  0.52948  0.51766  0.71528  1.0000
  C   C742      1.0  0.59840  0.58110  0.70454  1.0000
  C   C743      1.0  0.51821  0.35703  0.73934  1.0000
  H   H1166     1.0  0.67694  0.52577  0.76979  1.0000
  H   H1167     1.0  0.64733  0.54340  0.73786  1.0000
  N   N75       1.0  0.65694  0.52362  0.74293  1.0000
  H   H1168     1.0  0.56318  0.40300  0.67847  1.0000
  H   H1169     1.0  0.54436  0.54019  0.78025  1.0000
  H   H1170     1.0  0.66499  0.50296  0.73776  1.0000
  H   H1171     1.0  0.72092  0.38844  0.82722  1.0000
  C   C744      1.0  0.55262  0.42877  0.68100  1.0000
  S   S299      1.0  0.55238  0.47652  0.73393  1.0000
  C   C745      1.0  0.53020  0.50902  0.77176  1.0000
  N   N76       1.0  0.61859  0.41627  0.83225  1.0000
  C   C746      1.0  0.63051  0.42063  0.85479  1.0000
  C   C747      1.0  0.62710  0.41647  0.80363  1.0000
  C   C748      1.0  0.60969  0.42808  0.83085  1.0000
  C   C749      1.0  0.60712  0.39991  0.83973  1.0000
  H   H1172     1.0  0.62458  0.42046  0.87682  1.0000
  H   H1173     1.0  0.63925  0.43296  0.85002  1.0000
  H   H1174     1.0  0.63766  0.41215  0.85611  1.0000
  H   H1175     1.0  0.63397  0.40770  0.80405  1.0000
  H   H1176     1.0  0.61851  0.41331  0.78600  1.0000
  H   H1177     1.0  0.63590  0.42863  0.79741  1.0000
  H   H1178     1.0  0.60046  0.42511  0.81426  1.0000
  H   H1179     1.0  0.61798  0.44051  0.82489  1.0000
  H   H1180     1.0  0.60341  0.42848  0.85231  1.0000
  H   H1181     1.0  0.59790  0.39618  0.82325  1.0000
  H   H1182     1.0  0.60054  0.39927  0.86131  1.0000
  H   H1183     1.0  0.61345  0.39070  0.84099  1.0000
  H   H1184     1.0  0.55956  0.50654  0.75925  1.0000
  H   H1185     1.0  0.53152  0.51143  0.79526  1.0000
  C   C750      1.0  0.67170  0.53348  0.75613  1.0000
  S   S300      1.0  0.62093  0.50196  0.67830  1.0000
  H   H1186     1.0  0.64097  0.52351  0.78006  1.0000
  H   H1187     1.0  0.65015  0.50451  0.71337  1.0000
  C   C751      1.0  0.64473  0.51498  0.76633  1.0000
  Fe  Fe148     1.0  0.57801  0.48649  0.71522  1.0000
  H   H1188     1.0  0.51873  0.65106  0.83117  1.0000
  S   S301      1.0  0.57030  0.58787  0.70016  1.0000
  C   C752      1.0  0.58545  0.54809  0.69619  1.0000
  Fe  Fe149     1.0  0.51134  0.55561  0.72356  1.0000
  C   C753      1.0  0.53209  0.35606  0.75280  1.0000
  H   H1189     1.0  0.65918  0.54078  0.70657  1.0000
  H   H1190     1.0  0.53931  0.42260  0.68313  1.0000
  S   S302      1.0  0.61529  0.54314  0.70169  1.0000
  H   H1191     1.0  0.63917  0.52719  0.71493  1.0000
  H   H1192     1.0  0.72369  0.39326  0.89264  1.0000
  H   H1193     1.0  0.66910  0.54245  0.77041  1.0000
  C   C754      1.0  0.66088  0.51174  0.72453  1.0000
  C   C755      1.0  0.52739  0.45219  0.71414  1.0000
  H   H1194     1.0  0.71594  0.37263  0.85578  1.0000
  C   C756      1.0  0.54115  0.51661  0.72228  1.0000
  C   C757      1.0  0.55912  0.51902  0.76154  1.0000
  C   C758      1.0  0.69884  0.40210  0.84439  1.0000
  N   N77       1.0  0.54349  0.52047  0.75313  1.0000
  C   C759      1.0  0.57541  0.55801  0.69601  1.0000
  H   H1195     1.0  0.67050  0.51773  0.70725  1.0000
  C   C760      1.0  0.54343  0.53717  0.75696  1.0000
  Fe  Fe150     1.0  0.54306  0.58075  0.70394  1.0000
  H   H1196     1.0  0.54167  0.34511  0.78783  1.0000
  C   C761      1.0  0.53088  0.34560  0.77779  1.0000
  H   H1197     1.0  0.55097  0.52481  0.70747  1.0000
  H   H1198     1.0  0.55369  0.54621  0.74425  1.0000
  H   H1199     1.0  0.60357  0.59386  0.70778  1.0000
  H   H1200     1.0  0.68161  0.37360  0.87108  1.0000
  H   H1201     1.0  0.53213  0.53894  0.74966  1.0000
  N   N78       1.0  0.70514  0.39125  0.86230  1.0000
  H   H1202     1.0  0.54105  0.50403  0.71878  1.0000
  C   C762      1.0  0.50306  0.34729  0.75126  1.0000
  H   H1203     1.0  0.70838  0.41022  0.82880  1.0000
  H   H1204     1.0  0.68732  0.38830  0.89774  1.0000
  S   S303      1.0  0.68436  0.43498  0.98790  1.0000
  H   H1205     1.0  0.51825  0.50994  0.76605  1.0000
  H   H1206     1.0  0.58051  0.53539  0.69255  1.0000
  Fe  Fe151     1.0  0.56324  0.33329  0.88296  1.0000
  H   H1207     1.0  0.52987  0.49629  0.76918  1.0000
  S   S304      1.0  0.53097  0.59668  0.68084  1.0000
  H   H1208     1.0  0.52312  0.66465  0.79934  1.0000
  H   H1209     1.0  0.51421  0.60071  0.79364  1.0000
  H   H1210     1.0  0.55482  0.48168  0.67121  1.0000
  H   H1211     1.0  0.55766  0.42594  0.70161  1.0000
  S   S305      1.0  0.52845  0.55820  0.68470  1.0000
  H   H1212     1.0  0.50548  0.33572  0.91333  1.0000
  H   H1213     1.0  0.50995  0.60772  0.84460  1.0000
  C   C763      1.0  0.50632  0.60774  0.79838  1.0000
  C   C764      1.0  0.51572  0.33580  0.78959  1.0000
  H   H1214     1.0  0.58934  0.34291  0.98612  1.0000
  H   H1215     1.0  0.51258  0.65994  0.87882  1.0000
  C   C765      1.0  0.54494  0.47092  0.67731  1.0000
  H   H1216     1.0  0.55473  0.44203  0.67941  1.0000
  Fe  Fe152     1.0  0.50204  0.37782  0.68107  1.0000
  H   H1217     1.0  0.58361  0.43063  0.67254  1.0000
  S   S306      1.0  0.49869  0.53141  0.74666  1.0000
  H   H1218     1.0  0.51077  0.88374  0.26058  1.0000
  C   C766      1.0  0.49873  0.85561  0.33082  1.0000
  C   C767      1.0  0.55255  0.88267  0.32738  1.0000
  C   C768      1.0  0.50994  0.88245  0.30782  1.0000
  H   H1219     1.0  0.51537  0.89534  0.30922  1.0000
  C   C769      1.0  0.50028  0.85904  0.27756  1.0000
  H   H1220     1.0  0.58012  0.90719  0.31549  1.0000
  H   H1221     1.0  0.50604  0.80683  0.05551  1.0000
  H   H1222     1.0  0.51919  0.66960  0.15994  1.0000
  H   H1223     1.0  0.55803  0.87283  0.32980  1.0000
  H   H1224     1.0  0.55480  0.91409  0.31846  1.0000
  C   C770      1.0  0.50732  0.87581  0.28017  1.0000
  H   H1225     1.0  0.54520  0.99914  0.32095  1.0000
  H   H1226     1.0  0.50236  0.76590  0.11672  1.0000
  H   H1227     1.0  0.50087  0.77050  0.00620  1.0000
  H   H1228     1.0  0.55396  0.88689  0.30389  1.0000
  H   H1229     1.0  0.51582  0.98400  0.31558  1.0000
  H   H1230     1.0  0.53529  0.96973  0.32900  1.0000
  C   C771      1.0  0.50584  0.87235  0.33342  1.0000
  H   H1231     1.0  0.53937  0.87716  0.33309  1.0000
  H   H1232     1.0  0.49785  0.67862  0.05521  1.0000
  H   H1233     1.0  0.50375  0.89876  0.55823  1.0000
  H   H1234     1.0  0.59608  0.97426  0.35354  1.0000
  S   S307      1.0  0.54887  0.93125  0.61289  1.0000
  C   C772      1.0  0.53248  0.97138  0.35228  1.0000
  Fe  Fe153     1.0  0.51936  0.91896  0.45073  1.0000
  S   S308      1.0  0.52599  0.94465  0.43185  1.0000
  S   S309      1.0  0.51078  0.91006  0.49804  1.0000
  Fe  Fe154     1.0  0.51843  0.90457  0.38921  1.0000
  S   S310      1.0  0.52570  0.92922  0.36624  1.0000
  Fe  Fe155     1.0  0.54312  0.93779  0.40125  1.0000
  S   S311      1.0  0.56824  0.95410  0.38556  1.0000
  Fe  Fe156     1.0  0.50824  0.93429  0.39849  1.0000
  S   S312      1.0  0.53768  0.91243  0.42193  1.0000
  S   S313      1.0  0.49990  0.90939  0.41958  1.0000
  H   H1235     1.0  0.51413  0.97730  0.39618  1.0000
  C   C773      1.0  0.57714  0.97556  0.38386  1.0000
  H   H1236     1.0  0.56538  0.99443  0.62805  1.0000
  N   N79       1.0  0.52804  0.98619  0.35563  1.0000
  S   S314      1.0  0.51028  0.87971  0.36898  1.0000
  H   H1237     1.0  0.56216  0.88000  0.38146  1.0000
  H   H1238     1.0  0.53736  0.99644  0.62147  1.0000
  N   N80       1.0  0.55994  0.89605  0.34617  1.0000
  C   C774      1.0  0.59922  0.99885  0.36334  1.0000
  C   C775      1.0  0.59125  0.98215  0.36586  1.0000
  H   H1239     1.0  0.56038  0.98116  0.41416  1.0000
  C   C776      1.0  0.55703  0.88996  0.37714  1.0000
  H   H1240     1.0  0.52239  0.96055  0.36061  1.0000
  C   C777      1.0  0.53798  0.92548  0.58125  1.0000
  C   C778      1.0  0.54484  0.93284  0.55380  1.0000
  C   C779      1.0  0.53671  0.92831  0.52810  1.0000
  C   C780      1.0  0.52173  0.91613  0.52955  1.0000
  C   C781      1.0  0.51501  0.90858  0.55695  1.0000
  C   C782      1.0  0.52296  0.91336  0.58270  1.0000
  H   H1241     1.0  0.55652  0.94212  0.55244  1.0000
  H   H1242     1.0  0.54208  0.93418  0.50719  1.0000
  C   C783      1.0  0.51359  0.98518  0.33927  1.0000
  H   H1243     1.0  0.51774  0.90733  0.60357  1.0000
  C   C784      1.0  0.57112  0.98609  0.39976  1.0000
  H   H1244     1.0  0.58349  0.89325  0.34245  1.0000
  C   C785      1.0  0.52445  0.98777  0.38692  1.0000
  Fe  Fe157     1.0  0.53751  0.92708  0.65941  1.0000
  H   H1245     1.0  0.54323  0.97163  0.36458  1.0000
  H   H1246     1.0  0.50982  0.99612  0.34156  1.0000
  H   H1247     1.0  0.50309  0.97462  0.34743  1.0000
  H   H1248     1.0  0.59583  0.99523  0.66710  1.0000
  H   H1249     1.0  0.55763  0.91915  0.35581  1.0000
  H   H1250     1.0  0.54386  0.88511  0.38355  1.0000
  H   H1251     1.0  0.53502  0.98846  0.40000  1.0000
  H   H1252     1.0  0.56255  0.89970  0.39197  1.0000
  H   H1253     1.0  0.58335  0.91289  0.35239  1.0000
  C   C786      1.0  0.57751  0.90262  0.33879  1.0000
  H   H1254     1.0  0.53933  0.90432  0.34618  1.0000
  H   H1255     1.0  0.52112  0.99886  0.39034  1.0000
  C   C787      1.0  0.55263  0.90899  0.34145  1.0000
  Fe  Fe158     1.0  0.52563  0.90661  0.71797  1.0000
  S   S315      1.0  0.51941  0.92681  0.73889  1.0000
  C   C788      1.0  0.52500  0.69160  0.82824  1.0000
  H   H1256     1.0  0.50467  0.83500  0.81264  1.0000
  Fe  Fe159     1.0  0.54301  0.94320  0.71788  1.0000
  S   S316      1.0  0.55780  0.96279  0.74549  1.0000
  H   H1257     1.0  0.55047  0.93017  0.77238  1.0000
  H   H1258     1.0  0.53697  0.90984  0.77278  1.0000
  C   C789      1.0  0.57079  0.98100  0.72796  1.0000
  H   H1259     1.0  0.56703  0.92537  0.82779  1.0000
  C   C790      1.0  0.51373  0.87208  0.77546  1.0000
  H   H1260     1.0  0.56382  0.89125  0.81106  1.0000
  H   H1261     1.0  0.57672  0.93570  0.79399  1.0000
  H   H1262     1.0  0.54497  0.88711  0.79417  1.0000
  C   C791      1.0  0.49966  0.66996  0.83257  1.0000
  C   C792      1.0  0.54637  0.91829  0.78509  1.0000
  C   C793      1.0  0.57391  0.99558  0.74199  1.0000
  H   H1263     1.0  0.57641  0.96986  0.68984  1.0000
  S   S317      1.0  0.52299  0.88186  0.74111  1.0000
  C   C794      1.0  0.57854  0.98104  0.70068  1.0000
  Fe  Fe160     1.0  0.50953  0.93061  0.69610  1.0000
  H   H1264     1.0  0.57198  0.92165  0.74793  1.0000
  C   C795      1.0  0.56724  0.90994  0.76112  1.0000
  H   H1265     1.0  0.49960  0.87912  0.84238  1.0000
  C   C796      1.0  0.50576  0.84760  0.80867  1.0000
  H   H1266     1.0  0.50443  0.73267  0.89038  1.0000
  H   H1267     1.0  0.57742  0.90504  0.76368  1.0000
  C   C797      1.0  0.57216  0.92361  0.80604  1.0000
  S   S318      1.0  0.55014  0.92285  0.69946  1.0000
  H   H1268     1.0  0.51583  0.84908  0.76436  1.0000
  H   H1269     1.0  0.50995  0.89296  0.79370  1.0000
  H   H1270     1.0  0.56803  0.99564  0.76320  1.0000
  H   H1271     1.0  0.58272  0.91942  0.80963  1.0000
  H   H1272     1.0  0.55821  0.90139  0.74810  1.0000
  C   C798      1.0  0.51209  0.85565  0.78124  1.0000
  C   C799      1.0  0.55387  0.89620  0.80648  1.0000
  N   N81       1.0  0.55993  0.91200  0.78972  1.0000
  H   H1273     1.0  0.52399  0.69343  0.80435  1.0000
  H   H1274     1.0  0.53129  0.67624  0.87589  1.0000
  H   H1275     1.0  0.50270  0.76508  0.93999  1.0000
  H   H1276     1.0  0.54046  0.91999  0.80610  1.0000
  H   H1277     1.0  0.54766  0.89712  0.82771  1.0000
  H   H1278     1.0  0.53755  0.66719  0.82702  1.0000
  C   C800      1.0  0.51844  0.67272  0.87038  1.0000
  H   H1279     1.0  0.50958  0.75680  0.98920  1.0000
  S   S319      1.0  0.53237  0.94866  0.67695  1.0000
  H   H1280     1.0  0.51945  0.69980  0.83949  1.0000
  C   C801      1.0  0.58956  0.99544  0.68785  1.0000
  C   C802      1.0  0.50890  0.88038  0.79765  1.0000
  H   H1281     1.0  0.54659  0.98957  0.67000  1.0000
  S   S320      1.0  0.51374  0.90919  0.67595  1.0000
  C   C803      1.0  0.50131  0.85600  0.83106  1.0000
  C   C804      1.0  0.50295  0.87244  0.82529  1.0000
  N   N82       1.0  0.51692  0.67457  0.83860  1.0000
  H   H1282     1.0  0.53806  0.69555  0.83252  1.0000
  H   H1283     1.0  0.51258  0.68032  0.88264  1.0000
  H   H1284     1.0  0.50152  0.99025  0.71915  1.0000
  C   C805      1.0  0.49807  0.75801  0.99854  1.0000
  H   H1285     1.0  0.49795  0.67099  0.80879  1.0000
  Fe  Fe161     1.0  0.82989  0.31624  0.19305  1.0000
  S   S321      1.0  0.80582  0.30698  0.21812  1.0000
  C   C806      1.0  0.81970  0.29652  0.02681  1.0000
  Fe  Fe162     1.0  0.81405  0.31735  0.13353  1.0000
  S   S322      1.0  0.78892  0.30805  0.15510  1.0000
  C   C807      1.0  0.75928  0.23602  0.19956  1.0000
  S   S323      1.0  0.81812  0.32917  0.08717  1.0000
  N   N83       1.0  0.82795  0.27456  0.25344  1.0000
  Fe  Fe163     1.0  0.79785  0.29054  0.18123  1.0000
  S   S324      1.0  0.78591  0.26340  0.19175  1.0000
  C   C808      1.0  0.83261  0.28944  0.26970  1.0000
  S   S325      1.0  0.82257  0.29874  0.15728  1.0000
  C   C809      1.0  0.81813  0.31930  0.05412  1.0000
  C   C810      1.0  0.81894  0.30358  0.05367  1.0000
  H   H1286     1.0  0.82846  0.28693  0.29318  1.0000
  H   H1287     1.0  0.82871  0.28762  0.21265  1.0000
  H   H1288     1.0  0.80421  0.27576  0.24593  1.0000
  H   H1289     1.0  0.82063  0.28448  0.02667  1.0000
  H   H1290     1.0  0.81931  0.29699  0.07397  1.0000
  Fe  Fe164     1.0  0.79911  0.32512  0.18982  1.0000
  H   H1291     1.0  0.83023  0.26784  0.20924  1.0000
  H   H1292     1.0  0.84596  0.29536  0.26833  1.0000
  C   C811      1.0  0.76481  0.25280  0.19259  1.0000
  H   H1293     1.0  0.82734  0.29853  0.26060  1.0000
  H   H1294     1.0  0.80524  0.26399  0.27829  1.0000
  H   H1295     1.0  0.83113  0.25958  0.28946  1.0000
  H   H1296     1.0  0.80619  0.25622  0.24278  1.0000
  H   H1297     1.0  0.76498  0.22776  0.11578  1.0000
  C   C812      1.0  0.81016  0.26730  0.25531  1.0000
  H   H1298     1.0  0.83204  0.25159  0.25422  1.0000
  H   H1299     1.0  0.84870  0.26805  0.26494  1.0000
  H   H1300     1.0  0.76786  0.22990  0.20487  1.0000
  C   C813      1.0  0.83528  0.26291  0.26610  1.0000
  H   H1301     1.0  0.75958  0.24431  0.09957  1.0000
  C   C814      1.0  0.83380  0.27864  0.22252  1.0000
  H   H1302     1.0  0.84719  0.28414  0.22012  1.0000
  C   C815      1.0  0.75352  0.26055  0.18602  1.0000
  S   S326      1.0  0.85426  0.32113  0.21374  1.0000
  C   C816      1.0  0.75544  0.23367  0.11554  1.0000
  C   C817      1.0  0.81779  0.32774  0.02747  1.0000
  H   H1303     1.0  0.75755  0.27345  0.18076  1.0000
  H   H1304     1.0  0.83736  0.32996  0.26396  1.0000
  H   H1305     1.0  0.75019  0.21009  0.07755  1.0000
  C   C818      1.0  0.86087  0.33078  0.24652  1.0000
  H   H1306     1.0  0.75463  0.23838  0.13750  1.0000
  C   C819      1.0  0.90757  0.32607  0.63566  1.0000
  H   H1307     1.0  0.88671  0.29594  0.64237  1.0000
  H   H1308     1.0  0.90143  0.30502  0.59351  1.0000
  N   N84       1.0  0.89223  0.31968  0.62133  1.0000
  H   H1309     1.0  0.91367  0.31676  0.63864  1.0000
  C   C820      1.0  0.88456  0.33244  0.61823  1.0000
  H   H1310     1.0  0.90554  0.33023  0.65768  1.0000
  C   C821      1.0  0.89553  0.31457  0.59209  1.0000
  H   H1311     1.0  0.90377  0.32493  0.57810  1.0000
  H   H1312     1.0  0.88424  0.30974  0.58051  1.0000
  H   H1313     1.0  0.87293  0.32808  0.60753  1.0000
  H   H1314     1.0  0.87872  0.30946  0.66165  1.0000
  H   H1315     1.0  0.86953  0.30070  0.62942  1.0000
  C   C822      1.0  0.88130  0.30579  0.63943  1.0000
  C   C823      1.0  0.75758  0.24154  0.85500  1.0000
  Fe  Fe165     1.0  0.83023  0.32134  0.86012  1.0000
  S   S327      1.0  0.80521  0.31779  0.84536  1.0000
  H   H1316     1.0  0.80421  0.27226  0.92809  1.0000
  Fe  Fe166     1.0  0.81673  0.30612  0.92255  1.0000
  S   S328      1.0  0.79103  0.30202  0.91165  1.0000
  S   S329      1.0  0.82087  0.29574  0.96685  1.0000
  Fe  Fe167     1.0  0.79801  0.29325  0.86950  1.0000
  S   S330      1.0  0.78350  0.26969  0.85052  1.0000
  H   H1317     1.0  0.86064  0.31651  0.73674  1.0000
  H   H1318     1.0  0.77348  0.22320  0.93832  1.0000
  S   S331      1.0  0.82352  0.29605  0.88117  1.0000
  H   H1319     1.0  0.78468  0.26662  0.91376  1.0000
  C   C824      1.0  0.76429  0.25705  0.86533  1.0000
  H   H1320     1.0  0.80084  0.23125  0.95806  1.0000
  C   C825      1.0  0.80074  0.24395  0.95674  1.0000
  H   H1321     1.0  0.79578  0.24642  0.97814  1.0000
  C   C826      1.0  0.85687  0.32536  0.77883  1.0000
  H   H1322     1.0  0.76074  0.27382  0.89582  1.0000
  H   H1323     1.0  0.79113  0.24551  0.88595  1.0000
  H   H1324     1.0  0.79840  0.23096  0.90448  1.0000
  H   H1325     1.0  0.76843  0.23860  0.95773  1.0000
  S   S332      1.0  0.82576  0.33160  0.90298  1.0000
  C   C827      1.0  0.79822  0.24362  0.90455  1.0000
  C   C828      1.0  0.77429  0.23618  0.93722  1.0000
  Fe  Fe168     1.0  0.80056  0.32670  0.88891  1.0000
  H   H1326     1.0  0.76688  0.23798  0.91905  1.0000
  N   N85       1.0  0.79120  0.24687  0.93258  1.0000
  C   C829      1.0  0.79164  0.26390  0.93175  1.0000
  H   H1327     1.0  0.81081  0.25186  0.89985  1.0000
  H   H1328     1.0  0.84714  0.31455  0.78630  1.0000
  H   H1329     1.0  0.81351  0.25207  0.95390  1.0000
  H   H1330     1.0  0.78656  0.26698  0.95251  1.0000
  H   H1331     1.0  0.81805  0.32720  0.98032  1.0000
  H   H1332     1.0  0.76393  0.23770  0.83748  1.0000
  C   C830      1.0  0.86455  0.32652  0.75066  1.0000
  C   C831      1.0  0.75590  0.26187  0.88788  1.0000
  C   C832      1.0  0.81941  0.30497  0.00016  1.0000
  C   C833      1.0  0.81830  0.32058  0.00064  1.0000
  H   H1333     1.0  0.84751  0.38171  0.11724  1.0000
  Fe  Fe169     1.0  0.84742  0.46725  0.21676  1.0000
  S   S333      1.0  0.82827  0.44548  0.23780  1.0000
  S   S334      1.0  0.86696  0.48591  0.24100  1.0000
  Fe  Fe170     1.0  0.83467  0.45871  0.15455  1.0000
  S   S335      1.0  0.81504  0.43610  0.17197  1.0000
  S   S336      1.0  0.83812  0.46905  0.10702  1.0000
  Fe  Fe171     1.0  0.81067  0.45130  0.20793  1.0000
  S   S337      1.0  0.78639  0.45146  0.22885  1.0000
  Fe  Fe172     1.0  0.83422  0.43241  0.20013  1.0000
  S   S338      1.0  0.84120  0.40994  0.20822  1.0000
  S   S339      1.0  0.82942  0.47421  0.18938  1.0000
  S   S340      1.0  0.85421  0.45386  0.18014  1.0000
  H   H1334     1.0  0.86420  0.37573  0.30381  1.0000
  C   C834      1.0  0.84258  0.46907  0.04731  1.0000
  C   C835      1.0  0.83806  0.45943  0.07360  1.0000
  C   C836      1.0  0.83325  0.44260  0.07237  1.0000
  C   C837      1.0  0.83291  0.43557  0.04516  1.0000
  H   H1335     1.0  0.84648  0.48210  0.04802  1.0000
  H   H1336     1.0  0.82975  0.43504  0.09239  1.0000
  H   H1337     1.0  0.82916  0.42256  0.04449  1.0000
  H   H1338     1.0  0.84578  0.48843  0.30139  1.0000
  C   C838      1.0  0.76624  0.44614  0.18231  1.0000
  H   H1339     1.0  0.77647  0.44541  0.16899  1.0000
  C   C839      1.0  0.80141  0.36129  0.21137  1.0000
  C   C840      1.0  0.79738  0.37556  0.20840  1.0000
  C   C841      1.0  0.80944  0.39067  0.20853  1.0000
  C   C842      1.0  0.82552  0.39146  0.21158  1.0000
  C   C843      1.0  0.82940  0.37720  0.21568  1.0000
  C   C844      1.0  0.81736  0.36216  0.21575  1.0000
  H   H1340     1.0  0.78503  0.37492  0.20506  1.0000
  H   H1341     1.0  0.80637  0.40167  0.20555  1.0000
  H   H1342     1.0  0.84179  0.37775  0.21822  1.0000
  H   H1343     1.0  0.82046  0.35121  0.21897  1.0000
  C   C845      1.0  0.87948  0.47367  0.32222  1.0000
  H   H1344     1.0  0.87172  0.39187  0.22632  1.0000
  C   C846      1.0  0.89818  0.49983  0.30632  1.0000
  C   C847      1.0  0.89027  0.49910  0.27990  1.0000
  C   C848      1.0  0.87702  0.48561  0.27421  1.0000
  C   C849      1.0  0.87177  0.47281  0.29556  1.0000
  C   C850      1.0  0.84229  0.46205  0.02014  1.0000
  H   H1345     1.0  0.83742  0.47370  0.27572  1.0000
  H   H1346     1.0  0.89449  0.50912  0.26370  1.0000
  H   H1347     1.0  0.86165  0.46231  0.29170  1.0000
  C   C851      1.0  0.98992  0.45883  0.30370  1.0000
  H   H1348     1.0  0.83663  0.36044  0.11830  1.0000
  H   H1349     1.0  0.83641  0.37166  0.15021  1.0000
  N   N86       1.0  0.87860  0.39319  0.27080  1.0000
  C   C852      1.0  0.89039  0.38446  0.26612  1.0000
  C   C853      1.0  0.86297  0.38167  0.28246  1.0000
  C   C854      1.0  0.87222  0.34430  0.29992  1.0000
  C   C855      1.0  0.88472  0.40570  0.29190  1.0000
  H   H1350     1.0  0.87615  0.41255  0.29605  1.0000
  S   S341      1.0  0.82362  0.33542  0.16707  1.0000
  H   H1351     1.0  0.98063  0.44714  0.31119  1.0000
  S   S342      1.0  0.78698  0.34260  0.20592  1.0000
  C   C856      1.0  0.88306  0.34218  0.27836  1.0000
  H   H1352     1.0  0.89653  0.41460  0.28379  1.0000
  C   C857      1.0  0.75438  0.44988  0.22888  1.0000
  H   H1353     1.0  0.83959  0.49608  0.23772  1.0000
  H   H1354     1.0  0.88784  0.40980  0.23336  1.0000
  H   H1355     1.0  0.75027  0.44215  0.14689  1.0000
  S   S343      1.0  0.92556  0.38143  0.32682  1.0000
  S   S344      1.0  0.92351  0.42539  0.32446  1.0000
  N   N87       1.0  0.82171  0.37579  0.11638  1.0000
  C   C858      1.0  0.82180  0.39165  0.12653  1.0000
  H   H1356     1.0  0.98705  0.36979  0.32709  1.0000
  C   C859      1.0  0.80706  0.36307  0.12891  1.0000
  C   C860      1.0  0.83622  0.37226  0.12593  1.0000
  H   H1357     1.0  0.81528  0.50975  0.29251  1.0000
  H   H1358     1.0  0.82203  0.39180  0.15072  1.0000
  H   H1359     1.0  0.81089  0.39464  0.12029  1.0000
  C   C861      1.0  0.82177  0.37613  0.08418  1.0000
  H   H1360     1.0  0.98581  0.46865  0.31252  1.0000
  H   H1361     1.0  0.80648  0.35095  0.12145  1.0000
  H   H1362     1.0  0.80679  0.36219  0.15312  1.0000
  H   H1363     1.0  0.79583  0.36543  0.12276  1.0000
  C   C862      1.0  0.76787  0.44897  0.21194  1.0000
  H   H1364     1.0  0.84718  0.34134  0.31088  1.0000
  H   H1365     1.0  0.85368  0.38777  0.28579  1.0000
  H   H1366     1.0  0.83263  0.40159  0.11735  1.0000
  H   H1367     1.0  0.85817  0.37190  0.26727  1.0000
  H   H1368     1.0  0.79842  0.47324  0.04011  1.0000
  H   H1369     1.0  0.75550  0.45209  0.25180  1.0000
  C   C863      1.0  0.87633  0.40095  0.24278  1.0000
  H   H1370     1.0  0.83112  0.51159  0.24615  1.0000
  C   C864      1.0  0.89277  0.48716  0.32788  1.0000
  C   C865      1.0  0.83426  0.48133  0.29222  1.0000
  H   H1371     1.0  0.88669  0.40026  0.31322  1.0000
  C   C866      1.0  0.79830  0.46212  0.02906  1.0000
  H   H1372     1.0  0.86743  0.40759  0.24552  1.0000
  H   H1373     1.0  0.78815  0.45187  0.03940  1.0000
  H   H1374     1.0  0.80263  0.47347  0.28277  1.0000
  H   H1375     1.0  0.89578  0.34547  0.28226  1.0000
  H   H1376     1.0  0.82659  0.47302  0.31000  1.0000
  H   H1377     1.0  0.98994  0.45995  0.27946  1.0000
  H   H1378     1.0  0.83262  0.50930  0.31175  1.0000
  H   H1379     1.0  0.84849  0.50997  0.26428  1.0000
  C   C867      1.0  0.81113  0.48200  0.26616  1.0000
  C   C868      1.0  0.82165  0.50163  0.30173  1.0000
  H   H1380     1.0  0.88585  0.33336  0.23584  1.0000
  N   N88       1.0  0.82594  0.49198  0.27901  1.0000
  H   H1381     1.0  0.83268  0.38555  0.07396  1.0000
  H   H1382     1.0  0.92716  0.45920  0.32312  1.0000
  H   H1383     1.0  0.80453  0.48951  0.25555  1.0000
  C   C869      1.0  0.83672  0.50294  0.25587  1.0000
  H   H1384     1.0  0.81093  0.37867  0.07625  1.0000
  H   H1385     1.0  0.90830  0.51033  0.31017  1.0000
  H   H1386     1.0  0.90232  0.39275  0.25724  1.0000
  H   H1387     1.0  0.82171  0.36426  0.07602  1.0000
  H   H1388     1.0  0.89244  0.37859  0.28696  1.0000
  H   H1389     1.0  0.88610  0.37475  0.25062  1.0000
  H   H1390     1.0  0.80967  0.45964  0.03398  1.0000
  H   H1391     1.0  0.81353  0.49371  0.31954  1.0000
  H   H1392     1.0  0.81403  0.47452  0.24911  1.0000
  C   C870      1.0  0.75134  0.44430  0.16984  1.0000
  H   H1393     1.0  0.81715  0.33988  0.02758  1.0000
  C   C871      1.0  0.83734  0.44525  0.01889  1.0000
  C   C872      1.0  0.87738  0.33530  0.25201  1.0000
  C   C873      1.0  0.85571  0.33979  0.29439  1.0000
  H   H1394     1.0  0.78052  0.47776  0.00161  1.0000
  C   C874      1.0  0.85008  0.33330  0.26776  1.0000
  H   H1395     1.0  0.90339  0.44167  0.35916  1.0000
  H   H1396     1.0  0.93856  0.45410  0.53349  1.0000
  S   S345      1.0  0.95191  0.53679  0.60336  1.0000
  N   N89       1.0  0.90120  0.43594  0.40555  1.0000
  Fe  Fe173     1.0  0.93672  0.50272  0.44788  1.0000
  S   S346      1.0  0.96270  0.51419  0.43285  1.0000
  S   S347      1.0  0.92776  0.49414  0.49505  1.0000
  Fe  Fe174     1.0  0.92479  0.50213  0.38423  1.0000
  S   S348      1.0  0.95025  0.51454  0.36488  1.0000
  Fe  Fe175     1.0  0.95741  0.49782  0.39581  1.0000
  S   S349      1.0  0.97307  0.48325  0.38153  1.0000
  Fe  Fe176     1.0  0.95371  0.53020  0.40350  1.0000
  S   S350      1.0  0.96785  0.55686  0.40537  1.0000
  S   S351      1.0  0.93227  0.48469  0.41337  1.0000
  S   S352      1.0  0.92754  0.51951  0.42053  1.0000
  Fe  Fe177     1.0  0.92216  0.37282  0.61955  1.0000
  S   S353      1.0  0.92453  0.36263  0.57538  1.0000
  H   H1397     1.0  0.92615  0.50610  0.59862  1.0000
  S   S354      1.0  0.93456  0.39853  0.62940  1.0000
  H   H1398     1.0  0.94626  0.48181  0.34647  1.0000
  H   H1399     1.0  0.92905  0.53331  0.48262  1.0000
  C   C875      1.0  0.94785  0.47004  0.34775  1.0000
  Fe  Fe178     1.0  0.91365  0.38429  0.40980  1.0000
  S   S355      1.0  0.91557  0.36144  0.39136  1.0000
  S   S356      1.0  0.90609  0.39015  0.45526  1.0000
  Fe  Fe179     1.0  0.93839  0.37818  0.36718  1.0000
  H   H1400     1.0  0.90519  0.45150  0.64558  1.0000
  H   H1401     1.0  0.94861  0.43054  0.54179  1.0000
  S   S357      1.0  0.93696  0.40042  0.38790  1.0000
  S   S358      1.0  0.89915  0.38847  0.37287  1.0000
  C   C876      1.0  0.91964  0.37074  0.54220  1.0000
  C   C877      1.0  0.91068  0.38146  0.54194  1.0000
  C   C878      1.0  0.90658  0.38722  0.51517  1.0000
  C   C879      1.0  0.91152  0.38249  0.48838  1.0000
  H   H1402     1.0  0.90661  0.38502  0.56236  1.0000
  H   H1403     1.0  0.89937  0.39524  0.51515  1.0000
  C   C880      1.0  0.96045  0.46754  0.36292  1.0000
  C   C881      1.0  0.96245  0.45229  0.36426  1.0000
  H   H1404     1.0  0.95316  0.42770  0.35206  1.0000
  H   H1405     1.0  0.95282  0.58366  0.49149  1.0000
  C   C882      1.0  0.98811  0.46486  0.64931  1.0000
  H   H1406     1.0  0.89787  0.43521  0.45228  1.0000
  H   H1407     1.0  0.97199  0.45025  0.37640  1.0000
  H   H1408     1.0  0.98025  0.39358  0.64446  1.0000
  H   H1409     1.0  0.93186  0.57489  0.50354  1.0000
  C   C883      1.0  0.92980  0.54407  0.49534  1.0000
  S   S359      1.0  0.89800  0.37193  0.63925  1.0000
  H   H1410     1.0  0.87509  0.46379  0.33861  1.0000
  H   H1411     1.0  0.94764  0.44810  0.58214  1.0000
  H   H1412     1.0  0.88797  0.41558  0.38240  1.0000
  H   H1413     1.0  0.91634  0.42363  0.42513  1.0000
  H   H1414     1.0  0.90363  0.41700  0.55192  1.0000
  C   C884      1.0  0.95795  0.55593  0.47916  1.0000
  H   H1415     1.0  0.91778  0.42519  0.38613  1.0000
  H   H1416     1.0  0.96742  0.56651  0.46794  1.0000
  C   C885      1.0  0.95157  0.43945  0.35105  1.0000
  H   H1417     1.0  0.94678  0.57361  0.44192  1.0000
  C   C886      1.0  0.88732  0.42111  0.40359  1.0000
  C   C887      1.0  0.91628  0.43171  0.40572  1.0000
  C   C888      1.0  0.89916  0.44366  0.43281  1.0000
  C   C889      1.0  0.92451  0.36595  0.51543  1.0000
  C   C890      1.0  0.94621  0.52362  0.57451  1.0000
  C   C891      1.0  0.95462  0.52803  0.54705  1.0000
  C   C892      1.0  0.94943  0.51881  0.52276  1.0000
  C   C893      1.0  0.93556  0.50524  0.52559  1.0000
  C   C894      1.0  0.92747  0.50050  0.55327  1.0000
  C   C895      1.0  0.93279  0.50960  0.57765  1.0000
  H   H1418     1.0  0.96519  0.53866  0.54466  1.0000
  H   H1419     1.0  0.95605  0.52225  0.50180  1.0000
  H   H1420     1.0  0.91677  0.48998  0.55575  1.0000
  C   C896      1.0  0.98135  0.38722  0.35344  1.0000
  H   H1421     1.0  0.88700  0.41183  0.42129  1.0000
  C   C897      1.0  0.94354  0.57239  0.50086  1.0000
  H   H1422     1.0  0.95723  0.54535  0.46597  1.0000
  H   H1423     1.0  0.87566  0.42369  0.40521  1.0000
  H   H1424     1.0  0.89099  0.45094  0.37943  1.0000
  H   H1425     1.0  0.90972  0.45451  0.43560  1.0000
  H   H1426     1.0  0.96223  0.55358  0.50079  1.0000
  H   H1427     1.0  0.92443  0.36806  0.46826  1.0000
  H   H1428     1.0  0.91247  0.45844  0.38047  1.0000
  S   S360      1.0  0.92960  0.36270  0.66081  1.0000
  H   H1429     1.0  0.88198  0.33665  0.63993  1.0000
  H   H1430     1.0  0.92576  0.56512  0.45400  1.0000
  H   H1431     1.0  0.97741  0.46874  0.65451  1.0000
  C   C898      1.0  0.93753  0.56276  0.45284  1.0000
  H   H1432     1.0  0.93642  0.55274  0.43813  1.0000
  N   N90       1.0  0.94219  0.55878  0.48206  1.0000
  H   H1433     1.0  0.94706  0.56975  0.52310  1.0000
  C   C899      1.0  0.98739  0.40277  0.36399  1.0000
  N   N91       1.0  0.92688  0.43298  0.56196  1.0000
  C   C900      1.0  0.91028  0.42252  0.57094  1.0000
  C   C901      1.0  0.93498  0.44035  0.58788  1.0000
  C   C902      1.0  0.92624  0.44589  0.54060  1.0000
  C   C903      1.0  0.93596  0.42313  0.54853  1.0000
  H   H1434     1.0  0.91035  0.41245  0.58661  1.0000
  Fe  Fe180     1.0  0.91094  0.39668  0.65271  1.0000
  H   H1435     1.0  0.90320  0.42939  0.58211  1.0000
  H   H1436     1.0  0.93530  0.43097  0.60481  1.0000
  C   C904      1.0  0.98901  0.40133  0.65781  1.0000
  H   H1437     1.0  0.92854  0.44803  0.59828  1.0000
  H   H1438     1.0  0.91941  0.45351  0.55001  1.0000
  H   H1439     1.0  0.92025  0.44079  0.52068  1.0000
  S   S361      1.0  0.90164  0.41757  0.64659  1.0000
  H   H1440     1.0  0.93646  0.41312  0.56396  1.0000
  Fe  Fe181     1.0  0.94904  0.52769  0.65124  1.0000
  H   H1441     1.0  0.93024  0.41748  0.52875  1.0000
  C   C905      1.0  0.92057  0.37185  0.48866  1.0000
  H   H1442     1.0  0.98484  0.56481  0.34871  1.0000
  Fe  Fe182     1.0  0.92261  0.40250  0.34953  1.0000
  C   C906      1.0  0.90201  0.44720  0.38010  1.0000
  Fe  Fe183     1.0  0.90259  0.36684  0.35228  1.0000
  H   H1443     1.0  0.88829  0.44769  0.43288  1.0000
  S   S362      1.0  0.90149  0.48775  0.36269  1.0000
  H   H1444     1.0  0.93141  0.35762  0.51535  1.0000
  H   H1445     1.0  0.97981  0.40693  0.37882  1.0000
  C   C907      1.0  0.99374  0.56726  0.36498  1.0000
  H   H1446     1.0  0.91760  0.54550  0.49655  1.0000
  H   H1447     1.0  0.93252  0.54118  0.51800  1.0000
  H   H1448     1.0  0.99670  0.44661  0.35460  1.0000
  H   H1449     1.0  0.99604  0.53431  0.40137  1.0000
  C   C908      1.0  0.98876  0.56393  0.39456  1.0000
  S   S363      1.0  0.96236  0.37315  0.36570  1.0000
  C   C909      1.0  0.91535  0.44955  0.65595  1.0000
  H   H1450     1.0  0.92711  0.44267  0.40573  1.0000
  C   C910      1.0  0.91645  0.43400  0.65933  1.0000
  H   H1451     1.0  0.99525  0.47290  0.63069  1.0000
  H   H1452     1.0  0.98713  0.51730  0.38024  1.0000
  C   C911      1.0  0.93864  0.44183  0.33675  1.0000
  H   H1453     1.0  0.89251  0.34311  0.60467  1.0000
  H   H1454     1.0  0.91615  0.33650  0.62245  1.0000
  H   H1455     1.0  0.98357  0.45235  0.64185  1.0000
  H   H1456     1.0  0.99676  0.56550  0.43843  1.0000
  H   H1457     1.0  0.99652  0.53681  0.36228  1.0000
  H   H1458     1.0  0.92681  0.47460  0.66243  1.0000
  C   C912      1.0  0.99145  0.38181  0.33499  1.0000
  C   C913      1.0  0.99750  0.52858  0.38073  1.0000
  C   C914      1.0  0.92756  0.46266  0.66566  1.0000
  C   C915      1.0  0.93706  0.45724  0.33438  1.0000
  S   S364      1.0  0.87845  0.35230  0.33417  1.0000
  H   H1459     1.0  0.99315  0.48659  0.69059  1.0000
  H   H1460     1.0  0.99532  0.45395  0.71794  1.0000
  H   H1461     1.0  0.91496  0.47245  0.78868  1.0000
  H   H1462     1.0  0.83994  0.38088  0.79859  1.0000
  H   H1463     1.0  0.87889  0.36186  0.80133  1.0000
  Fe  Fe184     1.0  0.93008  0.51913  0.71170  1.0000
  S   S365      1.0  0.90617  0.51640  0.73721  1.0000
  S   S366      1.0  0.94984  0.51193  0.73146  1.0000
  Fe  Fe185     1.0  0.96699  0.53419  0.70744  1.0000
  S   S367      1.0  0.91678  0.38824  0.69634  1.0000
  S   S368      1.0  0.96298  0.40254  0.69422  1.0000
  H   H1464     1.0  0.92483  0.47560  0.72344  1.0000
  C   C916      1.0  0.81811  0.39204  0.95517  1.0000
  H   H1465     1.0  0.80978  0.38255  0.97054  1.0000
  H   H1466     1.0  0.91304  0.48624  0.74133  1.0000
  Fe  Fe186     1.0  0.83051  0.43556  0.87739  1.0000
  S   S369      1.0  0.85278  0.44568  0.90152  1.0000
  S   S370      1.0  0.83168  0.41520  0.84998  1.0000
  Fe  Fe187     1.0  0.81532  0.45993  0.89940  1.0000
  S   S371      1.0  0.83731  0.47246  0.92399  1.0000
  S   S372      1.0  0.79330  0.46815  0.90863  1.0000
  Fe  Fe188     1.0  0.85206  0.46978  0.88357  1.0000
  S   S373      1.0  0.87712  0.48616  0.86529  1.0000
  Fe  Fe189     1.0  0.83633  0.44738  0.93937  1.0000
  S   S374      1.0  0.83646  0.43580  0.98512  1.0000
  S   S375      1.0  0.83016  0.45948  0.85792  1.0000
  S   S376      1.0  0.81396  0.43500  0.91636  1.0000
  H   H1467     1.0  0.84209  0.40428  0.99044  1.0000
  H   H1468     1.0  0.85732  0.40232  0.92955  1.0000
  H   H1469     1.0  0.78047  0.44640  0.86222  1.0000
  H   H1470     1.0  0.96221  0.56355  0.74125  1.0000
  H   H1471     1.0  0.81977  0.35711  0.86621  1.0000
  C   C917      1.0  0.79988  0.36463  0.88193  1.0000
  C   C918      1.0  0.81527  0.36717  0.86881  1.0000
  C   C919      1.0  0.82497  0.38281  0.85927  1.0000
  C   C920      1.0  0.81932  0.39593  0.86279  1.0000
  C   C921      1.0  0.80399  0.39348  0.87615  1.0000
  C   C922      1.0  0.79423  0.37778  0.88559  1.0000
  C   C923      1.0  0.84126  0.39227  0.98209  1.0000
  H   H1472     1.0  0.83701  0.38481  0.84975  1.0000
  H   H1473     1.0  0.79957  0.40361  0.87878  1.0000
  H   H1474     1.0  0.78230  0.37581  0.89574  1.0000
  C   C924      1.0  0.89820  0.50668  0.77217  1.0000
  C   C925      1.0  0.90806  0.50355  0.79330  1.0000
  C   C926      1.0  0.90135  0.49695  0.82142  1.0000
  C   C927      1.0  0.88464  0.49290  0.82860  1.0000
  C   C928      1.0  0.87472  0.49540  0.80705  1.0000
  C   C929      1.0  0.88149  0.50244  0.77920  1.0000
  H   H1475     1.0  0.92089  0.50656  0.78833  1.0000
  H   H1476     1.0  0.90916  0.49514  0.83793  1.0000
  H   H1477     1.0  0.86189  0.49252  0.81222  1.0000
  H   H1478     1.0  0.87371  0.50481  0.76313  1.0000
  S   S377      1.0  0.98744  0.54834  0.73409  1.0000
  C   C930      1.0  0.75502  0.44393  0.86224  1.0000
  C   C931      1.0  0.86198  0.33808  0.79737  1.0000
  C   C932      1.0  0.77362  0.45970  0.89597  1.0000
  H   H1479     1.0  0.84002  0.40253  0.91017  1.0000
  C   C933      1.0  0.83963  0.36828  0.79506  1.0000
  C   C934      1.0  0.77064  0.44953  0.87272  1.0000
  S   S378      1.0  0.93017  0.50542  0.67126  1.0000
  C   C935      1.0  0.79747  0.44919  0.98350  1.0000
  H   H1480     1.0  0.81270  0.39085  0.93359  1.0000
  C   C936      1.0  0.98374  0.40720  0.68293  1.0000
  Fe  Fe190     1.0  0.94011  0.38869  0.67222  1.0000
  H   H1481     1.0  0.81046  0.48936  0.99463  1.0000
  Fe  Fe191     1.0  0.95124  0.49994  0.69000  1.0000
  N   N92       1.0  0.94992  0.55730  0.78382  1.0000
  C   C937      1.0  0.96477  0.56435  0.79932  1.0000
  C   C938      1.0  0.93593  0.55964  0.80007  1.0000
  C   C939      1.0  0.94711  0.53984  0.78152  1.0000
  C   C940      1.0  0.95186  0.56528  0.75422  1.0000
  H   H1482     1.0  0.97552  0.56282  0.78728  1.0000
  H   H1483     1.0  0.96386  0.55845  0.82158  1.0000
  H   H1484     1.0  0.96728  0.57753  0.80160  1.0000
  C   C941      1.0  0.99533  0.41710  0.70017  1.0000
  H   H1485     1.0  0.93417  0.55384  0.82258  1.0000
  H   H1486     1.0  0.93748  0.57269  0.80194  1.0000
  H   H1487     1.0  0.93647  0.53429  0.76859  1.0000
  H   H1488     1.0  0.94486  0.53326  0.80338  1.0000
  H   H1489     1.0  0.95779  0.53764  0.77067  1.0000
  H   H1490     1.0  0.95421  0.57852  0.75504  1.0000
  H   H1491     1.0  0.94084  0.56029  0.74192  1.0000
  H   H1492     1.0  0.82840  0.37265  0.92102  1.0000
  H   H1493     1.0  0.89215  0.36394  0.75168  1.0000
  C   C942      1.0  0.88229  0.35321  0.75896  1.0000
  H   H1494     1.0  0.83734  0.34400  0.75925  1.0000
  C   C943      1.0  0.81051  0.35814  0.79612  1.0000
  C   C944      1.0  0.94063  0.46016  0.67933  1.0000
  S   S379      1.0  0.95546  0.47603  0.69368  1.0000
  N   N93       1.0  0.90463  0.46055  0.75081  1.0000
  C   C945      1.0  0.88811  0.46018  0.76012  1.0000
  C   C946      1.0  0.91230  0.47487  0.73071  1.0000
  C   C947      1.0  0.90393  0.44575  0.73569  1.0000
  C   C948      1.0  0.91428  0.46146  0.77670  1.0000
  H   H1495     1.0  0.88191  0.44950  0.77530  1.0000
  H   H1496     1.0  0.93089  0.41974  0.67462  1.0000
  C   C949      1.0  0.87734  0.34043  0.74053  1.0000
  H   H1497     1.0  0.83738  0.37023  0.73727  1.0000
  H   H1498     1.0  0.90541  0.47465  0.71084  1.0000
  H   H1499     1.0  0.83932  0.36211  0.81692  1.0000
  H   H1500     1.0  0.82556  0.36444  0.95792  1.0000
  H   H1501     1.0  0.89697  0.44480  0.71574  1.0000
  H   H1502     1.0  0.89811  0.43466  0.75007  1.0000
  H   H1503     1.0  0.92688  0.46193  0.77039  1.0000
  H   H1504     1.0  0.90890  0.45080  0.79234  1.0000
  H   H1505     1.0  0.76286  0.47180  0.92683  1.0000
  C   C950      1.0  0.87473  0.35197  0.78719  1.0000
  H   H1506     1.0  0.88825  0.47113  0.77179  1.0000
  H   H1507     1.0  0.85123  0.36884  0.78334  1.0000
  H   H1508     1.0  0.99141  0.42138  0.72001  1.0000
  S   S380      1.0  0.78781  0.34514  0.89433  1.0000
  H   H1509     1.0  0.97797  0.45895  0.70711  1.0000
  H   H1510     1.0  0.84611  0.41549  0.93967  1.0000
  H   H1511     1.0  0.78007  0.46820  0.96772  1.0000
  H   H1512     1.0  0.91624  0.44563  0.72861  1.0000
  H   H1513     1.0  0.80989  0.37017  0.80201  1.0000
  S   S381      1.0  0.85276  0.33759  0.83306  1.0000
  C   C951      1.0  0.84494  0.40323  0.93220  1.0000
  N   N94       1.0  0.83445  0.39047  0.95306  1.0000
  H   H1514     1.0  0.80915  0.44700  0.98672  1.0000
  C   C952      1.0  0.83349  0.37439  0.94283  1.0000
  H   H1515     1.0  0.84560  0.37275  0.94085  1.0000
  H   H1516     1.0  0.92453  0.55415  0.78900  1.0000
  C   C953      1.0  0.76070  0.46378  0.90910  1.0000
  H   H1517     1.0  0.80958  0.47981  0.96065  1.0000
  C   C954      1.0  0.82601  0.36873  0.75068  1.0000
  C   C955      1.0  0.98801  0.45468  0.69905  1.0000
  H   H1518     1.0  0.81841  0.40406  0.96280  1.0000
  H   H1519     1.0  0.80956  0.35078  0.81691  1.0000
  H   H1520     1.0  0.98244  0.44220  0.69198  1.0000
  H   H1521     1.0  0.82533  0.38103  0.75426  1.0000
  H   H1522     1.0  0.84618  0.46966  0.00025  1.0000
  S   S382      1.0  0.94707  0.54241  0.68988  1.0000
  C   C956      1.0  0.82631  0.34333  0.77301  1.0000
  H   H1523     1.0  0.82225  0.47626  0.98798  1.0000
  C   C957      1.0  0.94173  0.44461  0.68243  1.0000
  H   H1524     1.0  0.85366  0.39130  0.98119  1.0000
  N   N95       1.0  0.82560  0.35961  0.77872  1.0000
  H   H1525     1.0  0.81572  0.36243  0.73757  1.0000
  H   H1526     1.0  0.79620  0.45010  0.95955  1.0000
  H   H1527     1.0  0.99436  0.57602  0.69254  1.0000
  C   C958      1.0  0.92975  0.43161  0.67222  1.0000
  H   H1528     1.0  0.88055  0.45973  0.74111  1.0000
  Fe  Fe192     1.0  0.90575  0.36326  0.68134  1.0000
  H   H1529     1.0  0.83367  0.38280  0.99836  1.0000
  C   C959      1.0  0.81038  0.47798  0.98463  1.0000
  H   H1530     1.0  0.95173  0.44248  0.69299  1.0000
  H   H1531     1.0  0.75300  0.43653  0.84362  1.0000
  N   N96       1.0  0.79689  0.46399  0.99723  1.0000
  H   H1532     1.0  0.79964  0.35212  0.78414  1.0000
  H   H1533     1.0  0.78764  0.43833  0.99271  1.0000
  S   S383      1.0  0.88685  0.34118  0.70497  1.0000
  C   C960      1.0  0.78140  0.46668  0.99160  1.0000
  H   H1534     1.0  0.81562  0.33616  0.76166  1.0000
  S   S384      1.0  0.97018  0.52126  0.66778  1.0000
  H   H1535     1.0  0.82669  0.33636  0.79369  1.0000
  H   H1536     1.0  0.77091  0.45628  0.00042  1.0000
