data_image0
_chemical_formula_structural       HCH2C2HC2SCH4NC2HSC3H2CH2S2FeSHSCH2NC2HCH2C2HCHCH3C3H4CFeCNH9FeS2FeS2FeSFeS3HC2H2CH2C4H2C2HC3H2CH2C3H4CHCNHSCHC2H4FeH2C3HNHSC3HC3HCH6C2HC2HNH2CH8NHC2NCH6FeH3C2H10CHSFeHNSCSFeCHCSHCSH2CH2C4H7CH4CHCHCHCSFeS3FeS2FeSCFeSFeS3FeHSFeHSFeSHS2HC2NFeH2CHC6H4C7H5C2H2CHSC2HCHNC4FeH14SH2C3SHSH2N2SH3CH2C3HCSH5C2SC2H2CHCSH5CNC2NH4SH3CH2FeH2C2FeH2CH2C2H3FeH8C2H3NH2SHSFeH4CH2CS2HCHFeHC2H2CNC5H2C3H3CH9CFeSCHSFeCFeS2HSCH3CH2SCFeC3HC2H2CH4SH2SCHC2SCFeH2CSCHCSHCFeSC2NH2FeCH3CSNCH2SCNCHFeC2HCSHSCH11S2CH2FeHC4H8FeSCFeNCS2FeSFeS2H3FeCHSHCHCFeHCH2SH4C6SH8C3SH4NH4CH5CH2CHCH3SHCH2C2SHCFeHSFeSFeSHFeHS2FeSCHCH3CH3C6H4C2HC4SNCSHC6H4CHCH7NH2CHSH3SCH7CHCHNC2H2CHCH3CH2SCSCFeS2FeHFeSHSHC3H2SCHC3H5CH2CHCNHCSH4C2NHCFeHFeC2HCHNH3SHSHC2H3CSFeC3H3CHCNH8S2H4CH2C2SCSHC4H3SH5NH2NC5SH2FeCHSH4C4SHCH2CH3CH7CHCHCH4SH2CFeSCFeS2FeHFeS3FeS2FeSHFeSHSC6H4C3H2FeH2FeH3C3H2NH5CHFeHCH4C6H3CH2CHCHS2C2SN2H2NC4H11C2HC4H2SNC2H15CH2C2H2CHCHCH2CH4NH2CFeSH3FeHNHSHCHCHC2H2C2H2CH2C3SC2FeHSCHS2FeS2H4C3S2H4CHCH2CH2NCHC3H6FeCSH3C2H2SFeHCSC2H2SH2CH2NCHCFeSCFeS2FeSFeS2HSC6H4C3H6C3H2CHCHCH5C2HC2H6NCH3C2SH3C4H4CNCHCSH11CH2CH2CHFeSFeS2FeSFeS3FeCFeS2FeCFeCS2H4CH3C6NHCHC3H2C6H2CHC3HC6H3CHSHC2HSCH7CHSH3CHSCH3CH3S2H4SH2SCHNHC2SH3CH3C2HCNHNHC2H2CH6CNHCSH2CSH2SC3SH8FeHSH3FeHCFeHSFeH2C2NHC2HFeH4SHCH3CHC2HCHCHS2H2SHFeSFeC2H3S2H2SCSFeC4H4CHC6H4C3H3CH2CHFe2SHFeHSFeHSCSHCH2CHCFeH3FeC3H2CSCS2CH4SNC2H2CH2CHFeHCHFeH6CHC2H3C2NCHSFeH2FeS2H2CSCSCNC4NHNH3CHCH3CH3CHC3HC2SH2SFeSHCH2SCHSH2CHFeH2C2H2CSN2HSCH5SCH2CH6CH2SH3CH3SCH2CH3CHNSH2C3H4CHFeH3NHSHCFeCHFeHFeH2S2H4CHNCHC3H5CH5CHC2HCHFeC3H3SNH2C2SH3C2HC3H2CSH2CSFeSCSHSCFeHC2H3FeS2H2CSFeHCH2CSHSFeH3FeSCH2C2HNC3H2SH2CSCHFeSH2CH2CH3SHCFeSCHFeS2H3C2H2C5H2C2HCHCH4CH3CH3CHNC3HC2H3CHSC2SH5N2CS2H2SH2CH2C2HCSH2CHCHFeHNCH2FeCSC2HFeH5SFeS2H2FeCSC3H4C3HCH2CHCHFeSNFeHFeSH7NH3SCHC3H2CFeHC6HSH5CHCSH3FeHC2H2CSHSHFeSNCHCFeHSCH2CHSHSFeSCS2HCH3CFeCSC2H3C3FeC2HSHCSCH2C5SH3SCH2C2NHSCHCFeSFeS2FeSFeS3CH2CSC2S2H2SH3FeCHSC5H3C6SCH4NFeHC3HCH3SC2FeHSC2H7C2SH7FeNHFeHCH2CH2C2HFeCFeC2HCH2C4HCH3C3H2SCHCH3C2HSCHS2HSH7CSHCHC2FeSH2CSCHC2H2Fe2HSCHC2HCHC2NHCHCSHC2H2C2SH2CH2CH2CHSCFeSCSH2FeSCSHSCHSHCFeSNS2HC6H4SFeCHCH2FeCH3CHCH2CH7CHCHC2SNFeHCNH4FeH7FeH2FeH2CH2CH4C2HCHC3SCHCH2CH4CHCHSHCH7CHCSFeSCFeSFeS2FeS2FeSFeS2NH3NCFeCH2CHC2H2C3H4FeH2CFeH2C6H5FeHNSC2H3C4H2C6H2CH2SNC4H7SCFeH2NH2CHNHSHCH4C2H2C2HCHSNH2FeHCNCHCH2SCSH4CH6CSH3CHSH2SHCHCSHCHCH3CSH5CH3SHCSH3C3H5CH7NCH2C2H2CNH6CH2C2SHCNHFeH3SCSCHFeHC2HFeSC2H3CFeS2FeSHSC3HC2HNS3CHC5H3NH2NC3H8SC2HC2H3C3H2CHSH3CFeSHSHC2FeH2SH4C2H3S2H3C2SC3SHCHCHSHC2H3FeH2C2HC2H3Fe3H2SH3NCHCHCFeHCH5FeSFeS2FeS2FeS2FeSFeS3CHNS2H3CHC2HCFeC7H5C3H2CH2NHSC3HCH4C2HCH2C6H5CH2CSH4NHC3HCH10CHCFeCH3CHSH2CHCHCH10SHCH3C3H3SC2H2CNHSHFeHC5H7CH2CHSHCHCSH5C3H3CFeSFeSHFeS3CFeHCFeS3FeHSCH3CH2NCHSH3NC2FeHFeHFeS2HCFeS2FeS2FeSFeS4H2CFeCFeSFeSHC6H4SFeHC4H6C6H4CH2C2H2SHSCHC2H4CHCH4SNC4H12CHCHNSHS2H6FeCHC3H2CH3FeCH4C2HCFeHSHSCSCH3S2C3HC2H4NH3CHNHC2HC2SC3FeSHSCH6C2H2CNC2H2FeSH5CHCSCH4FeS2HSFe2S3HSH2C4NHSHC3H5CHC2H3CFeCH4NCHSC2FeCH2C2FeHCSHSHSH2C2H2CHCH4NCHFeC4HCHSH6CHCH3C3HC2HSH2CHNC2H2CH3CHSH3FeSCFeH2SH3SCHCH2C6HCH2FeCHCNH3S2HSCH2SCFeH3SH3SHSC5HNH6CNH4SCH5FeCH3CHC2H2C3H8SC3H2CHCH2SCH2SHCFeS2CSFe2SCS2HSHSH4C7H4SC6H5SH4CHSH2NH2CHNFeHCH3CHC2H3FeNHC2HCH2CHCN2H2C2HSHCH2CFeH2C2HCH2SFeSHFeSHFeSFeS3C2SC2H4CHFeCHC2H4CH2NH3C2H3CH4NHSHCSCH2C7H3CSCH2C2SH4SCHCHCNHCH2SHSH5CHNH4SFeH2SCNHCHSHCH3FeS2NHSHSH2FeHSFeCSFeS2FeS2FeSCFeHFeHS2HSFe2HCH5SC7H7NC3H4C6H8CSH2C2NH4CH2CH2CHC2HCH2CSH7CH3SHSH2SFeC2H3FeHCH2CSHCHCFeHSCH2NH3C2HCH4SC4FeCH2C4H2SHSCSH4CFeCS2H4NH2CHSCHCHC2FeHC2FeHC2NHC2H3C2H2SHSH2FeCH2CSC2H2CH9CHSHCHC3H2CH2NH2FeCH4NHCHC4HCHCHCH2CHNHSHCHCHFeS2FeSHFeCFeNS3C6H4CHS2HCSCH3C2H5SH2CFeCNHCHCH2FeH9CH
_chemical_formula_sum              "H2048 C1280 S512 N128 Fe256"
_cell_length_a       57.9053
_cell_length_b       58.1944
_cell_length_c       98.3594
_cell_angle_alpha    78.7462
_cell_angle_beta     79.093
_cell_angle_gamma    77.4473

_space_group_name_H-M_alt    "P 1"
_space_group_IT_number       1

loop_
  _space_group_symop_operation_xyz
  'x, y, z'

loop_
  _atom_site_type_symbol
  _atom_site_label
  _atom_site_symmetry_multiplicity
  _atom_site_fract_x
  _atom_site_fract_y
  _atom_site_fract_z
  _atom_site_occupancy
  H   H1        1.0  0.09097  0.05673  0.03044  1.0000
  C   C1        1.0  0.01835  0.13832  0.01324  1.0000
  H   H2        1.0  0.06222  0.11566  0.03343  1.0000
  H   H3        1.0  0.03939  0.30410  0.01118  1.0000
  C   C2        1.0  0.04761  0.11612  0.02788  1.0000
  C   C3        1.0  0.10946  0.05449  0.02547  1.0000
  H   H4        1.0  0.04998  0.01730  0.06965  1.0000
  C   C4        1.0  0.12352  0.03156  0.02585  1.0000
  C   C5        1.0  0.11914  0.07462  0.01865  1.0000
  S   S1        1.0  0.10990  0.00683  0.03354  1.0000
  C   C6        1.0  0.14298  0.07196  0.01209  1.0000
  H   H5        1.0  0.01043  0.15486  0.00730  1.0000
  H   H6        1.0  0.06482  0.05513  0.00757  1.0000
  H   H7        1.0  0.04030  0.21563  0.01640  1.0000
  H   H8        1.0  0.10816  0.09222  0.01856  1.0000
  N   N1        1.0  0.18909  0.16477  0.00078  1.0000
  C   C7        1.0  0.14752  0.02886  0.01955  1.0000
  C   C8        1.0  0.05623  0.01635  0.05834  1.0000
  H   H9        1.0  0.03143  0.01224  0.03044  1.0000
  S   S2        1.0  0.04785  0.16376  0.01971  1.0000
  C   C9        1.0  0.12434  0.26995  0.00532  1.0000
  C   C10       1.0  0.04013  0.09492  0.02749  1.0000
  C   C11       1.0  0.02179  0.09547  0.01991  1.0000
  H   H10       1.0  0.08277  0.07764  0.00311  1.0000
  H   H11       1.0  0.00576  0.26403  0.01701  1.0000
  C   C12       1.0  0.03655  0.13784  0.02085  1.0000
  H   H12       1.0  0.10644  0.24549  0.02092  1.0000
  H   H13       1.0  0.15851  0.01123  0.01979  1.0000
  S   S3        1.0  0.12067  0.29090  0.01663  1.0000
  S   S4        1.0  0.11626  0.16126  0.00592  1.0000
  Fe  Fe1       1.0  0.07936  0.15987  0.00284  1.0000
  S   S5        1.0  0.15495  0.09698  0.00278  1.0000
  H   H14       1.0  0.16458  0.14177  0.01164  1.0000
  S   S6        1.0  0.01305  0.06902  0.01872  1.0000
  C   C13       1.0  0.11902  0.23134  0.00155  1.0000
  H   H15       1.0  0.11209  0.21507  0.00543  1.0000
  H   H16       1.0  0.07127  0.00077  0.05757  1.0000
  N   N2        1.0  0.03664  0.01425  0.05122  1.0000
  C   C14       1.0  0.11575  0.24860  0.01029  1.0000
  C   C15       1.0  0.15725  0.04905  0.01273  1.0000
  H   H17       1.0  0.10117  0.02602  0.00077  1.0000
  C   C16       1.0  0.18379  0.14299  0.01042  1.0000
  H   H18       1.0  0.19416  0.12649  0.00645  1.0000
  H   H19       1.0  0.17575  0.04686  0.00774  1.0000
  C   C17       1.0  0.03002  0.22346  0.00756  1.0000
  C   C18       1.0  0.03008  0.32234  0.00900  1.0000
  H   H20       1.0  0.17855  0.18722  0.01678  1.0000
  C   C19       1.0  0.04579  0.01360  0.03619  1.0000
  H   H21       1.0  0.05282  0.03003  0.03107  1.0000
  C   C20       1.0  0.01117  0.32796  0.00124  1.0000
  H   H22       1.0  0.04884  0.07817  0.03282  1.0000
  H   H23       1.0  0.06389  0.03256  0.05347  1.0000
  H   H24       1.0  0.15505  0.18611  0.00751  1.0000
  C   C21       1.0  0.01103  0.11717  0.01276  1.0000
  C   C22       1.0  0.21478  0.16547  0.99948  1.0000
  C   C23       1.0  0.07173  0.06830  0.99880  1.0000
  H   H25       1.0  0.06071  0.99816  0.03473  1.0000
  H   H26       1.0  0.21982  0.16567  0.00983  1.0000
  H   H27       1.0  0.18797  0.14248  0.02107  1.0000
  H   H28       1.0  0.00986  0.23994  0.03143  1.0000
  C   C24       1.0  0.17454  0.18614  0.00633  1.0000
  Fe  Fe2       1.0  0.11729  0.32962  0.00678  1.0000
  C   C25       1.0  0.01690  0.03496  0.05264  1.0000
  N   N3        1.0  0.00411  0.22962  0.01268  1.0000
  H   H29       1.0  0.00488  0.19913  0.02910  1.0000
  H   H30       1.0  0.17767  0.20288  0.99912  1.0000
  H   H31       1.0  0.00214  0.03417  0.04702  1.0000
  H   H32       1.0  0.00919  0.03583  0.06381  1.0000
  H   H33       1.0  0.02309  0.05203  0.04805  1.0000
  H   H34       1.0  0.03728  0.23943  0.00178  1.0000
  H   H35       1.0  0.03378  0.20996  0.00042  1.0000
  H   H36       1.0  0.31825  0.00156  0.35519  1.0000
  H   H37       1.0  0.31568  0.00136  0.33026  1.0000
  Fe  Fe3       1.0  0.12969  0.16406  0.67315  1.0000
  S   S7        1.0  0.13203  0.14500  0.65521  1.0000
  S   S8        1.0  0.11686  0.20349  0.67102  1.0000
  Fe  Fe4       1.0  0.14707  0.11910  0.69248  1.0000
  S   S9        1.0  0.15091  0.09588  0.67605  1.0000
  S   S10       1.0  0.15284  0.10259  0.71465  1.0000
  Fe  Fe5       1.0  0.16727  0.12495  0.66138  1.0000
  S   S11       1.0  0.19945  0.12215  0.64433  1.0000
  Fe  Fe6       1.0  0.11541  0.11807  0.67144  1.0000
  S   S12       1.0  0.08555  0.10346  0.66636  1.0000
  S   S13       1.0  0.16623  0.14631  0.67809  1.0000
  S   S14       1.0  0.11031  0.13898  0.68894  1.0000
  H   H38       1.0  0.22878  0.21998  0.66255  1.0000
  C   C26       1.0  0.17055  0.11620  0.72226  1.0000
  C   C27       1.0  0.14348  0.19787  0.69188  1.0000
  H   H39       1.0  0.25989  0.09740  0.67597  1.0000
  H   H40       1.0  0.18826  0.19188  0.66487  1.0000
  C   C28       1.0  0.30970  0.05480  0.61157  1.0000
  H   H41       1.0  0.06173  0.23223  0.71001  1.0000
  H   H42       1.0  0.17454  0.14434  0.70478  1.0000
  C   C29       1.0  0.22826  0.11832  0.64877  1.0000
  C   C30       1.0  0.24716  0.12381  0.63823  1.0000
  C   C31       1.0  0.27064  0.11969  0.64123  1.0000
  C   C32       1.0  0.23283  0.10922  0.66244  1.0000
  H   H43       1.0  0.24364  0.13113  0.62767  1.0000
  H   H44       1.0  0.21835  0.10491  0.67064  1.0000
  C   C33       1.0  0.05641  0.11021  0.67569  1.0000
  C   C34       1.0  0.03682  0.10777  0.66997  1.0000
  H   H45       1.0  0.27312  0.03253  0.64008  1.0000
  C   C35       1.0  0.25553  0.31367  0.71536  1.0000
  C   C36       1.0  0.02918  0.12172  0.69628  1.0000
  C   C37       1.0  0.05250  0.11745  0.68882  1.0000
  H   H46       1.0  0.03972  0.10198  0.65987  1.0000
  H   H47       1.0  0.08679  0.18611  0.65628  1.0000
  C   C38       1.0  0.02900  0.32013  0.71202  1.0000
  H   H48       1.0  0.06741  0.11927  0.69337  1.0000
  H   H49       1.0  0.23928  0.30898  0.71292  1.0000
  C   C39       1.0  0.24874  0.17412  0.66189  1.0000
  C   C40       1.0  0.06064  0.16142  0.64696  1.0000
  C   C41       1.0  0.13383  0.21347  0.68077  1.0000
  H   H50       1.0  0.25268  0.29134  0.74164  1.0000
  H   H51       1.0  0.04691  0.14996  0.64870  1.0000
  H   H52       1.0  0.21673  0.20255  0.74240  1.0000
  H   H53       1.0  0.16658  0.19275  0.70742  1.0000
  C   C42       1.0  0.15891  0.20494  0.69893  1.0000
  H   H54       1.0  0.08270  0.22209  0.69544  1.0000
  C   C43       1.0  0.17923  0.13646  0.71494  1.0000
  N   N4        1.0  0.22461  0.18338  0.66903  1.0000
  H   H55       1.0  0.20080  0.17352  0.68785  1.0000
  S   S15       1.0  0.21931  0.15021  0.74060  1.0000
  C   C44       1.0  0.06446  0.23244  0.69847  1.0000
  H   H56       1.0  0.28505  0.12404  0.63304  1.0000
  C   C45       1.0  0.09583  0.06340  0.69864  1.0000
  C   C46       1.0  0.03090  0.19756  0.64752  1.0000
  H   H57       1.0  0.26912  0.29699  0.71666  1.0000
  H   H58       1.0  0.21041  0.19717  0.64973  1.0000
  H   H59       1.0  0.07860  0.28749  0.68767  1.0000
  H   H60       1.0  0.02385  0.21402  0.65232  1.0000
  Fe  Fe7       1.0  0.15445  0.30333  0.72827  1.0000
  H   H61       1.0  0.30161  0.01799  0.63196  1.0000
  H   H62       1.0  0.06315  0.27501  0.66940  1.0000
  C   C47       1.0  0.04838  0.31557  0.71943  1.0000
  C   C48       1.0  0.30505  0.06157  0.63545  1.0000
  C   C49       1.0  0.08930  0.04428  0.72277  1.0000
  H   H63       1.0  0.31033  0.07932  0.63206  1.0000
  N   N5        1.0  0.10223  0.06136  0.71273  1.0000
  H   H64       1.0  0.13901  0.18032  0.69511  1.0000
  S   S16       1.0  0.30475  0.10334  0.65875  1.0000
  C   C50       1.0  0.28582  0.03234  0.63004  1.0000
  C   C51       1.0  0.22403  0.20731  0.67221  1.0000
  C   C52       1.0  0.07080  0.19682  0.65176  1.0000
  H   H65       1.0  0.32165  0.04828  0.63721  1.0000
  C   C53       1.0  0.20673  0.18500  0.65978  1.0000
  C   C54       1.0  0.17625  0.10660  0.73574  1.0000
  C   C55       1.0  0.20003  0.13694  0.73412  1.0000
  H   H66       1.0  0.24966  0.15624  0.65919  1.0000
  C   C56       1.0  0.01343  0.11256  0.67730  1.0000
  H   H67       1.0  0.26267  0.17229  0.66862  1.0000
  H   H68       1.0  0.29317  0.06219  0.64576  1.0000
  H   H69       1.0  0.02626  0.12690  0.70655  1.0000
  H   H70       1.0  0.10017  0.08415  0.72791  1.0000
  H   H71       1.0  0.21930  0.14879  0.68023  1.0000
  H   H72       1.0  0.07680  0.20288  0.64044  1.0000
  C   C57       1.0  0.27536  0.10986  0.65479  1.0000
  C   C58       1.0  0.09547  0.08495  0.71733  1.0000
  H   H73       1.0  0.20096  0.16215  0.71497  1.0000
  C   C59       1.0  0.25636  0.10491  0.66542  1.0000
  C   C60       1.0  0.04420  0.17540  0.66898  1.0000
  H   H74       1.0  0.26183  0.07033  0.61489  1.0000
  N   N6        1.0  0.29303  0.05575  0.62492  1.0000
  H   H75       1.0  0.10099  0.04606  0.69468  1.0000
  H   H76       1.0  0.20676  0.23015  0.73134  1.0000
  C   C61       1.0  0.12834  0.05285  0.71219  1.0000
  H   H77       1.0  0.28575  0.31522  0.73275  1.0000
  H   H78       1.0  0.03003  0.16438  0.67093  1.0000
  H   H79       1.0  0.03573  0.20325  0.63604  1.0000
  H   H80       1.0  0.31611  0.07198  0.60760  1.0000
  H   H81       1.0  0.23671  0.20669  0.67955  1.0000
  H   H82       1.0  0.27648  0.09211  0.61855  1.0000
  H   H83       1.0  0.23193  0.16549  0.68953  1.0000
  H   H84       1.0  0.19702  0.20344  0.73027  1.0000
  N   N7        1.0  0.05162  0.18280  0.65380  1.0000
  H   H85       1.0  0.09386  0.02630  0.71958  1.0000
  C   C62       1.0  0.19406  0.14665  0.72079  1.0000
  C   C63       1.0  0.27158  0.07428  0.62263  1.0000
  N   N8        1.0  0.24984  0.32528  0.72799  1.0000
  C   C64       1.0  0.21893  0.16707  0.68223  1.0000
  H   H86       1.0  0.20591  0.21507  0.67727  1.0000
  H   H87       1.0  0.13408  0.03480  0.70916  1.0000
  H   H88       1.0  0.09383  0.04226  0.73350  1.0000
  H   H89       1.0  0.03361  0.27147  0.70632  1.0000
  H   H90       1.0  0.20674  0.16723  0.65711  1.0000
  H   H91       1.0  0.25373  0.18603  0.65192  1.0000
  Fe  Fe8       1.0  0.18432  0.32336  0.70163  1.0000
  H   H92       1.0  0.13859  0.06503  0.70441  1.0000
  H   H93       1.0  0.25877  0.07581  0.63255  1.0000
  H   H94       1.0  0.07593  0.09213  0.71772  1.0000
  C   C65       1.0  0.16421  0.22782  0.69510  1.0000
  C   C66       1.0  0.07094  0.32001  0.71257  1.0000
  H   H95       1.0  0.22264  0.30540  0.73891  1.0000
  H   H96       1.0  0.05128  0.22278  0.69629  1.0000
  H   H97       1.0  0.07669  0.15024  0.65120  1.0000
  H   H98       1.0  0.06475  0.21290  0.65698  1.0000
  H   H99       1.0  0.08581  0.31624  0.71836  1.0000
  H   H100      1.0  0.03401  0.28837  0.68894  1.0000
  H   H101      1.0  0.01593  0.18762  0.64908  1.0000
  H   H102      1.0  0.02346  0.26084  0.69296  1.0000
  H   H103      1.0  0.03686  0.19111  0.67444  1.0000
  H   H104      1.0  0.06591  0.16626  0.63545  1.0000
  C   C67       1.0  0.13867  0.23658  0.67713  1.0000
  H   H105      1.0  0.09779  0.25938  0.69183  1.0000
  S   S17       1.0  0.18482  0.23592  0.70324  1.0000
  Fe  Fe9       1.0  0.13353  0.31806  0.70112  1.0000
  H   H106      1.0  0.07578  0.27158  0.70528  1.0000
  N   N9        1.0  0.06160  0.25712  0.69075  1.0000
  S   S18       1.0  0.13579  0.28462  0.71698  1.0000
  C   C68       1.0  0.07920  0.26940  0.69403  1.0000
  S   S19       1.0  0.19127  0.29051  0.71748  1.0000
  Fe  Fe10      1.0  0.17236  0.27430  0.70513  1.0000
  C   C69       1.0  0.15371  0.24385  0.68441  1.0000
  H   H107      1.0  0.10516  0.09813  0.71009  1.0000
  C   C70       1.0  0.06544  0.25664  0.67551  1.0000
  S   S20       1.0  0.16874  0.30585  0.68804  1.0000
  H   H108      1.0  0.05242  0.24743  0.67274  1.0000
  C   C71       1.0  0.03713  0.27001  0.69496  1.0000
  S   S21       1.0  0.29897  0.29528  0.65304  1.0000
  H   H109      1.0  0.30117  0.05102  0.60322  1.0000
  H   H110      1.0  0.08381  0.24726  0.67190  1.0000
  C   C72       1.0  0.24029  0.30881  0.74014  1.0000
  H   H111      1.0  0.27683  0.02729  0.62230  1.0000
  H   H112      1.0  0.15784  0.26156  0.68141  1.0000
  C   C73       1.0  0.00957  0.11928  0.69056  1.0000
  C   C74       1.0  0.27575  0.30950  0.66459  1.0000
  C   C75       1.0  0.25585  0.29865  0.67004  1.0000
  C   C76       1.0  0.23665  0.30960  0.67903  1.0000
  H   H113      1.0  0.25537  0.28164  0.66731  1.0000
  H   H114      1.0  0.22159  0.30085  0.68329  1.0000
  H   H115      1.0  0.13128  0.24866  0.66850  1.0000
  H   H116      1.0  0.06954  0.05029  0.72345  1.0000
  H   H117      1.0  0.05953  0.16452  0.67407  1.0000
  H   H118      1.0  0.13404  0.05213  0.72250  1.0000
  H   H119      1.0  0.04602  0.30833  0.73050  1.0000
  C   C77       1.0  0.03210  0.32980  0.69776  1.0000
  H   H120      1.0  0.10501  0.07643  0.69085  1.0000
  H   H121      1.0  0.16522  0.25143  0.73592  1.0000
  H   H122      1.0  0.15520  0.22532  0.73405  1.0000
  H   H123      1.0  0.26267  0.32565  0.70597  1.0000
  C   C78       1.0  0.16024  0.23439  0.74173  1.0000
  H   H124      1.0  0.32590  0.04067  0.61283  1.0000
  C   C79       1.0  0.07413  0.32945  0.69828  1.0000
  H   H125      1.0  0.07623  0.06959  0.69860  1.0000
  C   C80       1.0  0.19091  0.11703  0.74171  1.0000
  H   H126      1.0  0.16954  0.09097  0.74151  1.0000
  C   C81       1.0  0.20114  0.21370  0.73769  1.0000
  S   S22       1.0  0.00123  0.31346  0.72088  1.0000
  Fe  Fe11      1.0  0.09473  0.14815  0.97345  1.0000
  S   S23       1.0  0.08043  0.13860  0.95591  1.0000
  S   S24       1.0  0.13313  0.14883  0.97379  1.0000
  S   S25       1.0  0.08067  0.18280  0.98170  1.0000
  Fe  Fe12      1.0  0.26496  0.14672  0.77860  1.0000
  S   S26       1.0  0.24087  0.14434  0.79938  1.0000
  S   S27       1.0  0.30071  0.15805  0.77579  1.0000
  Fe  Fe13      1.0  0.22616  0.14087  0.76298  1.0000
  S   S28       1.0  0.19890  0.13730  0.78246  1.0000
  C   C82       1.0  0.15326  0.01848  0.84828  1.0000
  Fe  Fe14      1.0  0.21217  0.16725  0.78780  1.0000
  S   S29       1.0  0.18633  0.19955  0.79386  1.0000
  Fe  Fe15      1.0  0.22974  0.11425  0.79251  1.0000
  S   S30       1.0  0.22786  0.08153  0.80909  1.0000
  S   S31       1.0  0.23715  0.17261  0.76780  1.0000
  S   S32       1.0  0.25616  0.11490  0.77236  1.0000
  Fe  Fe16      1.0  0.13729  0.05497  0.90370  1.0000
  H   H127      1.0  0.00242  0.04771  0.91126  1.0000
  S   S33       1.0  0.15322  0.06848  0.91907  1.0000
  Fe  Fe17      1.0  0.09158  0.04398  0.89819  1.0000
  H   H128      1.0  0.21184  0.99809  0.83646  1.0000
  S   S34       1.0  0.05242  0.04911  0.90695  1.0000
  Fe  Fe18      1.0  0.12929  0.05811  0.87362  1.0000
  S   S35       1.0  0.13116  0.07897  0.85154  1.0000
  H   H129      1.0  0.27709  0.21866  0.81669  1.0000
  S   S36       1.0  0.10859  0.07633  0.89151  1.0000
  S   S37       1.0  0.13703  0.21340  0.97691  1.0000
  H   H130      1.0  0.14941  0.03211  0.83893  1.0000
  C   C83       1.0  0.29347  0.20809  0.81135  1.0000
  C   C84       1.0  0.03710  0.02846  0.90348  1.0000
  N   N10       1.0  0.17445  0.00004  0.84486  1.0000
  Fe  Fe19      1.0  0.13835  0.00992  0.89238  1.0000
  H   H131      1.0  0.03721  0.11607  0.94661  1.0000
  H   H132      1.0  0.26114  0.22782  0.79360  1.0000
  C   C85       1.0  0.22609  0.21865  0.81782  1.0000
  H   H133      1.0  0.30850  0.20844  0.81683  1.0000
  C   C86       1.0  0.20102  0.08129  0.82093  1.0000
  C   C87       1.0  0.17890  0.09050  0.81638  1.0000
  C   C88       1.0  0.15763  0.08942  0.82589  1.0000
  C   C89       1.0  0.15834  0.07947  0.84002  1.0000
  C   C90       1.0  0.18044  0.07056  0.84464  1.0000
  C   C91       1.0  0.20175  0.07124  0.83506  1.0000
  H   H134      1.0  0.17819  0.09799  0.80547  1.0000
  H   H135      1.0  0.14053  0.09620  0.82227  1.0000
  H   H136      1.0  0.18115  0.06321  0.85557  1.0000
  H   H137      1.0  0.21887  0.06421  0.83862  1.0000
  C   C92       1.0  0.27805  0.21653  0.78938  1.0000
  C   C93       1.0  0.13293  0.08806  0.92922  1.0000
  C   C94       1.0  0.11010  0.09805  0.92580  1.0000
  C   C95       1.0  0.09438  0.11407  0.93382  1.0000
  C   C96       1.0  0.10112  0.11968  0.94554  1.0000
  C   C97       1.0  0.12383  0.10949  0.94908  1.0000
  C   C98       1.0  0.13976  0.09385  0.94087  1.0000
  H   H138      1.0  0.10472  0.09381  0.91682  1.0000
  H   H139      1.0  0.07705  0.12230  0.93086  1.0000
  H   H140      1.0  0.12915  0.11353  0.95815  1.0000
  H   H141      1.0  0.15740  0.08617  0.94357  1.0000
  H   H142      1.0  0.16393  0.16459  0.98746  1.0000
  C   C99       1.0  0.32196  0.12479  0.75845  1.0000
  C   C100      1.0  0.07032  0.04392  0.98192  1.0000
  H   H143      1.0  0.29076  0.18932  0.81296  1.0000
  H   H144      1.0  0.16421  0.14444  0.85401  1.0000
  C   C101      1.0  0.06996  0.28425  0.96030  1.0000
  H   H145      1.0  0.15590  0.02809  0.85642  1.0000
  S   S38       1.0  0.10960  0.02737  0.87925  1.0000
  C   C102      1.0  0.20073  0.21639  0.80135  1.0000
  C   C103      1.0  0.07333  0.28716  0.98394  1.0000
  H   H146      1.0  0.17771  0.28735  0.77497  1.0000
  C   C104      1.0  0.09400  0.07493  0.97547  1.0000
  H   H147      1.0  0.17119  0.23691  0.76671  1.0000
  N   N11       1.0  0.16124  0.15859  0.83235  1.0000
  C   C105      1.0  0.15283  0.14478  0.84600  1.0000
  C   C106      1.0  0.18620  0.14786  0.82729  1.0000
  C   C107      1.0  0.16012  0.18354  0.83402  1.0000
  C   C108      1.0  0.14586  0.15821  0.82202  1.0000
  Fe  Fe20      1.0  0.11879  0.18155  0.98398  1.0000
  H   H148      1.0  0.10401  0.06695  0.96615  1.0000
  H   H149      1.0  0.19861  0.14876  0.83445  1.0000
  H   H150      1.0  0.18794  0.12876  0.82648  1.0000
  H   H151      1.0  0.19261  0.15712  0.81669  1.0000
  H   H152      1.0  0.17183  0.18460  0.84155  1.0000
  H   H153      1.0  0.14156  0.19217  0.83791  1.0000
  H   H154      1.0  0.16609  0.19449  0.82386  1.0000
  H   H155      1.0  0.14655  0.13970  0.82035  1.0000
  H   H156      1.0  0.15166  0.16865  0.81162  1.0000
  H   H157      1.0  0.12682  0.16594  0.82553  1.0000
  H   H158      1.0  0.15324  0.12592  0.84509  1.0000
  H   H159      1.0  0.31605  0.24487  0.79948  1.0000
  H   H160      1.0  0.08262  0.26677  0.96085  1.0000
  H   H161      1.0  0.23683  0.20991  0.82591  1.0000
  S   S39       1.0  0.15971  0.03923  0.88523  1.0000
  H   H162      1.0  0.05801  0.08827  0.94627  1.0000
  H   H163      1.0  0.11727  0.02994  0.98315  1.0000
  C   C109      1.0  0.13639  0.27390  0.99159  1.0000
  C   C110      1.0  0.13160  0.23504  0.98795  1.0000
  C   C111      1.0  0.04946  0.00836  0.89759  1.0000
  S   S40       1.0  0.08990  0.12540  0.99450  1.0000
  H   H164      1.0  0.18608  0.24991  0.78961  1.0000
  S   S41       1.0  0.11866  0.02401  0.91184  1.0000
  H   H165      1.0  0.13404  0.15235  0.85017  1.0000
  H   H166      1.0  0.05418  0.05637  0.97851  1.0000
  N   N12       1.0  0.08568  0.05666  0.98696  1.0000
  N   N13       1.0  0.29820  0.21791  0.79627  1.0000
  S   S42       1.0  0.32639  0.29647  0.78296  1.0000
  H   H167      1.0  0.07879  0.08879  0.97200  1.0000
  H   H168      1.0  0.02644  0.09447  0.91567  1.0000
  H   H169      1.0  0.11322  0.28735  0.96422  1.0000
  C   C112      1.0  0.05797  0.32237  0.96828  1.0000
  H   H170      1.0  0.08588  0.26969  0.98497  1.0000
  H   H171      1.0  0.19550  0.10944  0.75202  1.0000
  C   C113      1.0  0.02909  0.06356  0.93970  1.0000
  C   C114      1.0  0.22345  0.24336  0.81355  1.0000
  C   C115      1.0  0.18659  0.23245  0.75836  1.0000
  H   H172      1.0  0.15733  0.20057  0.76464  1.0000
  C   C116      1.0  0.17299  0.19700  0.75632  1.0000
  S   S43       1.0  0.27612  0.30640  0.81386  1.0000
  H   H173      1.0  0.10496  0.31460  0.97134  1.0000
  H   H174      1.0  0.21783  0.18602  0.81465  1.0000
  H   H175      1.0  0.01854  0.05797  0.93296  1.0000
  H   H176      1.0  0.30716  0.11572  0.76282  1.0000
  H   H177      1.0  0.07143  0.29292  0.94912  1.0000
  C   C117      1.0  0.10663  0.03955  0.99170  1.0000
  C   C118      1.0  0.17993  0.30444  0.76878  1.0000
  S   S44       1.0  0.15189  0.29538  0.75165  1.0000
  C   C119      1.0  0.21527  0.20511  0.81147  1.0000
  C   C120      1.0  0.14039  0.25627  0.98303  1.0000
  H   H178      1.0  0.03117  0.09021  0.95893  1.0000
  H   H179      1.0  0.15034  0.25911  0.97255  1.0000
  C   C121      1.0  0.19560  0.01138  0.83947  1.0000
  H   H180      1.0  0.32422  0.21029  0.77822  1.0000
  C   C122      1.0  0.32054  0.20392  0.78970  1.0000
  S   S45       1.0  0.23900  0.25931  0.82088  1.0000
  H   H181      1.0  0.02317  0.05571  0.95071  1.0000
  H   H182      1.0  0.20167  0.22171  0.76370  1.0000
  H   H183      1.0  0.23758  0.31630  0.75002  1.0000
  H   H184      1.0  0.04816  0.05523  0.93672  1.0000
  H   H185      1.0  0.19267  0.02522  0.83005  1.0000
  C   C123      1.0  0.16841  0.31302  0.75699  1.0000
  N   N14       1.0  0.07527  0.29952  0.96924  1.0000
  C   C124      1.0  0.19489  0.31768  0.77231  1.0000
  C   C125      1.0  0.32300  0.14589  0.76293  1.0000
  N   N15       1.0  0.02589  0.08982  0.93794  1.0000
  H   H186      1.0  0.07768  0.29785  0.99101  1.0000
  H   H187      1.0  0.10165  0.31474  0.95363  1.0000
  H   H188      1.0  0.20708  0.27376  0.79998  1.0000
  H   H189      1.0  0.19330  0.14830  0.98242  1.0000
  S   S46       1.0  0.25896  0.29900  0.78536  1.0000
  H   H190      1.0  0.20432  0.31070  0.78117  1.0000
  H   H191      1.0  0.27487  0.19791  0.79096  1.0000
  H   H192      1.0  0.03919  0.31950  0.97141  1.0000
  C   C126      1.0  0.20929  0.25464  0.80322  1.0000
  H   H193      1.0  0.13693  0.01060  0.85239  1.0000
  H   H194      1.0  0.16671  0.00038  0.82430  1.0000
  Fe  Fe21      1.0  0.24521  0.29469  0.80840  1.0000
  H   H195      1.0  0.18773  0.18528  0.76155  1.0000
  H   H196      1.0  0.10627  0.08435  0.97881  1.0000
  C   C127      1.0  0.19749  0.24118  0.79735  1.0000
  C   C128      1.0  0.03573  0.09915  0.92341  1.0000
  Fe  Fe22      1.0  0.12722  0.12853  0.99565  1.0000
  H   H197      1.0  0.31940  0.18472  0.79109  1.0000
  H   H198      1.0  0.06877  0.00509  0.89533  1.0000
  C   C129      1.0  0.03864  0.09637  0.94788  1.0000
  H   H199      1.0  0.05605  0.08178  0.99558  1.0000
  H   H200      1.0  0.30361  0.25143  0.78348  1.0000
  C   C130      1.0  0.09983  0.30421  0.96439  1.0000
  C   C131      1.0  0.01209  0.03230  0.90663  1.0000
  H   H201      1.0  0.19970  0.02034  0.84751  1.0000
  H   H202      1.0  0.05510  0.09140  0.92083  1.0000
  H   H203      1.0  0.19181  0.24961  0.75286  1.0000
  Fe  Fe23      1.0  0.28845  0.31323  0.79076  1.0000
  H   H204      1.0  0.08013  0.03507  0.97288  1.0000
  H   H205      1.0  0.28152  0.22265  0.77787  1.0000
  H   H206      1.0  0.05488  0.28383  0.98802  1.0000
  H   H207      1.0  0.05149  0.28048  0.96366  1.0000
  H   H208      1.0  0.21935  0.18170  0.99227  1.0000
  H   H209      1.0  0.18720  0.18052  0.97920  1.0000
  H   H210      1.0  0.14327  0.29022  0.98775  1.0000
  H   H211      1.0  0.28439  0.25389  0.79998  1.0000
  C   C132      1.0  0.18327  0.16449  0.98684  1.0000
  C   C133      1.0  0.30070  0.24308  0.79470  1.0000
  H   H212      1.0  0.03387  0.11889  0.92168  1.0000
  H   H213      1.0  0.16831  0.18659  0.74919  1.0000
  H   H214      1.0  0.14412  0.23912  0.74957  1.0000
  N   N16       1.0  0.18026  0.21937  0.74854  1.0000
  H   H215      1.0  0.11891  0.04880  0.99516  1.0000
  H   H216      1.0  0.06388  0.02994  0.99037  1.0000
  S   S47       1.0  0.00392  0.30555  0.99409  1.0000
  H   H217      1.0  0.22622  0.14963  0.99526  1.0000
  S   S48       1.0  0.10645  0.35927  0.01975  1.0000
  Fe  Fe24      1.0  0.12254  0.48726  0.05618  1.0000
  H   H218      1.0  0.04795  0.48691  0.01752  1.0000
  H   H219      1.0  0.08108  0.46167  0.04746  1.0000
  H   H220      1.0  0.25885  0.57752  0.23234  1.0000
  H   H221      1.0  0.06474  0.42076  0.02767  1.0000
  C   C134      1.0  0.14611  0.44745  0.03206  1.0000
  H   H222      1.0  0.13500  0.38401  0.03208  1.0000
  H   H223      1.0  0.12428  0.40156  0.05398  1.0000
  C   C135      1.0  0.08943  0.45664  0.02021  1.0000
  S   S49       1.0  0.12600  0.44744  0.05973  1.0000
  S   S50       1.0  0.03921  0.38685  0.01358  1.0000
  H   H224      1.0  0.08644  0.46265  0.00913  1.0000
  C   C136      1.0  0.14826  0.41456  0.01965  1.0000
  H   H225      1.0  0.04938  0.53635  0.08177  1.0000
  Fe  Fe25      1.0  0.07826  0.37402  0.00598  1.0000
  H   H226      1.0  0.14923  0.46513  0.03204  1.0000
  C   C137      1.0  0.02607  0.36418  0.01058  1.0000
  C   C138      1.0  0.13207  0.41161  0.04441  1.0000
  H   H227      1.0  0.05825  0.59904  0.07521  1.0000
  H   H228      1.0  0.02450  0.46607  0.07004  1.0000
  C   C139      1.0  0.29950  0.59490  0.22298  1.0000
  N   N17       1.0  0.06662  0.45636  0.02993  1.0000
  C   C140      1.0  0.01861  0.48376  0.06452  1.0000
  C   C141      1.0  0.13801  0.40171  0.03201  1.0000
  C   C142      1.0  0.07164  0.44904  0.04450  1.0000
  C   C143      1.0  0.13572  0.43463  0.04440  1.0000
  C   C144      1.0  0.15265  0.43728  0.01973  1.0000
  H   H229      1.0  0.27327  0.63841  0.22589  1.0000
  H   H230      1.0  0.24961  0.62827  0.23871  1.0000
  C   C145      1.0  0.05391  0.43920  0.02656  1.0000
  C   C146      1.0  0.05160  0.48050  0.02846  1.0000
  C   C147      1.0  0.13645  0.55526  0.00415  1.0000
  H   H231      1.0  0.16066  0.44725  0.01021  1.0000
  H   H232      1.0  0.04783  0.59653  0.10105  1.0000
  H   H233      1.0  0.29166  0.59107  0.21436  1.0000
  C   C148      1.0  0.26782  0.58147  0.24044  1.0000
  H   H234      1.0  0.05011  0.44393  0.01558  1.0000
  H   H235      1.0  0.14926  0.64712  0.20662  1.0000
  H   H236      1.0  0.07151  0.53582  0.09254  1.0000
  H   H237      1.0  0.03402  0.48083  0.03542  1.0000
  H   H238      1.0  0.09994  0.46873  0.02276  1.0000
  H   H239      1.0  0.10085  0.43856  0.02080  1.0000
  H   H240      1.0  0.26604  0.55285  0.13352  1.0000
  H   H241      1.0  0.05151  0.49563  0.06436  1.0000
  H   H242      1.0  0.30970  0.60952  0.21848  1.0000
  C   C149      1.0  0.02138  0.57747  0.08787  1.0000
  Fe  Fe26      1.0  0.16835  0.63876  0.14225  1.0000
  S   S51       1.0  0.18658  0.60106  0.13994  1.0000
  C   C150      1.0  0.00642  0.36973  0.00335  1.0000
  H   H243      1.0  0.32369  0.59628  0.16884  1.0000
  S   S52       1.0  0.23127  0.62524  0.12057  1.0000
  Fe  Fe27      1.0  0.19690  0.61655  0.11728  1.0000
  C   C151      1.0  0.14068  0.56864  0.10438  1.0000
  Fe  Fe28      1.0  0.21957  0.61253  0.14334  1.0000
  S   S53       1.0  0.24605  0.59130  0.15732  1.0000
  S   S54       1.0  0.05853  0.65382  0.22697  1.0000
  H   H244      1.0  0.05493  0.44830  0.05214  1.0000
  S   S55       1.0  0.17623  0.65334  0.11938  1.0000
  C   C152      1.0  0.24679  0.55303  0.13345  1.0000
  H   H245      1.0  0.15591  0.58787  0.11612  1.0000
  H   H246      1.0  0.15583  0.61439  0.01282  1.0000
  H   H247      1.0  0.06043  0.49373  0.03132  1.0000
  C   C153      1.0  0.25623  0.52080  0.11994  1.0000
  H   H248      1.0  0.16417  0.55630  0.07162  1.0000
  H   H249      1.0  0.21351  0.54152  0.11139  1.0000
  S   S56       1.0  0.10764  0.55629  0.05107  1.0000
  C   C154      1.0  0.06197  0.57922  0.07683  1.0000
  Fe  Fe29      1.0  0.13007  0.37866  0.00250  1.0000
  C   C155      1.0  0.13588  0.60540  0.18914  1.0000
  C   C156      1.0  0.11151  0.55891  0.00761  1.0000
  C   C157      1.0  0.27490  0.62395  0.14509  1.0000
  H   H250      1.0  0.26141  0.63197  0.13852  1.0000
  C   C158      1.0  0.14054  0.61697  0.17524  1.0000
  C   C159      1.0  0.12703  0.63938  0.17096  1.0000
  H   H251      1.0  0.03655  0.43862  0.03365  1.0000
  H   H252      1.0  0.15449  0.60847  0.16787  1.0000
  C   C160      1.0  0.29602  0.63313  0.14297  1.0000
  H   H253      1.0  0.27152  0.56096  0.10723  1.0000
  H   H254      1.0  0.18050  0.64331  0.19936  1.0000
  H   H255      1.0  0.24299  0.58046  0.10865  1.0000
  H   H256      1.0  0.16546  0.59164  0.00201  1.0000
  S   S57       1.0  0.20009  0.64832  0.14799  1.0000
  H   H257      1.0  0.00971  0.64230  0.23367  1.0000
  H   H258      1.0  0.29870  0.64792  0.13464  1.0000
  S   S58       1.0  0.10792  0.50892  0.03720  1.0000
  C   C161      1.0  0.25194  0.56162  0.10817  1.0000
  H   H259      1.0  0.07100  0.57060  0.10325  1.0000
  C   C162      1.0  0.28914  0.59448  0.16415  1.0000
  C   C163      1.0  0.16231  0.56315  0.08132  1.0000
  S   S59       1.0  0.15462  0.54669  0.01735  1.0000
  C   C164      1.0  0.17948  0.57540  0.08339  1.0000
  Fe  Fe30      1.0  0.12183  0.53115  0.06930  1.0000
  H   H260      1.0  0.04085  0.56929  0.11170  1.0000
  H   H261      1.0  0.14623  0.58800  0.19243  1.0000
  C   C165      1.0  0.10484  0.63901  0.19454  1.0000
  S   S60       1.0  0.19946  0.59934  0.09812  1.0000
  C   C166      1.0  0.15779  0.58101  0.10643  1.0000
  H   H262      1.0  0.12570  0.56599  0.11257  1.0000
  C   C167      1.0  0.17724  0.58444  0.09591  1.0000
  S   S61       1.0  0.12088  0.54442  0.08967  1.0000
  H   H263      1.0  0.25373  0.51459  0.11039  1.0000
  C   C168      1.0  0.14285  0.55972  0.09182  1.0000
  Fe  Fe31      1.0  0.13380  0.53222  0.03774  1.0000
  S   S62       1.0  0.04440  0.54510  0.05057  1.0000
  C   C169      1.0  0.11811  0.61647  0.19883  1.0000
  C   C170      1.0  0.05247  0.54277  0.09112  1.0000
  N   N18       1.0  0.24304  0.54541  0.12068  1.0000
  H   H264      1.0  0.24016  0.54143  0.14317  1.0000
  H   H265      1.0  0.10326  0.55611  0.01847  1.0000
  Fe  Fe32      1.0  0.08319  0.53074  0.05224  1.0000
  C   C171      1.0  0.02599  0.52361  0.05454  1.0000
  H   H266      1.0  0.07783  0.56969  0.99979  1.0000
  H   H267      1.0  0.19452  0.57796  0.07522  1.0000
  H   H268      1.0  0.08327  0.43109  0.04596  1.0000
  C   C172      1.0  0.03384  0.50052  0.06138  1.0000
  S   S63       1.0  0.11290  0.65563  0.23282  1.0000
  N   N19       1.0  0.04686  0.56908  0.08945  1.0000
  C   C173      1.0  0.31372  0.62316  0.15146  1.0000
  H   H269      1.0  0.15154  0.65738  0.00152  1.0000
  H   H270      1.0  0.27579  0.51955  0.11960  1.0000
  S   S64       1.0  0.15462  0.40298  0.00387  1.0000
  C   C174      1.0  0.29230  0.60599  0.24601  1.0000
  N   N20       1.0  0.28088  0.60135  0.23485  1.0000
  C   C175      1.0  0.05176  0.57676  0.10193  1.0000
  H   H271      1.0  0.28667  0.57929  0.17221  1.0000
  Fe  Fe33      1.0  0.09280  0.62820  0.23057  1.0000
  C   C176      1.0  0.31006  0.60411  0.16227  1.0000
  C   C177      1.0  0.21721  0.54620  0.12113  1.0000
  H   H272      1.0  0.24832  0.55725  0.09834  1.0000
  C   C178      1.0  0.03724  0.34037  0.01385  1.0000
  S   S65       1.0  0.13318  0.65472  0.15387  1.0000
  H   H273      1.0  0.31277  0.57878  0.22633  1.0000
  S   S66       1.0  0.11320  0.60243  0.21636  1.0000
  C   C179      1.0  0.27161  0.60424  0.15545  1.0000
  H   H274      1.0  0.20994  0.53380  0.13024  1.0000
  H   H275      1.0  0.23713  0.57155  0.13427  1.0000
  H   H276      1.0  0.25513  0.62023  0.22150  1.0000
  H   H277      1.0  0.04120  0.53447  0.10044  1.0000
  H   H278      1.0  0.08134  0.57323  0.07765  1.0000
  H   H279      1.0  0.24996  0.50811  0.12922  1.0000
  H   H280      1.0  0.15842  0.64744  0.18816  1.0000
  H   H281      1.0  0.20665  0.56436  0.12204  1.0000
  H   H282      1.0  0.01739  0.57178  0.07849  1.0000
  H   H283      1.0  0.09112  0.64767  0.20191  1.0000
  H   H284      1.0  0.05892  0.57365  0.06721  1.0000
  S   S67       1.0  0.15053  0.50889  0.05585  1.0000
  S   S68       1.0  0.09542  0.50711  0.07124  1.0000
  C   C180      1.0  0.10902  0.65025  0.18058  1.0000
  H   H285      1.0  0.00940  0.57009  0.09718  1.0000
  H   H286      1.0  0.01240  0.39924  0.04165  1.0000
  Fe  Fe34      1.0  0.20943  0.66047  0.12499  1.0000
  H   H287      1.0  0.01647  0.59726  0.08652  1.0000
  C   C181      1.0  0.16236  0.65318  0.19748  1.0000
  C   C182      1.0  0.26397  0.62303  0.22999  1.0000
  C   C183      1.0  0.00302  0.52981  0.05082  1.0000
  C   C184      1.0  0.16691  0.61009  0.00276  1.0000
  H   H288      1.0  0.30284  0.62046  0.24209  1.0000
  H   H289      1.0  0.18592  0.60971  0.00351  1.0000
  H   H290      1.0  0.12194  0.63342  0.99995  1.0000
  H   H291      1.0  0.28009  0.56485  0.24423  1.0000
  H   H292      1.0  0.05217  0.33593  0.01966  1.0000
  H   H293      1.0  0.01970  0.60423  0.99766  1.0000
  H   H294      1.0  0.15159  0.65122  0.29143  1.0000
  H   H295      1.0  0.09527  0.58095  0.29702  1.0000
  Fe  Fe35      1.0  0.04866  0.64646  0.25038  1.0000
  S   S69       1.0  0.11864  0.64853  0.27356  1.0000
  C   C185      1.0  0.07890  0.62227  0.30697  1.0000
  Fe  Fe36      1.0  0.30526  0.63552  0.28080  1.0000
  N   N21       1.0  0.06743  0.61215  0.29788  1.0000
  C   C186      1.0  0.05565  0.63169  0.28801  1.0000
  S   S70       1.0  0.24479  0.63121  0.30533  1.0000
  S   S71       1.0  0.29083  0.60158  0.28635  1.0000
  Fe  Fe37      1.0  0.25498  0.62482  0.28300  1.0000
  S   S72       1.0  0.23199  0.61826  0.26829  1.0000
  Fe  Fe38      1.0  0.28215  0.61091  0.30820  1.0000
  S   S73       1.0  0.28918  0.58358  0.32760  1.0000
  S   S74       1.0  0.29894  0.64355  0.30271  1.0000
  H   H296      1.0  0.06560  0.63488  0.31303  1.0000
  H   H297      1.0  0.04705  0.62470  0.28085  1.0000
  H   H298      1.0  0.09273  0.63234  0.30065  1.0000
  Fe  Fe39      1.0  0.26273  0.66292  0.29793  1.0000
  C   C187      1.0  0.08585  0.59582  0.28992  1.0000
  H   H299      1.0  0.31586  0.58801  0.39280  1.0000
  S   S75       1.0  0.01159  0.64509  0.26268  1.0000
  H   H300      1.0  0.09974  0.60532  0.28315  1.0000
  C   C188      1.0  0.16388  0.63216  0.25986  1.0000
  H   H301      1.0  0.27887  0.61159  0.25498  1.0000
  C   C189      1.0  0.32294  0.55643  0.34345  1.0000
  Fe  Fe40      1.0  0.09899  0.64815  0.25573  1.0000
  H   H302      1.0  0.07786  0.58784  0.28293  1.0000
  C   C190      1.0  0.31846  0.57470  0.33205  1.0000
  H   H303      1.0  0.19588  0.63960  0.28969  1.0000
  H   H304      1.0  0.08801  0.60806  0.31456  1.0000
  S   S76       1.0  0.27067  0.65774  0.27550  1.0000
  H   H305      1.0  0.05756  0.58384  0.31410  1.0000
  H   H306      1.0  0.04024  0.59123  0.29995  1.0000
  H   H307      1.0  0.04140  0.64424  0.29358  1.0000
  H   H308      1.0  0.03516  0.61065  0.31274  1.0000
  C   C191      1.0  0.15028  0.64130  0.27162  1.0000
  C   C192      1.0  0.04932  0.59886  0.30658  1.0000
  C   C193      1.0  0.18892  0.62545  0.25894  1.0000
  C   C194      1.0  0.20060  0.62800  0.26970  1.0000
  C   C195      1.0  0.18708  0.63770  0.28131  1.0000
  C   C196      1.0  0.16199  0.64420  0.28228  1.0000
  S   S77       1.0  0.08148  0.61826  0.25380  1.0000
  H   H309      1.0  0.06874  0.64227  0.28138  1.0000
  H   H310      1.0  0.30852  0.54770  0.34924  1.0000
  H   H311      1.0  0.15506  0.62974  0.25161  1.0000
  H   H312      1.0  0.25374  0.58569  0.24949  1.0000
  H   H313      1.0  0.19922  0.61788  0.24996  1.0000
  H   H314      1.0  0.30452  0.58978  0.25029  1.0000
  H   H315      1.0  0.32570  0.59470  0.36644  1.0000
  H   H316      1.0  0.33174  0.61098  0.39358  1.0000
  C   C197      1.0  0.33382  0.59167  0.39314  1.0000
  C   C198      1.0  0.25684  0.34271  0.67694  1.0000
  C   C199      1.0  0.23179  0.34733  0.72564  1.0000
  S   S78       1.0  0.21263  0.34583  0.69335  1.0000
  H   H317      1.0  0.14113  0.37460  0.65182  1.0000
  H   H318      1.0  0.27939  0.34385  0.72185  1.0000
  H   H319      1.0  0.14350  0.40378  0.65418  1.0000
  H   H320      1.0  0.14225  0.35949  0.67710  1.0000
  N   N22       1.0  0.16974  0.37523  0.66276  1.0000
  H   H321      1.0  0.23786  0.35963  0.71609  1.0000
  H   H322      1.0  0.22801  0.35717  0.73470  1.0000
  H   H323      1.0  0.17670  0.40879  0.66548  1.0000
  H   H324      1.0  0.16605  0.36394  0.68506  1.0000
  C   C200      1.0  0.18357  0.35194  0.65945  1.0000
  H   H325      1.0  0.25720  0.35988  0.67950  1.0000
  H   H326      1.0  0.19802  0.39416  0.65253  1.0000
  H   H327      1.0  0.16188  0.34218  0.74014  1.0000
  H   H328      1.0  0.14384  0.38886  0.67949  1.0000
  H   H329      1.0  0.19524  0.35389  0.64906  1.0000
  C   C201      1.0  0.18646  0.39111  0.66288  1.0000
  H   H330      1.0  0.29164  0.33997  0.66393  1.0000
  H   H331      1.0  0.19859  0.38328  0.67083  1.0000
  C   C202      1.0  0.15410  0.38611  0.65203  1.0000
  H   H332      1.0  0.16472  0.38883  0.64135  1.0000
  C   C203      1.0  0.15482  0.37173  0.67669  1.0000
  H   H333      1.0  0.19547  0.34321  0.66738  1.0000
  H   H334      1.0  0.21454  0.34338  0.72413  1.0000
  H   H335      1.0  0.17156  0.33947  0.65926  1.0000
  S   S79       1.0  0.14886  0.33815  0.71353  1.0000
  H   H336      1.0  0.26790  0.34036  0.74028  1.0000
  C   C204      1.0  0.27636  0.33147  0.66816  1.0000
  H   H337      1.0  0.18727  0.36606  0.74674  1.0000
  H   H338      1.0  0.05693  0.34199  0.67989  1.0000
  C   C205      1.0  0.23697  0.33177  0.68235  1.0000
  C   C206      1.0  0.05460  0.33456  0.69093  1.0000
  S   S80       1.0  0.10257  0.33377  0.68923  1.0000
  H   H339      1.0  0.01712  0.33377  0.69203  1.0000
  C   C207      1.0  0.27176  0.33141  0.73083  1.0000
  Fe  Fe41      1.0  0.11266  0.36365  0.97931  1.0000
  H   H340      1.0  0.01495  0.58385  0.98743  1.0000
  S   S81       1.0  0.11543  0.36230  0.95642  1.0000
  Fe  Fe42      1.0  0.15213  0.45387  0.89761  1.0000
  S   S82       1.0  0.16686  0.44239  0.91797  1.0000
  Fe  Fe43      1.0  0.14946  0.45228  0.86733  1.0000
  S   S83       1.0  0.15854  0.43572  0.84750  1.0000
  H   H341      1.0  0.18622  0.35230  0.96357  1.0000
  Fe  Fe44      1.0  0.10367  0.46200  0.88810  1.0000
  H   H342      1.0  0.03832  0.46273  0.85158  1.0000
  S   S84       1.0  0.16954  0.47241  0.87714  1.0000
  S   S85       1.0  0.13479  0.43156  0.88775  1.0000
  Fe  Fe45      1.0  0.25384  0.34324  0.81132  1.0000
  S   S86       1.0  0.25478  0.36659  0.82706  1.0000
  C   C208      1.0  0.00722  0.48193  0.91658  1.0000
  H   H343      1.0  0.19143  0.40705  0.97573  1.0000
  C   C209      1.0  0.09382  0.38909  0.84728  1.0000
  H   H344      1.0  0.06191  0.53960  0.85806  1.0000
  H   H345      1.0  0.32106  0.39985  0.81933  1.0000
  H   H346      1.0  0.08207  0.55970  0.88678  1.0000
  C   C210      1.0  0.02524  0.60610  0.90683  1.0000
  H   H347      1.0  0.07515  0.39709  0.84540  1.0000
  H   H348      1.0  0.31057  0.37898  0.78802  1.0000
  H   H349      1.0  0.30206  0.34477  0.81586  1.0000
  C   C211      1.0  0.18535  0.41609  0.84241  1.0000
  C   C212      1.0  0.18677  0.40477  0.83083  1.0000
  C   C213      1.0  0.20780  0.38926  0.82622  1.0000
  C   C214      1.0  0.22774  0.38516  0.83306  1.0000
  C   C215      1.0  0.22635  0.39645  0.84466  1.0000
  C   C216      1.0  0.20515  0.41175  0.84941  1.0000
  H   H350      1.0  0.17162  0.40818  0.82528  1.0000
  H   H351      1.0  0.20872  0.38086  0.81720  1.0000
  H   H352      1.0  0.24171  0.39340  0.85000  1.0000
  H   H353      1.0  0.20426  0.42046  0.85831  1.0000
  C   C217      1.0  0.04920  0.45006  0.88538  1.0000
  C   C218      1.0  0.03180  0.43609  0.89112  1.0000
  H   H354      1.0  0.32363  0.33856  0.80074  1.0000
  C   C219      1.0  0.02467  0.59843  0.98720  1.0000
  C   C220      1.0  0.03668  0.45511  0.86260  1.0000
  C   C221      1.0  0.05191  0.45933  0.87105  1.0000
  C   C222      1.0  0.30726  0.38568  0.79820  1.0000
  S   S87       1.0  0.00610  0.58755  0.90535  1.0000
  N   N23       1.0  0.32387  0.37135  0.80773  1.0000
  C   C223      1.0  0.03252  0.63726  0.97592  1.0000
  S   S88       1.0  0.21918  0.35490  0.76700  1.0000
  H   H355      1.0  0.17922  0.38038  0.98023  1.0000
  C   C224      1.0  0.12804  0.38561  0.94564  1.0000
  C   C225      1.0  0.13195  0.40443  0.95131  1.0000
  C   C226      1.0  0.14370  0.42203  0.94276  1.0000
  C   C227      1.0  0.15137  0.42090  0.92849  1.0000
  C   C228      1.0  0.14712  0.40230  0.92278  1.0000
  C   C229      1.0  0.13545  0.38468  0.93134  1.0000
  H   H356      1.0  0.12618  0.40530  0.96231  1.0000
  H   H357      1.0  0.14681  0.43648  0.94719  1.0000
  H   H358      1.0  0.15344  0.40108  0.91183  1.0000
  H   H359      1.0  0.13258  0.37008  0.92692  1.0000
  C   C230      1.0  0.18450  0.39414  0.97129  1.0000
  H   H360      1.0  0.11344  0.42877  0.84008  1.0000
  C   C231      1.0  0.19231  0.36625  0.95499  1.0000
  H   H361      1.0  0.08266  0.43587  0.84797  1.0000
  H   H362      1.0  0.13920  0.39160  0.84884  1.0000
  H   H363      1.0  0.16789  0.40387  0.96715  1.0000
  H   H364      1.0  0.13309  0.39986  0.86591  1.0000
  H   H365      1.0  0.08640  0.38172  0.87573  1.0000
  H   H366      1.0  0.10554  0.38989  0.83688  1.0000
  H   H367      1.0  0.12796  0.37152  0.86371  1.0000
  N   N24       1.0  0.10175  0.40179  0.85667  1.0000
  H   H368      1.0  0.09069  0.41061  0.87749  1.0000
  H   H369      1.0  0.01679  0.59529  0.96170  1.0000
  C   C232      1.0  0.10092  0.42704  0.85017  1.0000
  H   H370      1.0  0.02753  0.64436  0.98600  1.0000
  S   S89       1.0  0.26923  0.35130  0.78849  1.0000
  H   H371      1.0  0.04405  0.59050  0.98591  1.0000
  H   H372      1.0  0.29994  0.38048  0.82626  1.0000
  H   H373      1.0  0.21957  0.35622  0.97540  1.0000
  S   S90       1.0  0.11966  0.48251  0.89965  1.0000
  C   C233      1.0  0.32056  0.34628  0.81057  1.0000
  H   H374      1.0  0.03008  0.42842  0.90212  1.0000
  H   H375      1.0  0.06676  0.40805  0.86896  1.0000
  H   H376      1.0  0.02906  0.65251  0.96729  1.0000
  H   H377      1.0  0.28824  0.38515  0.80291  1.0000
  H   H378      1.0  0.17655  0.37537  0.94980  1.0000
  H   H379      1.0  0.23191  0.38294  0.97088  1.0000
  H   H380      1.0  0.09426  0.36995  0.85182  1.0000
  C   C234      1.0  0.22396  0.37060  0.96658  1.0000
  H   H381      1.0  0.19293  0.61924  0.97742  1.0000
  C   C235      1.0  0.20894  0.40223  0.94875  1.0000
  H   H382      1.0  0.20559  0.35716  0.94705  1.0000
  N   N25       1.0  0.20242  0.38332  0.96038  1.0000
  C   C236      1.0  0.08572  0.40046  0.87031  1.0000
  C   C237      1.0  0.12653  0.39063  0.85890  1.0000
  H   H383      1.0  0.10629  0.43731  0.85710  1.0000
  H   H384      1.0  0.02642  0.62347  0.88533  1.0000
  C   C238      1.0  0.04608  0.63879  0.89668  1.0000
  H   H385      1.0  0.02148  0.56766  0.87726  1.0000
  C   C239      1.0  0.31874  0.38095  0.82106  1.0000
  H   H386      1.0  0.06529  0.47019  0.86656  1.0000
  H   H387      1.0  0.30912  0.40474  0.79588  1.0000
  H   H388      1.0  0.05960  0.33258  0.95744  1.0000
  C   C240      1.0  0.01876  0.44169  0.86848  1.0000
  H   H389      1.0  0.32136  0.34706  0.77158  1.0000
  H   H390      1.0  0.16835  0.63306  0.96813  1.0000
  S   S91       1.0  0.06606  0.45672  0.89666  1.0000
  C   C241      1.0  0.19786  0.33974  0.76421  1.0000
  S   S92       1.0  0.11653  0.48122  0.86705  1.0000
  C   C242      1.0  0.12520  0.53397  0.94929  1.0000
  Fe  Fe46      1.0  0.10519  0.60773  0.95219  1.0000
  S   S93       1.0  0.14303  0.61258  0.94943  1.0000
  S   S94       1.0  0.08924  0.58257  0.96996  1.0000
  Fe  Fe47      1.0  0.09532  0.64325  0.92601  1.0000
  H   H391      1.0  0.05888  0.57027  0.86005  1.0000
  Fe  Fe48      1.0  0.14347  0.61121  0.92673  1.0000
  S   S95       1.0  0.17188  0.58517  0.91569  1.0000
  H   H392      1.0  0.18126  0.65184  0.99179  1.0000
  S   S96       1.0  0.10647  0.60354  0.93000  1.0000
  H   H393      1.0  0.22237  0.39469  0.94029  1.0000
  C   C243      1.0  0.16108  0.57345  0.90342  1.0000
  C   C244      1.0  0.13102  0.57522  0.88886  1.0000
  C   C245      1.0  0.14046  0.58556  0.89783  1.0000
  H   H394      1.0  0.11523  0.58485  0.88445  1.0000
  H   H395      1.0  0.13191  0.60304  0.90029  1.0000
  S   S97       1.0  0.08755  0.34321  0.99420  1.0000
  C   C246      1.0  0.17351  0.62013  0.97751  1.0000
  H   H396      1.0  0.06079  0.33402  0.97528  1.0000
  C   C247      1.0  0.05321  0.63812  0.90959  1.0000
  C   C248      1.0  0.04696  0.62096  0.92102  1.0000
  C   C249      1.0  0.03282  0.60505  0.91967  1.0000
  H   H397      1.0  0.10230  0.53611  0.92754  1.0000
  H   H398      1.0  0.13572  0.48728  0.93132  1.0000
  H   H399      1.0  0.05250  0.62043  0.93099  1.0000
  H   H400      1.0  0.08589  0.51795  0.88383  1.0000
  H   H401      1.0  0.13776  0.48653  0.94938  1.0000
  C   C250      1.0  0.12899  0.49710  0.94040  1.0000
  H   H402      1.0  0.10549  0.53551  0.95245  1.0000
  H   H403      1.0  0.05479  0.55816  0.89883  1.0000
  C   C251      1.0  0.02600  0.60997  0.96209  1.0000
  H   H404      1.0  0.05119  0.65187  0.88779  1.0000
  C   C252      1.0  0.10759  0.57127  0.98296  1.0000
  N   N26       1.0  0.05603  0.54571  0.87943  1.0000
  H   H405      1.0  0.12853  0.52625  0.91553  1.0000
  C   C253      1.0  0.02970  0.54882  0.88092  1.0000
  S   S98       1.0  0.10069  0.39602  0.98979  1.0000
  H   H406      1.0  0.05537  0.58078  0.88359  1.0000
  H   H407      1.0  0.02777  0.59196  0.92856  1.0000
  H   H408      1.0  0.17102  0.52291  0.88873  1.0000
  H   H409      1.0  0.05906  0.51565  0.89612  1.0000
  C   C254      1.0  0.06235  0.56176  0.88751  1.0000
  C   C255      1.0  0.06607  0.55152  0.86447  1.0000
  N   N27       1.0  0.15901  0.62733  0.99059  1.0000
  H   H410      1.0  0.01685  0.47593  0.90661  1.0000
  C   C256      1.0  0.18545  0.34876  0.75283  1.0000
  Fe  Fe49      1.0  0.12811  0.65174  0.94428  1.0000
  H   H411      1.0  0.16749  0.51150  0.92378  1.0000
  Fe  Fe50      1.0  0.13531  0.49946  0.87857  1.0000
  C   C257      1.0  0.03224  0.62267  0.89527  1.0000
  C   C258      1.0  0.14696  0.55919  0.99006  1.0000
  H   H412      1.0  0.16627  0.55602  0.98735  1.0000
  C   C259      1.0  0.16022  0.52039  0.93317  1.0000
  H   H413      1.0  0.01691  0.47103  0.92513  1.0000
  N   N28       1.0  0.13409  0.52157  0.93700  1.0000
  H   H414      1.0  0.16477  0.53855  0.93065  1.0000
  H   H415      1.0  0.21654  0.41549  0.95244  1.0000
  H   H416      1.0  0.06179  0.50802  0.87898  1.0000
  S   S99       1.0  0.13263  0.65105  0.92108  1.0000
  H   H417      1.0  0.12896  0.55246  0.94701  1.0000
  S   S100      1.0  0.12890  0.53955  0.87495  1.0000
  H   H418      1.0  0.10943  0.49724  0.94322  1.0000
  C   C260      1.0  0.13348  0.62772  0.99034  1.0000
  C   C261      1.0  0.17232  0.55103  0.89989  1.0000
  H   H419      1.0  0.13038  0.60979  0.98970  1.0000
  H   H420      1.0  0.05219  0.63022  0.97454  1.0000
  H   H421      1.0  0.18848  0.54175  0.90402  1.0000
  C   C262      1.0  0.14178  0.55247  0.88571  1.0000
  S   S101      1.0  0.06828  0.65987  0.91169  1.0000
  Fe  Fe51      1.0  0.23843  0.33644  0.78505  1.0000
  C   C263      1.0  0.06607  0.52073  0.88483  1.0000
  C   C264      1.0  0.16244  0.54034  0.89127  1.0000
  C   C265      1.0  0.13255  0.56716  0.97947  1.0000
  H   H422      1.0  0.14079  0.56980  0.96863  1.0000
  H   H423      1.0  0.13384  0.52450  0.95855  1.0000
  H   H424      1.0  0.16995  0.51030  0.94187  1.0000
  C   C266      1.0  0.01665  0.43189  0.88271  1.0000
  H   H425      1.0  0.12549  0.55342  0.92226  1.0000
  C   C267      1.0  0.12204  0.53488  0.92507  1.0000
  N   N29       1.0  0.01906  0.61845  0.97578  1.0000
  H   H426      1.0  0.02428  0.53725  0.87478  1.0000
  H   H427      1.0  0.08593  0.54948  0.86300  1.0000
  H   H428      1.0  0.17112  0.60229  0.97613  1.0000
  H   H429      1.0  0.02146  0.62454  0.95330  1.0000
  H   H430      1.0  0.33070  0.37043  0.82860  1.0000
  H   H431      1.0  0.04556  0.60294  0.95997  1.0000
  H   H432      1.0  0.19308  0.41217  0.94382  1.0000
  H   H433      1.0  0.12708  0.64020  0.98111  1.0000
  S   S102      1.0  0.14370  0.34757  0.99081  1.0000
  S   S103      1.0  0.08983  0.64682  0.94871  1.0000
  H   H434      1.0  0.23799  0.36223  0.95868  1.0000
  H   H435      1.0  0.00882  0.50084  0.91592  1.0000
  H   H436      1.0  0.02161  0.54436  0.89208  1.0000
  H   H437      1.0  0.33307  0.33481  0.81752  1.0000
  C   C268      1.0  0.16216  0.65139  0.99174  1.0000
  H   H438      1.0  0.00308  0.65531  0.91535  1.0000
  H   H439      1.0  0.00338  0.42089  0.88723  1.0000
  C   C269      1.0  0.17110  0.33524  0.74907  1.0000
  C   C270      1.0  0.09710  0.56672  0.99702  1.0000
  S   S104      1.0  0.22157  0.33097  0.80775  1.0000
  C   C271      1.0  0.05608  0.82026  0.23951  1.0000
  S   S105      1.0  0.21970  0.69631  0.11673  1.0000
  H   H440      1.0  0.19656  0.67759  0.18379  1.0000
  C   C272      1.0  0.22268  0.73644  0.12629  1.0000
  C   C273      1.0  0.22347  0.71179  0.12957  1.0000
  C   C274      1.0  0.22623  0.70006  0.14317  1.0000
  C   C275      1.0  0.22717  0.71303  0.15359  1.0000
  H   H441      1.0  0.15011  0.70451  0.15097  1.0000
  H   H442      1.0  0.31192  0.83312  0.21967  1.0000
  H   H443      1.0  0.22943  0.70386  0.16407  1.0000
  S   S106      1.0  0.22911  0.75336  0.16321  1.0000
  H   H444      1.0  0.17458  0.71895  0.14190  1.0000
  H   H445      1.0  0.11529  0.71964  0.12160  1.0000
  H   H446      1.0  0.13499  0.69197  0.12640  1.0000
  H   H447      1.0  0.27755  0.69777  0.17259  1.0000
  H   H448      1.0  0.15002  0.73760  0.10813  1.0000
  N   N30       1.0  0.14576  0.72301  0.13015  1.0000
  H   H449      1.0  0.11039  0.87882  0.24460  1.0000
  H   H450      1.0  0.17552  0.73601  0.11651  1.0000
  N   N31       1.0  0.30306  0.71624  0.15832  1.0000
  C   C276      1.0  0.13288  0.74985  0.21374  1.0000
  C   C277      1.0  0.32161  0.69450  0.15720  1.0000
  C   C278      1.0  0.22621  0.73768  0.15032  1.0000
  C   C279      1.0  0.11153  0.74413  0.21183  1.0000
  C   C280      1.0  0.12701  0.70982  0.12942  1.0000
  S   S107      1.0  0.07686  0.71674  0.21826  1.0000
  H   H451      1.0  0.15447  0.89984  0.00458  1.0000
  H   H452      1.0  0.09820  0.85479  0.22977  1.0000
  Fe  Fe52      1.0  0.07777  0.68050  0.23112  1.0000
  C   C281      1.0  0.11308  0.71434  0.23276  1.0000
  H   H453      1.0  0.09359  0.88097  0.21696  1.0000
  S   S108      1.0  0.19589  0.91957  0.00693  1.0000
  H   H454      1.0  0.23800  0.86874  0.06330  1.0000
  H   H455      1.0  0.02021  0.99209  0.06894  1.0000
  H   H456      1.0  0.32553  0.73407  0.16617  1.0000
  H   H457      1.0  0.11547  0.70653  0.13977  1.0000
  C   C282      1.0  0.28913  0.72064  0.14663  1.0000
  C   C283      1.0  0.22419  0.74936  0.13664  1.0000
  C   C284      1.0  0.13453  0.71975  0.23455  1.0000
  C   C285      1.0  0.10187  0.72608  0.22125  1.0000
  S   S109      1.0  0.17074  0.74465  0.22762  1.0000
  H   H458      1.0  0.00775  0.90889  0.01341  1.0000
  C   C286      1.0  0.13448  0.74635  0.13445  1.0000
  H   H459      1.0  0.27297  0.72908  0.17316  1.0000
  H   H460      1.0  0.17721  0.70610  0.18073  1.0000
  C   C287      1.0  0.16095  0.70907  0.14055  1.0000
  H   H461      1.0  0.06492  0.91721  0.22377  1.0000
  H   H462      1.0  0.22088  0.74559  0.11575  1.0000
  H   H463      1.0  0.21409  0.72999  0.24626  1.0000
  C   C288      1.0  0.14454  0.73733  0.22497  1.0000
  H   H464      1.0  0.12325  0.74414  0.14497  1.0000
  H   H465      1.0  0.12278  0.75733  0.12687  1.0000
  H   H466      1.0  0.04206  0.89973  0.23084  1.0000
  H   H467      1.0  0.05864  0.86345  0.02562  1.0000
  H   H468      1.0  0.16926  0.70949  0.11258  1.0000
  H   H469      1.0  0.04069  0.75763  0.22720  1.0000
  H   H470      1.0  0.17079  0.69202  0.13715  1.0000
  C   C289      1.0  0.31440  0.73695  0.15768  1.0000
  H   H471      1.0  0.06984  0.86437  0.22357  1.0000
  C   C290      1.0  0.16070  0.72676  0.11623  1.0000
  H   H472      1.0  0.31551  0.86321  0.21922  1.0000
  C   C291      1.0  0.02705  0.86439  0.00858  1.0000
  H   H473      1.0  0.32596  0.74083  0.14745  1.0000
  H   H474      1.0  0.30801  0.83417  0.16291  1.0000
  H   H475      1.0  0.03839  0.84640  0.01078  1.0000
  H   H476      1.0  0.20534  0.90576  0.13886  1.0000
  S   S110      1.0  0.26904  0.78826  0.13410  1.0000
  H   H477      1.0  0.27995  0.70557  0.14691  1.0000
  H   H478      1.0  0.16130  0.90557  0.20026  1.0000
  C   C292      1.0  0.09624  0.89392  0.24107  1.0000
  Fe  Fe53      1.0  0.13224  0.96956  0.03694  1.0000
  S   S111      1.0  0.12904  0.94290  0.02398  1.0000
  C   C293      1.0  0.02188  0.94095  0.04149  1.0000
  Fe  Fe54      1.0  0.16316  0.93190  0.05605  1.0000
  S   S112      1.0  0.16200  0.90229  0.04475  1.0000
  S   S113      1.0  0.18501  0.92841  0.07354  1.0000
  Fe  Fe55      1.0  0.16784  0.92884  0.02516  1.0000
  H   H479      1.0  0.17360  0.68151  0.17316  1.0000
  Fe  Fe56      1.0  0.12319  0.91894  0.04467  1.0000
  S   S114      1.0  0.09439  0.89683  0.05016  1.0000
  S   S115      1.0  0.17191  0.95758  0.03634  1.0000
  S   S116      1.0  0.12361  0.94643  0.05768  1.0000
  Fe  Fe57      1.0  0.24648  0.82326  0.12620  1.0000
  S   S117      1.0  0.21754  0.82098  0.14484  1.0000
  S   S118      1.0  0.23429  0.82890  0.10494  1.0000
  Fe  Fe58      1.0  0.28646  0.80914  0.14489  1.0000
  S   S119      1.0  0.26018  0.80621  0.16480  1.0000
  H   H480      1.0  0.16676  0.70561  0.20624  1.0000
  Fe  Fe59      1.0  0.23894  0.83974  0.15432  1.0000
  S   S120      1.0  0.22092  0.87258  0.16367  1.0000
  H   H481      1.0  0.17839  0.88409  0.11296  1.0000
  S   S121      1.0  0.26662  0.84444  0.13503  1.0000
  C   C294      1.0  0.19806  0.90062  0.08244  1.0000
  C   C295      1.0  0.21540  0.89989  0.09084  1.0000
  C   C296      1.0  0.22636  0.87805  0.09799  1.0000
  C   C297      1.0  0.22008  0.85676  0.09676  1.0000
  C   C298      1.0  0.20277  0.85749  0.08834  1.0000
  C   C299      1.0  0.19161  0.87935  0.08131  1.0000
  H   H482      1.0  0.22055  0.91629  0.09170  1.0000
  H   H483      1.0  0.24001  0.87761  0.10424  1.0000
  H   H484      1.0  0.19791  0.84105  0.08729  1.0000
  H   H485      1.0  0.17809  0.87973  0.07500  1.0000
  C   C300      1.0  0.06649  0.91392  0.04696  1.0000
  C   C301      1.0  0.28696  0.71284  0.17184  1.0000
  C   C302      1.0  0.06501  0.93659  0.03883  1.0000
  H   H486      1.0  0.04663  0.88722  0.05870  1.0000
  H   H487      1.0  0.08096  0.94389  0.03472  1.0000
  Fe  Fe60      1.0  0.24145  0.78775  0.15336  1.0000
  H   H488      1.0  0.18677  0.85857  0.12574  1.0000
  H   H489      1.0  0.15583  0.87260  0.12597  1.0000
  Fe  Fe61      1.0  0.15715  0.77805  0.23677  1.0000
  H   H490      1.0  0.14263  0.91428  0.13173  1.0000
  H   H491      1.0  0.12291  0.68610  0.20259  1.0000
  H   H492      1.0  0.17188  0.89306  0.15571  1.0000
  C   C303      1.0  0.02767  0.99206  0.05766  1.0000
  C   C304      1.0  0.04686  0.88097  0.02283  1.0000
  C   C305      1.0  0.16986  0.88159  0.14832  1.0000
  H   H493      1.0  0.19034  0.90777  0.17834  1.0000
  H   H494      1.0  0.16688  0.92397  0.11918  1.0000
  N   N32       1.0  0.17712  0.89200  0.13357  1.0000
  H   H495      1.0  0.15092  0.87920  0.15035  1.0000
  H   H496      1.0  0.16360  0.92808  0.13715  1.0000
  H   H497      1.0  0.05052  0.91708  0.24168  1.0000
  H   H498      1.0  0.01049  0.86520  0.01647  1.0000
  H   H499      1.0  0.30072  0.72312  0.13626  1.0000
  C   C306      1.0  0.32528  0.84503  0.21757  1.0000
  H   H500      1.0  0.22364  0.76840  0.13401  1.0000
  Fe  Fe62      1.0  0.14795  0.83127  0.23411  1.0000
  H   H501      1.0  0.14824  0.75675  0.13501  1.0000
  C   C307      1.0  0.01324  0.83078  0.23855  1.0000
  H   H502      1.0  0.05679  0.89509  0.02335  1.0000
  H   H503      1.0  0.21459  0.87718  0.13339  1.0000
  H   H504      1.0  0.20824  0.90346  0.12065  1.0000
  H   H505      1.0  0.18120  0.86385  0.15120  1.0000
  C   C308      1.0  0.16794  0.86720  0.20452  1.0000
  C   C309      1.0  0.18094  0.84618  0.19978  1.0000
  C   C310      1.0  0.19728  0.84744  0.18715  1.0000
  C   C311      1.0  0.20076  0.86970  0.17944  1.0000
  C   C312      1.0  0.18766  0.89055  0.18422  1.0000
  C   C313      1.0  0.17122  0.88931  0.19663  1.0000
  H   H506      1.0  0.17841  0.82902  0.20579  1.0000
  H   H507      1.0  0.20735  0.83124  0.18351  1.0000
  H   H508      1.0  0.29707  0.70909  0.18085  1.0000
  C   C314      1.0  0.13623  0.69146  0.19337  1.0000
  H   H509      1.0  0.10272  0.75343  0.20301  1.0000
  H   H510      1.0  0.04178  0.96725  0.02943  1.0000
  C   C315      1.0  0.17779  0.68647  0.18269  1.0000
  H   H511      1.0  0.30073  0.75347  0.15893  1.0000
  C   C316      1.0  0.05756  0.90576  0.23335  1.0000
  H   H512      1.0  0.18542  0.67688  0.20969  1.0000
  S   S122      1.0  0.32627  0.79637  0.14573  1.0000
  S   S123      1.0  0.14720  0.86677  0.22013  1.0000
  C   C317      1.0  0.04557  0.90470  0.05232  1.0000
  C   C318      1.0  0.03701  0.82976  0.23188  1.0000
  S   S124      1.0  0.12604  0.80609  0.23068  1.0000
  N   N33       1.0  0.16089  0.67929  0.19531  1.0000
  N   N34       1.0  0.04005  0.88352  0.00880  1.0000
  H   H513      1.0  0.14043  0.76387  0.20652  1.0000
  H   H514      1.0  0.00703  0.91146  0.05417  1.0000
  N   N35       1.0  0.24020  0.88478  0.04155  1.0000
  C   C319      1.0  0.23304  0.88104  0.02861  1.0000
  C   C320      1.0  0.22812  0.90861  0.04484  1.0000
  C   C321      1.0  0.26641  0.88321  0.03948  1.0000
  C   C322      1.0  0.23322  0.86625  0.05329  1.0000
  H   H515      1.0  0.21330  0.88232  0.02977  1.0000
  H   H516      1.0  0.24163  0.86319  0.02581  1.0000
  H   H517      1.0  0.23798  0.89471  0.01951  1.0000
  H   H518      1.0  0.23238  0.92307  0.03607  1.0000
  H   H519      1.0  0.20836  0.91026  0.04679  1.0000
  H   H520      1.0  0.23322  0.91223  0.05448  1.0000
  H   H521      1.0  0.27611  0.86548  0.03692  1.0000
  H   H522      1.0  0.27236  0.88584  0.04911  1.0000
  H   H523      1.0  0.27222  0.89707  0.03074  1.0000
  H   H524      1.0  0.24221  0.84802  0.05129  1.0000
  H   H525      1.0  0.21356  0.86677  0.05499  1.0000
  C   C323      1.0  0.02442  0.90700  0.00562  1.0000
  C   C324      1.0  0.04279  0.94991  0.03594  1.0000
  H   H526      1.0  0.07430  0.81927  0.23425  1.0000
  C   C325      1.0  0.08468  0.87072  0.22655  1.0000
  C   C326      1.0  0.17438  0.87611  0.12417  1.0000
  C   C327      1.0  0.02321  0.91829  0.04964  1.0000
  C   C328      1.0  0.16185  0.91564  0.13027  1.0000
  H   H527      1.0  0.04066  0.83612  0.22074  1.0000
  H   H528      1.0  0.03352  0.92190  0.00582  1.0000
  S   S125      1.0  0.18049  0.80331  0.23785  1.0000
  N   N36       1.0  0.07598  0.88523  0.23790  1.0000
  C   C329      1.0  0.16715  0.68607  0.20768  1.0000
  C   C330      1.0  0.20240  0.89475  0.13149  1.0000
  H   H529      1.0  0.13103  0.68707  0.18400  1.0000
  H   H530      1.0  0.32407  0.85307  0.24393  1.0000
  H   H531      1.0  0.10518  0.70115  0.24042  1.0000
  H   H532      1.0  0.13428  0.71119  0.19206  1.0000
  H   H533      1.0  0.27516  0.73703  0.14709  1.0000
  H   H534      1.0  0.31346  0.67851  0.15799  1.0000
  H   H535      1.0  0.09844  0.66753  0.17730  1.0000
  H   H536      1.0  0.01320  0.98966  0.05232  1.0000
  H   H537      1.0  0.22834  0.68095  0.14557  1.0000
  H   H538      1.0  0.31956  0.82331  0.24435  1.0000
  H   H539      1.0  0.03083  0.88236  0.03112  1.0000
  H   H540      1.0  0.10501  0.90460  0.23162  1.0000
  H   H541      1.0  0.15437  0.68148  0.21732  1.0000
  H   H542      1.0  0.07425  0.86435  0.00046  1.0000
  H   H543      1.0  0.04219  0.97607  0.05699  1.0000
  C   C331      1.0  0.17017  0.89150  0.99818  1.0000
  H   H544      1.0  0.14314  0.71048  0.24344  1.0000
  H   H545      1.0  0.32762  0.85064  0.17830  1.0000
  C   C332      1.0  0.01755  0.72547  0.24467  1.0000
  C   C333      1.0  0.32641  0.82674  0.16428  1.0000
  H   H546      1.0  0.03029  0.78129  0.23734  1.0000
  H   H547      1.0  0.00931  0.77027  0.23026  1.0000
  C   C334      1.0  0.02587  0.76485  0.23515  1.0000
  H   H548      1.0  0.03210  0.71743  0.23689  1.0000
  C   C335      1.0  0.19243  0.89770  0.99778  1.0000
  H   H549      1.0  0.02150  0.86587  0.99814  1.0000
  C   C336      1.0  0.06187  0.88170  0.99817  1.0000
  H   H550      1.0  0.33278  0.69079  0.16570  1.0000
  H   H551      1.0  0.33304  0.84611  0.20624  1.0000
  C   C337      1.0  0.33311  0.83507  0.24150  1.0000
  H   H552      1.0  0.00066  0.72946  0.24013  1.0000
  H   H553      1.0  0.06076  0.73361  0.24674  1.0000
  H   H554      1.0  0.07192  0.89611  0.99785  1.0000
  H   H555      1.0  0.33375  0.69599  0.14699  1.0000
  N   N37       1.0  0.19888  0.71622  0.26722  1.0000
  H   H556      1.0  0.04988  0.75730  0.25689  1.0000
  H   H557      1.0  0.22228  0.74634  0.31518  1.0000
  C   C338      1.0  0.06547  0.87049  0.25060  1.0000
  Fe  Fe63      1.0  0.11310  0.80381  0.25377  1.0000
  S   S126      1.0  0.24606  0.70064  0.30095  1.0000
  H   H558      1.0  0.02399  0.80744  0.27181  1.0000
  H   H559      1.0  0.22673  0.68901  0.25921  1.0000
  H   H560      1.0  0.23840  0.80323  0.31899  1.0000
  Fe  Fe64      1.0  0.31511  0.83322  0.32457  1.0000
  H   H561      1.0  0.22129  0.74259  0.25998  1.0000
  N   N38       1.0  0.02291  0.74722  0.24809  1.0000
  H   H562      1.0  0.19594  0.80929  0.31740  1.0000
  S   S127      1.0  0.32350  0.75046  0.31463  1.0000
  H   H563      1.0  0.18337  0.71057  0.28899  1.0000
  C   C339      1.0  0.22881  0.83564  0.29105  1.0000
  H   H564      1.0  0.31159  0.70437  0.32491  1.0000
  C   C340      1.0  0.29968  0.71380  0.31754  1.0000
  H   H565      1.0  0.32716  0.68780  0.29736  1.0000
  C   C341      1.0  0.28265  0.70252  0.31446  1.0000
  C   C342      1.0  0.26725  0.71462  0.30495  1.0000
  H   H566      1.0  0.04959  0.86435  0.24873  1.0000
  H   H567      1.0  0.09044  0.90515  0.24949  1.0000
  C   C343      1.0  0.20706  0.73577  0.25664  1.0000
  C   C344      1.0  0.17989  0.70789  0.26240  1.0000
  H   H568      1.0  0.31391  0.71111  0.28468  1.0000
  H   H569      1.0  0.01549  0.71163  0.25416  1.0000
  C   C345      1.0  0.18948  0.72491  0.28072  1.0000
  H   H570      1.0  0.19219  0.75120  0.25498  1.0000
  H   H571      1.0  0.20047  0.78562  0.30741  1.0000
  C   C346      1.0  0.20483  0.80816  0.27984  1.0000
  C   C347      1.0  0.00859  0.82228  0.25291  1.0000
  C   C348      1.0  0.20459  0.84351  0.28956  1.0000
  S   S128      1.0  0.07487  0.80245  0.26406  1.0000
  C   C349      1.0  0.30138  0.73716  0.31109  1.0000
  C   C350      1.0  0.26886  0.73803  0.29854  1.0000
  Fe  Fe65      1.0  0.16393  0.80028  0.26050  1.0000
  H   H572      1.0  0.05953  0.88054  0.25957  1.0000
  S   S129      1.0  0.18912  0.78771  0.27648  1.0000
  C   C351      1.0  0.19731  0.78966  0.31829  1.0000
  H   H573      1.0  0.20251  0.74375  0.33154  1.0000
  S   S130      1.0  0.13319  0.83082  0.25706  1.0000
  S   S131      1.0  0.14224  0.77325  0.25954  1.0000
  Fe  Fe66      1.0  0.28023  0.83584  0.30422  1.0000
  S   S132      1.0  0.30702  0.81310  0.29030  1.0000
  S   S133      1.0  0.24233  0.85108  0.30015  1.0000
  H   H574      1.0  0.31789  0.96346  0.34732  1.0000
  H   H575      1.0  0.19487  0.85982  0.29322  1.0000
  H   H576      1.0  0.17370  0.83551  0.28337  1.0000
  H   H577      1.0  0.22575  0.77110  0.34686  1.0000
  C   C352      1.0  0.24129  0.81467  0.28620  1.0000
  C   C353      1.0  0.22925  0.80079  0.28081  1.0000
  C   C354      1.0  0.21130  0.78097  0.34072  1.0000
  S   S134      1.0  0.30539  0.85957  0.30568  1.0000
  S   S135      1.0  0.28731  0.81164  0.32438  1.0000
  H   H578      1.0  0.25707  0.74732  0.29110  1.0000
  H   H579      1.0  0.23434  0.73964  0.33128  1.0000
  H   H580      1.0  0.18634  0.70158  0.25212  1.0000
  H   H581      1.0  0.17411  0.74007  0.27970  1.0000
  C   C355      1.0  0.19263  0.82987  0.28390  1.0000
  H   H582      1.0  0.24407  0.78031  0.30840  1.0000
  C   C356      1.0  0.28601  0.74927  0.30156  1.0000
  H   H583      1.0  0.25995  0.80856  0.28717  1.0000
  H   H584      1.0  0.25470  0.77400  0.32492  1.0000
  C   C357      1.0  0.05146  0.81248  0.25396  1.0000
  H   H585      1.0  0.20962  0.80032  0.34101  1.0000
  H   H586      1.0  0.19421  0.77553  0.34621  1.0000
  N   N39       1.0  0.21675  0.77616  0.32613  1.0000
  C   C358      1.0  0.21904  0.75036  0.32609  1.0000
  H   H587      1.0  0.17965  0.78516  0.32337  1.0000
  C   C359      1.0  0.02768  0.81335  0.26061  1.0000
  C   C360      1.0  0.23949  0.78376  0.31936  1.0000
  C   C361      1.0  0.32830  0.69508  0.28598  1.0000
  H   H588      1.0  0.28747  0.76720  0.29640  1.0000
  H   H589      1.0  0.23872  0.78400  0.27771  1.0000
  H   H590      1.0  0.28131  0.68450  0.31955  1.0000
  H   H591      1.0  0.17350  0.69292  0.27004  1.0000
  H   H592      1.0  0.16416  0.72247  0.26094  1.0000
  H   H593      1.0  0.23391  0.70205  0.27268  1.0000
  Fe  Fe67      1.0  0.31591  0.79054  0.31055  1.0000
  C   C362      1.0  0.04532  0.74120  0.25422  1.0000
  S   S136      1.0  0.32262  0.84124  0.34476  1.0000
  H   H594      1.0  0.20343  0.73142  0.28457  1.0000
  H   H595      1.0  0.04394  0.72788  0.26399  1.0000
  H   H596      1.0  0.21384  0.68126  0.27719  1.0000
  C   C363      1.0  0.21924  0.69625  0.26913  1.0000
  C   C364      1.0  0.00293  0.75738  0.25828  1.0000
  H   H597      1.0  0.00644  0.77360  0.26128  1.0000
  H   H598      1.0  0.07858  0.85426  0.25401  1.0000
  S   S137      1.0  0.06528  0.67555  0.25420  1.0000
  Fe  Fe68      1.0  0.33277  0.83456  0.29350  1.0000
  H   H599      1.0  0.32411  0.68146  0.28081  1.0000
  C   C365      1.0  0.01581  0.82172  0.96857  1.0000
  S   S138      1.0  0.13698  0.67620  0.95706  1.0000
  C   C366      1.0  0.14127  0.71417  0.93550  1.0000
  C   C367      1.0  0.13859  0.70621  0.94996  1.0000
  H   H600      1.0  0.14230  0.70184  0.92838  1.0000
  H   H601      1.0  0.01568  0.70452  0.91289  1.0000
  S   S139      1.0  0.00665  0.83875  0.94153  1.0000
  H   H602      1.0  0.13562  0.71628  0.97028  1.0000
  H   H603      1.0  0.00952  0.71581  0.89532  1.0000
  C   C368      1.0  0.13758  0.72233  0.95908  1.0000
  H   H604      1.0  0.03561  0.93596  0.90006  1.0000
  H   H605      1.0  0.15624  0.66485  0.98275  1.0000
  N   N40       1.0  0.02065  0.91815  0.91999  1.0000
  C   C369      1.0  0.02577  0.92105  0.90452  1.0000
  H   H606      1.0  0.03368  0.77764  0.93428  1.0000
  C   C370      1.0  0.14320  0.73806  0.93020  1.0000
  Fe  Fe69      1.0  0.10325  0.83069  0.97183  1.0000
  S   S140      1.0  0.09943  0.83449  0.94922  1.0000
  C   C371      1.0  0.13897  0.74634  0.95379  1.0000
  Fe  Fe70      1.0  0.15374  0.83966  0.96461  1.0000
  S   S141      1.0  0.15367  0.84460  0.94132  1.0000
  S   S142      1.0  0.18780  0.84277  0.97136  1.0000
  Fe  Fe71      1.0  0.11690  0.86615  0.94619  1.0000
  S   S143      1.0  0.09788  0.90143  0.93588  1.0000
  Fe  Fe72      1.0  0.13613  0.81227  0.94661  1.0000
  S   S144      1.0  0.11838  0.86386  0.96905  1.0000
  S   S145      1.0  0.13882  0.80577  0.96958  1.0000
  H   H607      1.0  0.06708  0.79117  0.95948  1.0000
  S   S146      1.0  0.15660  0.97148  0.89276  1.0000
  C   C372      1.0  0.11419  0.92011  0.92328  1.0000
  C   C373      1.0  0.10360  0.94408  0.91971  1.0000
  C   C374      1.0  0.11645  0.95981  0.91020  1.0000
  C   C375      1.0  0.13994  0.95163  0.90415  1.0000
  C   C376      1.0  0.15039  0.92752  0.90747  1.0000
  C   C377      1.0  0.13755  0.91176  0.91706  1.0000
  H   H608      1.0  0.08552  0.95065  0.92445  1.0000
  H   H609      1.0  0.10811  0.97828  0.90754  1.0000
  H   H610      1.0  0.16850  0.92108  0.90271  1.0000
  H   H611      1.0  0.14569  0.89319  0.91961  1.0000
  C   C378      1.0  0.04726  0.83308  0.97749  1.0000
  C   C379      1.0  0.04832  0.85187  0.96628  1.0000
  C   C380      1.0  0.03456  0.85440  0.95566  1.0000
  H   H612      1.0  0.12680  0.93083  0.96149  1.0000
  H   H613      1.0  0.03114  0.78874  0.95029  1.0000
  H   H614      1.0  0.00896  0.92532  0.89984  1.0000
  H   H615      1.0  0.06117  0.86336  0.96519  1.0000
  H   H616      1.0  0.03726  0.86749  0.94638  1.0000
  H   H617      1.0  0.05860  0.80676  0.92212  1.0000
  C   C381      1.0  0.06728  0.80419  0.93161  1.0000
  C   C382      1.0  0.08160  0.76219  0.93125  1.0000
  C   C383      1.0  0.15854  0.94410  0.93919  1.0000
  H   H618      1.0  0.04178  0.75755  0.94975  1.0000
  H   H619      1.0  0.20161  0.92024  0.94551  1.0000
  C   C384      1.0  0.04346  0.91236  0.92569  1.0000
  H   H620      1.0  0.05433  0.92655  0.92160  1.0000
  C   C385      1.0  0.17007  0.98768  0.83409  1.0000
  H   H621      1.0  0.17157  0.94062  0.92959  1.0000
  C   C386      1.0  0.14181  0.75430  0.93932  1.0000
  H   H622      1.0  0.14403  0.90154  0.94578  1.0000
  H   H623      1.0  0.14825  0.91612  0.97287  1.0000
  H   H624      1.0  0.14550  0.74407  0.91898  1.0000
  H   H625      1.0  0.15415  0.97900  0.83786  1.0000
  H   H626      1.0  0.22674  0.86109  0.97559  1.0000
  C   C387      1.0  0.21089  0.86957  0.98184  1.0000
  C   C388      1.0  0.17879  0.98265  0.85767  1.0000
  H   H627      1.0  0.17518  0.89760  0.93836  1.0000
  C   C389      1.0  0.01044  0.69976  0.90361  1.0000
  C   C390      1.0  0.07769  0.77811  0.95269  1.0000
  H   H628      1.0  0.05468  0.89537  0.92281  1.0000
  H   H629      1.0  0.16633  0.88711  0.95659  1.0000
  H   H630      1.0  0.02920  0.80422  0.98777  1.0000
  H   H631      1.0  0.14035  0.94539  0.93662  1.0000
  H   H632      1.0  0.19150  0.91032  0.96366  1.0000
  H   H633      1.0  0.18566  0.97355  0.83129  1.0000
  N   N41       1.0  0.16335  0.92515  0.95128  1.0000
  C   C391      1.0  0.14519  0.93018  0.96361  1.0000
  H   H634      1.0  0.14565  0.94752  0.96662  1.0000
  H   H635      1.0  0.04632  0.97719  0.88978  1.0000
  H   H636      1.0  0.15963  0.96190  0.94131  1.0000
  C   C392      1.0  0.03673  0.99248  0.89454  1.0000
  C   C393      1.0  0.01891  0.83881  0.95652  1.0000
  S   S147      1.0  0.14207  0.78464  0.93229  1.0000
  H   H637      1.0  0.09621  0.78179  0.95013  1.0000
  H   H638      1.0  0.09982  0.76618  0.92720  1.0000
  H   H639      1.0  0.01606  0.95571  0.92036  1.0000
  C   C394      1.0  0.04240  0.77575  0.94370  1.0000
  C   C395      1.0  0.21267  0.88674  0.98956  1.0000
  C   C396      1.0  0.18744  0.92435  0.95453  1.0000
  C   C397      1.0  0.16218  0.90187  0.94783  1.0000
  H   H640      1.0  0.07863  0.75995  0.95902  1.0000
  H   H641      1.0  0.22988  0.89146  0.98919  1.0000
  H   H642      1.0  0.18905  0.94161  0.95719  1.0000
  H   H643      1.0  0.03682  0.90458  0.90087  1.0000
  C   C398      1.0  0.18873  0.86362  0.98192  1.0000
  N   N42       1.0  0.06722  0.78005  0.93982  1.0000
  C   C399      1.0  0.03014  0.81872  0.97905  1.0000
  H   H644      1.0  0.08588  0.80761  0.92813  1.0000
  C   C400      1.0  0.16827  0.87460  0.99010  1.0000
  S   S148      1.0  0.07054  0.82477  0.98752  1.0000
  H   H645      1.0  0.08384  0.74385  0.93742  1.0000
  H   H646      1.0  0.07329  0.76205  0.92196  1.0000
  H   H647      1.0  0.05750  0.81818  0.93793  1.0000
  H   H648      1.0  0.13795  0.75863  0.96091  1.0000
  H   H649      1.0  0.04046  0.91041  0.93733  1.0000
  H   H650      1.0  0.00365  0.80972  0.96941  1.0000
  H   H651      1.0  0.19460  0.96835  0.85559  1.0000
  H   H652      1.0  0.00217  0.93903  0.93596  1.0000
  H   H653      1.0  0.16309  0.97390  0.86215  1.0000
  H   H654      1.0  0.00286  0.89581  0.93705  1.0000
  H   H655      1.0  0.15115  0.86981  0.99035  1.0000
  C   C401      1.0  0.00707  0.89863  0.92539  1.0000
  H   H656      1.0  0.02527  0.68588  0.89968  1.0000
  H   H657      1.0  0.05747  0.88278  0.98750  1.0000
  C   C402      1.0  0.00636  0.94057  0.92434  1.0000
  H   H658      1.0  0.01736  0.88142  0.92232  1.0000
  H   H659      1.0  0.18209  0.99145  0.86604  1.0000
  C   C403      1.0  0.01165  0.99676  0.89731  1.0000
  H   H660      1.0  0.01879  0.90943  0.99513  1.0000
  Fe  Fe73      1.0  0.41774  0.06164  0.43905  1.0000
  S   S149      1.0  0.38918  0.09057  0.43064  1.0000
  Fe  Fe74      1.0  0.45761  0.08609  0.42328  1.0000
  S   S150      1.0  0.43324  0.11702  0.41288  1.0000
  S   S151      1.0  0.49717  0.08315  0.42126  1.0000
  Fe  Fe75      1.0  0.41070  0.11623  0.43410  1.0000
  S   S152      1.0  0.39282  0.15007  0.44283  1.0000
  Fe  Fe76      1.0  0.41375  0.08928  0.41013  1.0000
  S   S153      1.0  0.39685  0.09521  0.39074  1.0000
  S   S154      1.0  0.43661  0.08726  0.44481  1.0000
  S   S155      1.0  0.44073  0.05822  0.41824  1.0000
  Fe  Fe77      1.0  0.58233  0.12976  0.48815  1.0000
  C   C404      1.0  0.44275  0.19112  0.42619  1.0000
  Fe  Fe78      1.0  0.54816  0.13785  0.46702  1.0000
  S   S156      1.0  0.57753  0.13711  0.44858  1.0000
  S   S157      1.0  0.50967  0.14446  0.46446  1.0000
  Fe  Fe79      1.0  0.59688  0.10574  0.46210  1.0000
  C   C405      1.0  0.51090  0.19264  0.42995  1.0000
  Fe  Fe80      1.0  0.59194  0.16014  0.45972  1.0000
  C   C406      1.0  0.59352  0.25120  0.47719  1.0000
  S   S158      1.0  0.56597  0.10517  0.47969  1.0000
  S   S159      1.0  0.56104  0.16265  0.47722  1.0000
  H   H661      1.0  0.38410  0.19127  0.41441  1.0000
  H   H662      1.0  0.42541  0.00104  0.42988  1.0000
  H   H663      1.0  0.40819  0.16937  0.40782  1.0000
  H   H664      1.0  0.53772  0.08304  0.43455  1.0000
  C   C407      1.0  0.49723  0.21266  0.45010  1.0000
  H   H665      1.0  0.53706  0.01412  0.40904  1.0000
  H   H666      1.0  0.57694  0.01323  0.39441  1.0000
  H   H667      1.0  0.38196  0.13954  0.41583  1.0000
  C   C408      1.0  0.61364  0.05492  0.44422  1.0000
  C   C409      1.0  0.61486  0.03021  0.44558  1.0000
  C   C410      1.0  0.61730  0.01928  0.43369  1.0000
  C   C411      1.0  0.61931  0.03289  0.42029  1.0000
  C   C412      1.0  0.61790  0.05764  0.41890  1.0000
  C   C413      1.0  0.61472  0.06870  0.43084  1.0000
  N   N43       1.0  0.46381  0.08607  0.48323  1.0000
  H   H668      1.0  0.58549  0.04009  0.38457  1.0000
  C   C414      1.0  0.39214  0.18262  0.40501  1.0000
  H   H669      1.0  0.39302  0.17190  0.37941  1.0000
  C   C415      1.0  0.54258  0.30385  0.46672  1.0000
  C   C416      1.0  0.59596  0.21013  0.47414  1.0000
  C   C417      1.0  0.53952  0.19935  0.44299  1.0000
  H   H670      1.0  0.59658  0.19156  0.47868  1.0000
  H   H671      1.0  0.50037  0.24034  0.42469  1.0000
  C   C418      1.0  0.39535  0.07017  0.38361  1.0000
  C   C419      1.0  0.38105  0.07359  0.37317  1.0000
  C   C420      1.0  0.37934  0.05439  0.36704  1.0000
  C   C421      1.0  0.39202  0.03153  0.37122  1.0000
  C   C422      1.0  0.40651  0.02788  0.38166  1.0000
  C   C423      1.0  0.40813  0.04726  0.38790  1.0000
  H   H672      1.0  0.37126  0.09121  0.36975  1.0000
  H   H673      1.0  0.59252  0.22151  0.49411  1.0000
  C   C424      1.0  0.51760  0.23251  0.42875  1.0000
  H   H674      1.0  0.41969  0.04468  0.39570  1.0000
  C   C425      1.0  0.40881  0.17376  0.43886  1.0000
  C   C426      1.0  0.43078  0.17180  0.43001  1.0000
  C   C427      1.0  0.39902  0.19524  0.44405  1.0000
  H   H675      1.0  0.38196  0.19693  0.45090  1.0000
  C   C428      1.0  0.50165  0.10129  0.43239  1.0000
  C   C429      1.0  0.48296  0.11932  0.43663  1.0000
  C   C430      1.0  0.48563  0.13297  0.44625  1.0000
  C   C431      1.0  0.50703  0.12847  0.45173  1.0000
  C   C432      1.0  0.52592  0.11068  0.44735  1.0000
  C   C433      1.0  0.52327  0.09713  0.43763  1.0000
  H   H676      1.0  0.46640  0.12271  0.43248  1.0000
  H   H677      1.0  0.47104  0.14688  0.44951  1.0000
  H   H678      1.0  0.54235  0.10679  0.45175  1.0000
  C   C434      1.0  0.59527  0.25826  0.46264  1.0000
  H   H679      1.0  0.65715  0.29266  0.43041  1.0000
  S   S160      1.0  0.61285  0.06733  0.45941  1.0000
  H   H680      1.0  0.50950  0.17505  0.43660  1.0000
  C   C435      1.0  0.47690  0.02235  0.46461  1.0000
  C   C436      1.0  0.56081  0.04856  0.40961  1.0000
  H   H681      1.0  0.50176  0.32067  0.45674  1.0000
  S   S161      1.0  0.60083  0.19578  0.44852  1.0000
  C   C437      1.0  0.45786  0.02682  0.45698  1.0000
  H   H682      1.0  0.52796  0.07929  0.39586  1.0000
  H   H683      1.0  0.50974  0.26022  0.47847  1.0000
  H   H684      1.0  0.63038  0.29141  0.44295  1.0000
  H   H685      1.0  0.48004  0.07792  0.46271  1.0000
  H   H686      1.0  0.52502  0.18943  0.42078  1.0000
  H   H687      1.0  0.41680  0.00283  0.48206  1.0000
  H   H688      1.0  0.52144  0.24568  0.43443  1.0000
  C   C438      1.0  0.45283  0.11066  0.47761  1.0000
  H   H689      1.0  0.46002  0.03579  0.44623  1.0000
  S   S162      1.0  0.38903  0.00841  0.36289  1.0000
  H   H690      1.0  0.55452  0.29820  0.47481  1.0000
  H   H691      1.0  0.37441  0.14967  0.38523  1.0000
  H   H692      1.0  0.59502  0.27676  0.45815  1.0000
  C   C439      1.0  0.43605  0.02015  0.46331  1.0000
  H   H693      1.0  0.57571  0.05867  0.40614  1.0000
  S   S163      1.0  0.49719  0.00919  0.48834  1.0000
  C   C440      1.0  0.59786  0.21705  0.45961  1.0000
  H   H694      1.0  0.49574  0.19545  0.45720  1.0000
  H   H695      1.0  0.34494  0.19870  0.40573  1.0000
  H   H696      1.0  0.49355  0.19969  0.42597  1.0000
  C   C441      1.0  0.36668  0.15330  0.41250  1.0000
  H   H697      1.0  0.44721  0.11156  0.46726  1.0000
  H   H698      1.0  0.36825  0.05735  0.35893  1.0000
  H   H699      1.0  0.49354  0.02808  0.45971  1.0000
  S   S164      1.0  0.59554  0.32898  0.45905  1.0000
  S   S165      1.0  0.44919  0.23611  0.42592  1.0000
  H   H700      1.0  0.48835  0.29488  0.46334  1.0000
  H   H701      1.0  0.64984  0.30513  0.46679  1.0000
  H   H702      1.0  0.43839  0.15554  0.42585  1.0000
  H   H703      1.0  0.49337  0.05883  0.47695  1.0000
  S   S166      1.0  0.61462  0.12871  0.47142  1.0000
  H   H704      1.0  0.51628  0.04177  0.40948  1.0000
  H   H705      1.0  0.55259  0.29759  0.45689  1.0000
  S   S167      1.0  0.41148  0.02866  0.45422  1.0000
  C   C442      1.0  0.43309  0.21258  0.43134  1.0000
  H   H706      1.0  0.61404  0.08770  0.42967  1.0000
  N   N44       1.0  0.55100  0.04485  0.39755  1.0000
  H   H707      1.0  0.59895  0.24663  0.44262  1.0000
  C   C443      1.0  0.50572  0.30099  0.45999  1.0000
  C   C444      1.0  0.54220  0.06819  0.38934  1.0000
  S   S168      1.0  0.46982  0.27929  0.44226  1.0000
  H   H708      1.0  0.55443  0.19634  0.43416  1.0000
  H   H709      1.0  0.61414  0.01943  0.45588  1.0000
  H   H710      1.0  0.56317  0.02747  0.37939  1.0000
  C   C445      1.0  0.53953  0.33087  0.42753  1.0000
  H   H711      1.0  0.45952  0.18942  0.41909  1.0000
  H   H712      1.0  0.35772  0.16165  0.42189  1.0000
  H   H713      1.0  0.54685  0.05867  0.41677  1.0000
  C   C446      1.0  0.41119  0.21463  0.44035  1.0000
  C   C447      1.0  0.52624  0.26802  0.47501  1.0000
  H   H714      1.0  0.66135  0.27513  0.47430  1.0000
  C   C448      1.0  0.56999  0.03089  0.38852  1.0000
  N   N45       1.0  0.51633  0.20931  0.43795  1.0000
  H   H715      1.0  0.56805  0.03130  0.41590  1.0000
  N   N46       1.0  0.37492  0.17109  0.40070  1.0000
  H   H716      1.0  0.35401  0.14382  0.40962  1.0000
  C   C449      1.0  0.53104  0.03174  0.40271  1.0000
  C   C450      1.0  0.35415  0.18933  0.39677  1.0000
  H   H717      1.0  0.40357  0.23114  0.44435  1.0000
  H   H718      1.0  0.53443  0.06600  0.38026  1.0000
  C   C451      1.0  0.59751  0.24119  0.45387  1.0000
  H   H719      1.0  0.39850  0.19651  0.39650  1.0000
  H   H720      1.0  0.50062  0.22517  0.45638  1.0000
  H   H721      1.0  0.43670  0.11769  0.48480  1.0000
  H   H722      1.0  0.53874  0.32367  0.46471  1.0000
  H   H723      1.0  0.49883  0.08862  0.47170  1.0000
  H   H724      1.0  0.41681  0.01036  0.38467  1.0000
  C   C452      1.0  0.43366  0.00804  0.47713  1.0000
  N   N47       1.0  0.52032  0.29429  0.47142  1.0000
  H   H725      1.0  0.54435  0.21139  0.44906  1.0000
  C   C453      1.0  0.66504  0.25553  0.45130  1.0000
  S   S169      1.0  0.50731  0.31774  0.41501  1.0000
  H   H726      1.0  0.53722  0.26247  0.48368  1.0000
  H   H727      1.0  0.53188  0.23062  0.41950  1.0000
  C   C454      1.0  0.45267  0.00383  0.48485  1.0000
  S   S170      1.0  0.62417  0.01936  0.40510  1.0000
  H   H728      1.0  0.47943  0.21991  0.44670  1.0000
  H   H729      1.0  0.40253  0.14525  0.39119  1.0000
  S   S171      1.0  0.41138  0.29404  0.44623  1.0000
  C   C455      1.0  0.48490  0.07749  0.47320  1.0000
  C   C456      1.0  0.47412  0.01146  0.47865  1.0000
  C   C457      1.0  0.59380  0.22714  0.48287  1.0000
  S   S172      1.0  0.44107  0.30576  0.47717  1.0000
  H   H730      1.0  0.51754  0.30003  0.49268  1.0000
  H   H731      1.0  0.64712  0.25029  0.45359  1.0000
  H   H732      1.0  0.37148  0.01443  0.43646  1.0000
  H   H733      1.0  0.53682  0.25981  0.46589  1.0000
  H   H734      1.0  0.64655  0.31513  0.44146  1.0000
  H   H735      1.0  0.46563  0.12308  0.47605  1.0000
  H   H736      1.0  0.53899  0.18189  0.44996  1.0000
  H   H737      1.0  0.52338  0.02833  0.39390  1.0000
  Fe  Fe81      1.0  0.44138  0.30345  0.45438  1.0000
  H   H738      1.0  0.35972  0.20309  0.38790  1.0000
  S   S173      1.0  0.59110  0.27168  0.48869  1.0000
  H   H739      1.0  0.61952  0.06830  0.40857  1.0000
  H   H740      1.0  0.55238  0.31627  0.42358  1.0000
  H   H741      1.0  0.40631  0.02226  0.41918  1.0000
  Fe  Fe82      1.0  0.44047  0.27272  0.43236  1.0000
  H   H742      1.0  0.55684  0.07850  0.38527  1.0000
  C   C458      1.0  0.38670  0.15906  0.38858  1.0000
  Fe  Fe83      1.0  0.47090  0.31095  0.42533  1.0000
  H   H743      1.0  0.51503  0.29320  0.45048  1.0000
  S   S174      1.0  0.44335  0.30338  0.41455  1.0000
  Fe  Fe84      1.0  0.58994  0.31115  0.48145  1.0000
  H   H744      1.0  0.63285  0.28206  0.46842  1.0000
  H   H745      1.0  0.44108  0.06879  0.47524  1.0000
  C   C459      1.0  0.64863  0.29570  0.44120  1.0000
  C   C460      1.0  0.65125  0.28607  0.46595  1.0000
  N   N48       1.0  0.66301  0.28112  0.45185  1.0000
  H   H746      1.0  0.34078  0.18119  0.39351  1.0000
  C   C461      1.0  0.41448  0.00300  0.42139  1.0000
  C   C462      1.0  0.44616  0.07027  0.48536  1.0000
  H   H747      1.0  0.61837  0.00022  0.43490  1.0000
  Fe  Fe85      1.0  0.41675  0.32523  0.42908  1.0000
  H   H748      1.0  0.37304  0.01018  0.41132  1.0000
  H   H749      1.0  0.34434  0.01520  0.34982  1.0000
  H   H750      1.0  0.50195  0.32429  0.48152  1.0000
  H   H751      1.0  0.42948  0.07689  0.49229  1.0000
  S   S175      1.0  0.61555  0.32877  0.48840  1.0000
  H   H752      1.0  0.45345  0.05192  0.49035  1.0000
  C   C463      1.0  0.50685  0.30446  0.48390  1.0000
  H   H753      1.0  0.34149  0.01534  0.32487  1.0000
  H   H754      1.0  0.48457  0.09781  0.49558  1.0000
  H   H755      1.0  0.48987  0.29758  0.48777  1.0000
  C   C464      1.0  0.47143  0.08584  0.49679  1.0000
  H   H756      1.0  0.42685  0.99830  0.41179  1.0000
  C   C465      1.0  0.33560  0.99782  0.32815  1.0000
  C   C466      1.0  0.33807  0.99784  0.35239  1.0000
  H   H757      1.0  0.42522  0.30728  0.57467  1.0000
  C   C467      1.0  0.54585  0.14537  0.71341  1.0000
  H   H758      1.0  0.42434  0.26331  0.58158  1.0000
  C   C468      1.0  0.59494  0.05664  0.50781  1.0000
  H   H759      1.0  0.47838  0.02423  0.59770  1.0000
  S   S176      1.0  0.36076  0.17746  0.60991  1.0000
  S   S177      1.0  0.39548  0.10927  0.61467  1.0000
  H   H760      1.0  0.61560  0.29368  0.74151  1.0000
  H   H761      1.0  0.44226  0.08543  0.59430  1.0000
  S   S178      1.0  0.40863  0.24430  0.63546  1.0000
  H   H762      1.0  0.51104  0.13893  0.71232  1.0000
  Fe  Fe86      1.0  0.39062  0.09769  0.63799  1.0000
  S   S179      1.0  0.42028  0.08072  0.65047  1.0000
  Fe  Fe87      1.0  0.36713  0.08806  0.61522  1.0000
  C   C469      1.0  0.44594  0.22191  0.68246  1.0000
  C   C470      1.0  0.63044  0.10995  0.50843  1.0000
  H   H763      1.0  0.51552  0.18471  0.72994  1.0000
  H   H764      1.0  0.59512  0.05219  0.49726  1.0000
  H   H765      1.0  0.40004  0.30910  0.60493  1.0000
  S   S180      1.0  0.45404  0.15859  0.67441  1.0000
  S   S181      1.0  0.58952  0.15482  0.71430  1.0000
  H   H766      1.0  0.39544  0.27122  0.71639  1.0000
  H   H767      1.0  0.55028  0.15019  0.70216  1.0000
  S   S182      1.0  0.46292  0.17193  0.70990  1.0000
  C   C471      1.0  0.39214  0.05427  0.58819  1.0000
  S   S183      1.0  0.36980  0.05819  0.60295  1.0000
  Fe  Fe88      1.0  0.46210  0.13967  0.72653  1.0000
  C   C472      1.0  0.37365  0.19550  0.61764  1.0000
  C   C473      1.0  0.39417  0.18622  0.62396  1.0000
  C   C474      1.0  0.40486  0.20138  0.62932  1.0000
  C   C475      1.0  0.39464  0.22563  0.62885  1.0000
  H   H768      1.0  0.56932  0.13913  0.74341  1.0000
  H   H769      1.0  0.59007  0.04774  0.53591  1.0000
  H   H770      1.0  0.40217  0.16755  0.62434  1.0000
  H   H771      1.0  0.42112  0.19435  0.63379  1.0000
  C   C476      1.0  0.47857  0.03414  0.60629  1.0000
  H   H772      1.0  0.34774  0.22705  0.61216  1.0000
  C   C477      1.0  0.43129  0.10197  0.65649  1.0000
  C   C478      1.0  0.42942  0.12534  0.64926  1.0000
  C   C479      1.0  0.43712  0.14252  0.65463  1.0000
  C   C480      1.0  0.44601  0.13654  0.66739  1.0000
  C   C481      1.0  0.44788  0.11315  0.67460  1.0000
  C   C482      1.0  0.44096  0.09576  0.66900  1.0000
  H   H773      1.0  0.42201  0.13019  0.63956  1.0000
  H   H774      1.0  0.43578  0.16057  0.64904  1.0000
  H   H775      1.0  0.45659  0.20846  0.67592  1.0000
  H   H776      1.0  0.44258  0.07763  0.67454  1.0000
  C   C483      1.0  0.57384  0.05790  0.53142  1.0000
  C   C484      1.0  0.42123  0.06931  0.56924  1.0000
  C   C485      1.0  0.40369  0.07286  0.58104  1.0000
  H   H777      1.0  0.48007  0.06754  0.50121  1.0000
  H   H778      1.0  0.42976  0.08393  0.56358  1.0000
  H   H779      1.0  0.39873  0.09014  0.58439  1.0000
  C   C486      1.0  0.54604  0.00602  0.55629  1.0000
  H   H780      1.0  0.65865  0.28798  0.70869  1.0000
  H   H781      1.0  0.59618  0.07582  0.50616  1.0000
  C   C487      1.0  0.57187  0.02635  0.51922  1.0000
  H   H782      1.0  0.53497  0.06339  0.51911  1.0000
  Fe  Fe89      1.0  0.62676  0.02827  0.57121  1.0000
  Fe  Fe90      1.0  0.65618  0.15433  0.74246  1.0000
  S   S184      1.0  0.36225  0.12901  0.64306  1.0000
  H   H783      1.0  0.41922  0.05840  0.61105  1.0000
  Fe  Fe91      1.0  0.46702  0.00993  0.54063  1.0000
  H   H784      1.0  0.43761  0.21198  0.69234  1.0000
  S   S185      1.0  0.40290  0.31164  0.63909  1.0000
  Fe  Fe92      1.0  0.42509  0.18380  0.71950  1.0000
  H   H785      1.0  0.38542  0.30138  0.70889  1.0000
  S   S186      1.0  0.36440  0.07459  0.63831  1.0000
  C   C488      1.0  0.41136  0.22477  0.67151  1.0000
  S   S187      1.0  0.58130  0.12386  0.51156  1.0000
  H   H786      1.0  0.40046  0.26951  0.67868  1.0000
  C   C489      1.0  0.35318  0.28958  0.73080  1.0000
  H   H787      1.0  0.63351  0.24185  0.73619  1.0000
  H   H788      1.0  0.59713  0.30166  0.72795  1.0000
  C   C490      1.0  0.43539  0.04403  0.61030  1.0000
  H   H789      1.0  0.35422  0.27088  0.72928  1.0000
  C   C491      1.0  0.45817  0.07068  0.59402  1.0000
  Fe  Fe93      1.0  0.37709  0.31683  0.65899  1.0000
  H   H790      1.0  0.45511  0.10836  0.68434  1.0000
  H   H791      1.0  0.38964  0.01756  0.58905  1.0000
  H   H792      1.0  0.45856  0.23150  0.68528  1.0000
  Fe  Fe94      1.0  0.44640  0.15254  0.69783  1.0000
  C   C492      1.0  0.63005  0.09085  0.53684  1.0000
  C   C493      1.0  0.42777  0.04704  0.56466  1.0000
  C   C494      1.0  0.38717  0.27761  0.74315  1.0000
  H   H793      1.0  0.53626  0.25214  0.72613  1.0000
  H   H794      1.0  0.55070  0.06266  0.50151  1.0000
  C   C495      1.0  0.60875  0.11171  0.51763  1.0000
  S   S188      1.0  0.33614  0.11861  0.61815  1.0000
  C   C496      1.0  0.55175  0.06659  0.51199  1.0000
  S   S189      1.0  0.45017  0.04371  0.54986  1.0000
  S   S190      1.0  0.50078  0.01671  0.52607  1.0000
  C   C497      1.0  0.64423  0.29459  0.71694  1.0000
  H   H795      1.0  0.57393  0.07721  0.53061  1.0000
  H   H796      1.0  0.65115  0.26102  0.73972  1.0000
  H   H797      1.0  0.42544  0.26528  0.68778  1.0000
  H   H798      1.0  0.45766  0.05442  0.62924  1.0000
  S   S191      1.0  0.64835  0.05494  0.57319  1.0000
  N   N49       1.0  0.45766  0.05384  0.60739  1.0000
  C   C498      1.0  0.66364  0.10644  0.65116  1.0000
  C   C499      1.0  0.37385  0.23472  0.62280  1.0000
  H   H799      1.0  0.49906  0.20567  0.74105  1.0000
  H   H800      1.0  0.34264  0.09736  0.69174  1.0000
  C   C500      1.0  0.35118  0.11003  0.68332  1.0000
  H   H801      1.0  0.40137  0.27753  0.60954  1.0000
  H   H802      1.0  0.57189  0.02099  0.50896  1.0000
  C   C501      1.0  0.35397  0.13425  0.70012  1.0000
  H   H803      1.0  0.65979  0.24745  0.72408  1.0000
  Fe  Fe95      1.0  0.41240  0.13523  0.72329  1.0000
  H   H804      1.0  0.58718  0.01474  0.52402  1.0000
  C   C502      1.0  0.55312  0.02032  0.56415  1.0000
  H   H805      1.0  0.59826  0.27314  0.73899  1.0000
  Fe  Fe96      1.0  0.47462  0.32270  0.72403  1.0000
  H   H806      1.0  0.43419  0.03430  0.60184  1.0000
  H   H807      1.0  0.41106  0.29384  0.71789  1.0000
  H   H808      1.0  0.53216  0.22189  0.70519  1.0000
  H   H809      1.0  0.39683  0.09194  0.68592  1.0000
  H   H810      1.0  0.40340  0.24662  0.69371  1.0000
  H   H811      1.0  0.44421  0.25595  0.71604  1.0000
  C   C503      1.0  0.36364  0.21981  0.61699  1.0000
  H   H812      1.0  0.39988  0.11053  0.69784  1.0000
  C   C504      1.0  0.39300  0.28996  0.71806  1.0000
  C   C505      1.0  0.39853  0.03203  0.58358  1.0000
  H   H813      1.0  0.34609  0.12199  0.70911  1.0000
  H   H814      1.0  0.59207  0.10427  0.53914  1.0000
  H   H815      1.0  0.42562  0.26440  0.65627  1.0000
  C   C506      1.0  0.41646  0.02833  0.57193  1.0000
  C   C507      1.0  0.43132  0.22817  0.73162  1.0000
  N   N50       1.0  0.36748  0.12127  0.68870  1.0000
  C   C508      1.0  0.56236  0.14560  0.72211  1.0000
  H   H816      1.0  0.63498  0.25935  0.70528  1.0000
  S   S192      1.0  0.41308  0.22217  0.72106  1.0000
  Fe  Fe97      1.0  0.61345  0.16572  0.72654  1.0000
  H   H817      1.0  0.45166  0.26185  0.66427  1.0000
  H   H818      1.0  0.45816  0.06156  0.58506  1.0000
  Fe  Fe98      1.0  0.36446  0.13880  0.61971  1.0000
  S   S193      1.0  0.61222  0.20506  0.72370  1.0000
  S   S194      1.0  0.40847  0.16689  0.70631  1.0000
  H   H819      1.0  0.36415  0.15278  0.67298  1.0000
  H   H820      1.0  0.36302  0.28386  0.59950  1.0000
  C   C509      1.0  0.60871  0.10261  0.53190  1.0000
  S   S195      1.0  0.58656  0.03473  0.57538  1.0000
  C   C510      1.0  0.52127  0.24215  0.72829  1.0000
  S   S196      1.0  0.44903  0.11874  0.71351  1.0000
  C   C511      1.0  0.62022  0.26862  0.71248  1.0000
  N   N51       1.0  0.57313  0.05185  0.51761  1.0000
  C   C512      1.0  0.52356  0.13912  0.71916  1.0000
  C   C513      1.0  0.51776  0.13261  0.73365  1.0000
  C   C514      1.0  0.55659  0.13918  0.73664  1.0000
  C   C515      1.0  0.41358  0.25572  0.68420  1.0000
  N   N52       1.0  0.42748  0.23852  0.67504  1.0000
  H   H821      1.0  0.44929  0.23914  0.65474  1.0000
  N   N53       1.0  0.62949  0.27641  0.72349  1.0000
  H   H822      1.0  0.36289  0.32289  0.74309  1.0000
  H   H823      1.0  0.54050  0.03527  0.56786  1.0000
  H   H824      1.0  0.49571  0.04091  0.60398  1.0000
  C   C516      1.0  0.65170  0.08897  0.52762  1.0000
  H   H825      1.0  0.55519  0.02235  0.52617  1.0000
  C   C517      1.0  0.40661  0.29185  0.60095  1.0000
  H   H826      1.0  0.34075  0.29250  0.74070  1.0000
  H   H827      1.0  0.43165  0.30626  0.66808  1.0000
  H   H828      1.0  0.36092  0.09985  0.67478  1.0000
  C   C518      1.0  0.43177  0.31394  0.67722  1.0000
  H   H829      1.0  0.36566  0.25323  0.62245  1.0000
  H   H830      1.0  0.64579  0.12169  0.61908  1.0000
  H   H831      1.0  0.43420  0.03145  0.62039  1.0000
  C   C519      1.0  0.64397  0.11996  0.63070  1.0000
  H   H832      1.0  0.37519  0.15716  0.74268  1.0000
  C   C520      1.0  0.35988  0.12649  0.74290  1.0000
  C   C521      1.0  0.37507  0.31903  0.73329  1.0000
  C   C522      1.0  0.44445  0.24635  0.72663  1.0000
  H   H833      1.0  0.47524  0.07381  0.61721  1.0000
  C   C523      1.0  0.43910  0.25156  0.66203  1.0000
  C   C524      1.0  0.40447  0.26807  0.58388  1.0000
  S   S197      1.0  0.42557  0.15372  0.73742  1.0000
  H   H834      1.0  0.51120  0.24491  0.73883  1.0000
  H   H835      1.0  0.39885  0.31015  0.56683  1.0000
  S   S198      1.0  0.48968  0.12499  0.74090  1.0000
  Fe  Fe99      1.0  0.65208  0.19675  0.71895  1.0000
  S   S199      1.0  0.44328  0.30946  0.73779  1.0000
  H   H836      1.0  0.34517  0.30165  0.72194  1.0000
  C   C525      1.0  0.53436  0.13251  0.74239  1.0000
  H   H837      1.0  0.46993  0.30263  0.67716  1.0000
  H   H838      1.0  0.40265  0.21432  0.68105  1.0000
  S   S200      1.0  0.64484  0.02247  0.54956  1.0000
  C   C526      1.0  0.37023  0.29748  0.59112  1.0000
  H   H839      1.0  0.42130  0.21191  0.66440  1.0000
  S   S201      1.0  0.36340  0.28306  0.66051  1.0000
  H   H840      1.0  0.46824  0.26617  0.73138  1.0000
  H   H841      1.0  0.61148  0.04634  0.51187  1.0000
  C   C527      1.0  0.45352  0.32137  0.69445  1.0000
  H   H842      1.0  0.36579  0.14299  0.70434  1.0000
  Fe  Fe100     1.0  0.38623  0.27983  0.63967  1.0000
  H   H843      1.0  0.64450  0.19070  0.69368  1.0000
  H   H844      1.0  0.61012  0.28404  0.70602  1.0000
  C   C528      1.0  0.57679  0.01574  0.56679  1.0000
  C   C529      1.0  0.45788  0.25228  0.73537  1.0000
  H   H845      1.0  0.47883  0.02111  0.61621  1.0000
  H   H846      1.0  0.55394  0.18717  0.73758  1.0000
  C   C530      1.0  0.45855  0.06644  0.61892  1.0000
  S   S202      1.0  0.48030  0.31740  0.70140  1.0000
  N   N54       1.0  0.39667  0.29188  0.58817  1.0000
  N   N55       1.0  0.37713  0.29406  0.73134  1.0000
  H   H847      1.0  0.52792  0.00990  0.55398  1.0000
  S   S203      1.0  0.35728  0.29992  0.62747  1.0000
  C   C531      1.0  0.38678  0.10262  0.69414  1.0000
  H   H848      1.0  0.55212  0.08598  0.51076  1.0000
  H   H849      1.0  0.44321  0.08161  0.61994  1.0000
  H   H850      1.0  0.50905  0.25058  0.72046  1.0000
  H   H851      1.0  0.62969  0.08341  0.54781  1.0000
  H   H852      1.0  0.42128  0.01114  0.56845  1.0000
  S   S204      1.0  0.65311  0.15789  0.71978  1.0000
  C   C532      1.0  0.66196  0.18730  0.68737  1.0000
  H   H853      1.0  0.43250  0.32590  0.50270  1.0000
  H   H854      1.0  0.39118  0.14634  0.68067  1.0000
  C   C533      1.0  0.50950  0.20408  0.73043  1.0000
  H   H855      1.0  0.65367  0.15915  0.67898  1.0000
  H   H856      1.0  0.36378  0.31516  0.59470  1.0000
  H   H857      1.0  0.37953  0.09010  0.70321  1.0000
  H   H858      1.0  0.47444  0.07888  0.59163  1.0000
  H   H859      1.0  0.39699  0.23666  0.66603  1.0000
  H   H860      1.0  0.33658  0.12356  0.67888  1.0000
  C   C534      1.0  0.60920  0.28666  0.73342  1.0000
  H   H861      1.0  0.55793  0.05399  0.53915  1.0000
  H   H862      1.0  0.60783  0.25604  0.71713  1.0000
  S   S205      1.0  0.38339  0.11356  0.73090  1.0000
  H   H863      1.0  0.63320  0.31128  0.71210  1.0000
  H   H864      1.0  0.63072  0.11716  0.49746  1.0000
  H   H865      1.0  0.38780  0.12894  0.66828  1.0000
  C   C535      1.0  0.37808  0.13812  0.67719  1.0000
  H   H866      1.0  0.39718  0.26730  0.57432  1.0000
  H   H867      1.0  0.36210  0.29813  0.58164  1.0000
  H   H868      1.0  0.62962  0.10950  0.63540  1.0000
  S   S206      1.0  0.50170  0.30073  0.73732  1.0000
  C   C536      1.0  0.40531  0.31014  0.57679  1.0000
  H   H869      1.0  0.45593  0.09189  0.50469  1.0000
  H   H870      1.0  0.55958  0.22219  0.71121  1.0000
  C   C537      1.0  0.65196  0.09885  0.51345  1.0000
  H   H871      1.0  0.65278  0.29970  0.72484  1.0000
  H   H872      1.0  0.66130  0.07268  0.63669  1.0000
  H   H873      1.0  0.42651  0.28887  0.59899  1.0000
  C   C538      1.0  0.64422  0.25579  0.73116  1.0000
  H   H874      1.0  0.44439  0.10209  0.74280  1.0000
  N   N56       1.0  0.53005  0.21653  0.72762  1.0000
  S   S207      1.0  0.38230  0.32576  0.67950  1.0000
  H   H875      1.0  0.49695  0.21152  0.72269  1.0000
  H   H876      1.0  0.65750  0.12428  0.65451  1.0000
  C   C539      1.0  0.54347  0.21376  0.71350  1.0000
  C   C540      1.0  0.54593  0.20618  0.73829  1.0000
  C   C541      1.0  0.41033  0.32566  0.68408  1.0000
  H   H877      1.0  0.39827  0.25390  0.59232  1.0000
  H   H878      1.0  0.65018  0.09525  0.65645  1.0000
  H   H879      1.0  0.39273  0.32301  0.73399  1.0000
  H   H880      1.0  0.54982  0.19464  0.71246  1.0000
  C   C542      1.0  0.45337  0.31184  0.68239  1.0000
  H   H881      1.0  0.56097  0.21588  0.73700  1.0000
  Fe  Fe101     1.0  0.61774  0.19775  0.74614  1.0000
  H   H882      1.0  0.43702  0.07307  0.74539  1.0000
  H   H883      1.0  0.38926  0.25865  0.74186  1.0000
  H   H884      1.0  0.63775  0.13820  0.63347  1.0000
  N   N57       1.0  0.66686  0.10842  0.63573  1.0000
  H   H885      1.0  0.33911  0.14833  0.69646  1.0000
  S   S208      1.0  0.65783  0.19278  0.74113  1.0000
  H   H886      1.0  0.33972  0.09850  0.74529  1.0000
  C   C543      1.0  0.43238  0.21523  0.74514  1.0000
  Fe  Fe102     1.0  0.33605  0.10689  0.64129  1.0000
  C   C544      1.0  0.66713  0.16947  0.67900  1.0000
  H   H887      1.0  0.40514  0.28061  0.74402  1.0000
  Fe  Fe103     1.0  0.33537  0.30563  0.64828  1.0000
  H   H888      1.0  0.39884  0.32838  0.57953  1.0000
  Fe  Fe104     1.0  0.48891  0.99793  0.51160  1.0000
  H   H889      1.0  0.39868  0.08669  0.75980  1.0000
  H   H890      1.0  0.51672  0.28693  0.79909  1.0000
  S   S209      1.0  0.59624  0.22559  0.75871  1.0000
  S   S210      1.0  0.61616  0.15871  0.74955  1.0000
  H   H891      1.0  0.43641  0.10702  0.78036  1.0000
  H   H892      1.0  0.45495  0.05636  0.77396  1.0000
  H   H893      1.0  0.52998  0.12742  0.75362  1.0000
  H   H894      1.0  0.55763  0.29032  0.76517  1.0000
  C   C545      1.0  0.63546  0.21701  0.77195  1.0000
  H   H895      1.0  0.40792  0.31097  0.76720  1.0000
  N   N58       1.0  0.43340  0.08797  0.76426  1.0000
  C   C546      1.0  0.43579  0.06460  0.77355  1.0000
  H   H896      1.0  0.46481  0.07689  0.74968  1.0000
  C   C547      1.0  0.61646  0.23401  0.76712  1.0000
  C   C548      1.0  0.34244  0.15734  0.75728  1.0000
  C   C549      1.0  0.65173  0.24822  0.77786  1.0000
  H   H897      1.0  0.44547  0.21231  0.76468  1.0000
  H   H898      1.0  0.53556  0.30472  0.78670  1.0000
  H   H899      1.0  0.42747  0.05190  0.76981  1.0000
  H   H900      1.0  0.63677  0.19837  0.77141  1.0000
  H   H901      1.0  0.42234  0.20101  0.74896  1.0000
  C   C550      1.0  0.34739  0.31499  0.77576  1.0000
  H   H902      1.0  0.34329  0.17373  0.76062  1.0000
  H   H903      1.0  0.40524  0.11594  0.75715  1.0000
  H   H904      1.0  0.42691  0.06636  0.78447  1.0000
  H   H905      1.0  0.37540  0.27989  0.75330  1.0000
  H   H906      1.0  0.56918  0.26951  0.78802  1.0000
  C   C551      1.0  0.61472  0.25803  0.76803  1.0000
  H   H907      1.0  0.46429  0.09727  0.76952  1.0000
  C   C552      1.0  0.40774  0.09825  0.76400  1.0000
  C   C553      1.0  0.34046  0.11502  0.74853  1.0000
  H   H908      1.0  0.52994  0.28802  0.76055  1.0000
  C   C554      1.0  0.44541  0.08473  0.74992  1.0000
  H   H909      1.0  0.37750  0.28618  0.77838  1.0000
  Fe  Fe105     1.0  0.46998  0.28971  0.75171  1.0000
  C   C555      1.0  0.37184  0.30492  0.77451  1.0000
  C   C556      1.0  0.45764  0.24058  0.74922  1.0000
  C   C557      1.0  0.55593  0.25788  0.78867  1.0000
  H   H910      1.0  0.50302  0.26374  0.77689  1.0000
  H   H911      1.0  0.63157  0.28387  0.77344  1.0000
  H   H912      1.0  0.56565  0.24180  0.78402  1.0000
  S   S211      1.0  0.65311  0.32736  0.77253  1.0000
  N   N59       1.0  0.53566  0.27059  0.78129  1.0000
  H   H913      1.0  0.39796  0.10080  0.77464  1.0000
  H   H914      1.0  0.50776  0.30162  0.78256  1.0000
  C   C558      1.0  0.44549  0.22155  0.75401  1.0000
  C   C559      1.0  0.65291  0.22407  0.77751  1.0000
  S   S212      1.0  0.47117  0.25109  0.76062  1.0000
  H   H915      1.0  0.51130  0.24845  0.79344  1.0000
  H   H916      1.0  0.55401  0.26262  0.76113  1.0000
  H   H917      1.0  0.54980  0.25186  0.79997  1.0000
  C   C560      1.0  0.63261  0.26520  0.77312  1.0000
  C   C561      1.0  0.51856  0.25458  0.78233  1.0000
  H   H918      1.0  0.52715  0.23847  0.77744  1.0000
  C   C562      1.0  0.54474  0.27815  0.76637  1.0000
  C   C563      1.0  0.52340  0.29182  0.78774  1.0000
  C   C564      1.0  0.44477  0.10425  0.76951  1.0000
  H   H919      1.0  0.60005  0.27124  0.76440  1.0000
  H   H920      1.0  0.44328  0.12207  0.76274  1.0000
  C   C565      1.0  0.38908  0.31891  0.76817  1.0000
  S   S213      1.0  0.46408  0.31883  0.76444  1.0000
  H   H921      1.0  0.33624  0.20508  0.79436  1.0000
  H   H922      1.0  0.53602  0.20690  0.74911  1.0000
  C   C566      1.0  0.36064  0.14785  0.74717  1.0000
  S   S214      1.0  0.64484  0.59017  0.19814  1.0000
  Fe  Fe106     1.0  0.61016  0.61691  0.20071  1.0000
  S   S215      1.0  0.61378  0.65322  0.20341  1.0000
  C   C567      1.0  0.42706  0.57502  0.21526  1.0000
  S   S216      1.0  0.58308  0.63005  0.18591  1.0000
  H   H923      1.0  0.40390  0.55953  0.19851  1.0000
  S   S217      1.0  0.38697  0.65504  0.16204  1.0000
  C   C568      1.0  0.34836  0.63920  0.23830  1.0000
  Fe  Fe107     1.0  0.36160  0.62964  0.16552  1.0000
  H   H924      1.0  0.41644  0.56922  0.22557  1.0000
  C   C569      1.0  0.49405  0.62276  0.17407  1.0000
  C   C570      1.0  0.50948  0.62223  0.18368  1.0000
  H   H925      1.0  0.50091  0.62422  0.16297  1.0000
  H   H926      1.0  0.52808  0.62341  0.17997  1.0000
  H   H927      1.0  0.46756  0.54273  0.21727  1.0000
  Fe  Fe108     1.0  0.36916  0.66345  0.18307  1.0000
  S   S218      1.0  0.36257  0.58611  0.21521  1.0000
  S   S219      1.0  0.34200  0.64018  0.18594  1.0000
  H   H928      1.0  0.63685  0.61394  0.17003  1.0000
  H   H929      1.0  0.34636  0.65844  0.23635  1.0000
  C   C571      1.0  0.35346  0.62660  0.22701  1.0000
  S   S220      1.0  0.38775  0.59893  0.17509  1.0000
  Fe  Fe109     1.0  0.36999  0.61167  0.19536  1.0000
  H   H930      1.0  0.35495  0.63628  0.21644  1.0000
  C   C572      1.0  0.46126  0.61933  0.19315  1.0000
  H   H931      1.0  0.65807  0.63959  0.18602  1.0000
  H   H932      1.0  0.45648  0.54940  0.18698  1.0000
  C   C573      1.0  0.35629  0.60174  0.22943  1.0000
  S   S221      1.0  0.58242  0.61287  0.22000  1.0000
  H   H933      1.0  0.62824  0.63259  0.23308  1.0000
  S   S222      1.0  0.39510  0.63628  0.19478  1.0000
  Fe  Fe110     1.0  0.55545  0.62944  0.20544  1.0000
  H   H934      1.0  0.43874  0.57869  0.18738  1.0000
  H   H935      1.0  0.45950  0.52078  0.20942  1.0000
  H   H936      1.0  0.44187  0.58269  0.21728  1.0000
  Fe  Fe111     1.0  0.41115  0.62579  0.17385  1.0000
  S   S223      1.0  0.45114  0.62043  0.16671  1.0000
  C   C574      1.0  0.46989  0.62126  0.17879  1.0000
  H   H937      1.0  0.42209  0.53027  0.19899  1.0000
  H   H938      1.0  0.44233  0.52909  0.22556  1.0000
  C   C575      1.0  0.50089  0.61949  0.19806  1.0000
  C   C576      1.0  0.47677  0.61796  0.20275  1.0000
  H   H939      1.0  0.44283  0.61814  0.19691  1.0000
  N   N60       1.0  0.43625  0.55511  0.20720  1.0000
  C   C577      1.0  0.41590  0.54566  0.20478  1.0000
  C   C578      1.0  0.45210  0.53606  0.21522  1.0000
  C   C579      1.0  0.35351  0.58950  0.24321  1.0000
  H   H940      1.0  0.40468  0.53975  0.21484  1.0000
  H   H941      1.0  0.47002  0.61593  0.21387  1.0000
  S   S224      1.0  0.51923  0.61824  0.21067  1.0000
  H   H942      1.0  0.41493  0.58964  0.20955  1.0000
  H   H943      1.0  0.46584  0.57036  0.19491  1.0000
  C   C580      1.0  0.44990  0.56373  0.19355  1.0000
  S   S225      1.0  0.34054  0.63435  0.14787  1.0000
  C   C581      1.0  0.62769  0.63537  0.24370  1.0000
  H   H944      1.0  0.47611  0.65324  0.22330  1.0000
  Fe  Fe112     1.0  0.58404  0.65038  0.22135  1.0000
  S   S226      1.0  0.58324  0.66346  0.24153  1.0000
  H   H945      1.0  0.50384  0.66235  0.22278  1.0000
  H   H946      1.0  0.35561  0.57026  0.24514  1.0000
  C   C582      1.0  0.65569  0.60639  0.16979  1.0000
  H   H947      1.0  0.66296  0.61453  0.24560  1.0000
  H   H948      1.0  0.66285  0.64773  0.20931  1.0000
  C   C583      1.0  0.66405  0.59313  0.18196  1.0000
  H   H949      1.0  0.66529  0.62033  0.14791  1.0000
  H   H950      1.0  0.46427  0.40182  0.40352  1.0000
  H   H951      1.0  0.59084  0.66268  0.26947  1.0000
  S   S227      1.0  0.38775  0.35699  0.42420  1.0000
  H   H952      1.0  0.63233  0.45747  0.46785  1.0000
  C   C584      1.0  0.60742  0.64917  0.25037  1.0000
  Fe  Fe113     1.0  0.61828  0.34914  0.46650  1.0000
  S   S228      1.0  0.58864  0.37929  0.47172  1.0000
  C   C585      1.0  0.61708  0.57510  0.37551  1.0000
  H   H953      1.0  0.38795  0.43939  0.40009  1.0000
  Fe  Fe114     1.0  0.56539  0.35754  0.46615  1.0000
  S   S229      1.0  0.53502  0.37639  0.45457  1.0000
  S   S230      1.0  0.61232  0.48106  0.41142  1.0000
  H   H954      1.0  0.39072  0.41478  0.46948  1.0000
  H   H955      1.0  0.61903  0.43882  0.44002  1.0000
  H   H956      1.0  0.46292  0.34402  0.45962  1.0000
  C   C586      1.0  0.63429  0.40162  0.44600  1.0000
  C   C587      1.0  0.63498  0.42611  0.44239  1.0000
  H   H957      1.0  0.61792  0.39551  0.44612  1.0000
  H   H958      1.0  0.37596  0.35513  0.47091  1.0000
  C   C588      1.0  0.39905  0.37918  0.41142  1.0000
  C   C589      1.0  0.41955  0.37297  0.40184  1.0000
  C   C590      1.0  0.42811  0.39049  0.39136  1.0000
  C   C591      1.0  0.38770  0.40319  0.41083  1.0000
  C   C592      1.0  0.45318  0.37631  0.48609  1.0000
  H   H959      1.0  0.45648  0.43364  0.39997  1.0000
  H   H960      1.0  0.37595  0.39183  0.48023  1.0000
  C   C593      1.0  0.52890  0.36208  0.44195  1.0000
  C   C594      1.0  0.50621  0.36838  0.43788  1.0000
  H   H961      1.0  0.48226  0.36013  0.42605  1.0000
  C   C595      1.0  0.65492  0.38512  0.44911  1.0000
  H   H962      1.0  0.49329  0.38288  0.44186  1.0000
  C   C596      1.0  0.51630  0.33619  0.42422  1.0000
  H   H963      1.0  0.46788  0.38260  0.46424  1.0000
  H   H964      1.0  0.48256  0.40342  0.37875  1.0000
  H   H965      1.0  0.51914  0.44296  0.38708  1.0000
  H   H966      1.0  0.37174  0.40810  0.41815  1.0000
  C   C597      1.0  0.52093  0.41483  0.48394  1.0000
  H   H967      1.0  0.50468  0.44266  0.40496  1.0000
  H   H968      1.0  0.50602  0.38145  0.39818  1.0000
  H   H969      1.0  0.41318  0.53832  0.49203  1.0000
  C   C598      1.0  0.41684  0.41447  0.39072  1.0000
  H   H970      1.0  0.51483  0.39821  0.40922  1.0000
  H   H971      1.0  0.48970  0.66110  0.48277  1.0000
  H   H972      1.0  0.52931  0.39848  0.39137  1.0000
  C   C599      1.0  0.44363  0.36009  0.49703  1.0000
  H   H973      1.0  0.48867  0.45767  0.39079  1.0000
  N   N61       1.0  0.49369  0.41942  0.39382  1.0000
  C   C600      1.0  0.49023  0.41911  0.37934  1.0000
  C   C601      1.0  0.34603  0.54911  0.34726  1.0000
  C   C602      1.0  0.39684  0.42092  0.40062  1.0000
  H   H974      1.0  0.47760  0.43532  0.37537  1.0000
  C   C603      1.0  0.50193  0.44158  0.39421  1.0000
  C   C604      1.0  0.36715  0.39722  0.45377  1.0000
  H   H975      1.0  0.47250  0.41943  0.41430  1.0000
  H   H976      1.0  0.50735  0.41862  0.37193  1.0000
  H   H977      1.0  0.44342  0.38537  0.38364  1.0000
  C   C605      1.0  0.51176  0.39848  0.39834  1.0000
  H   H978      1.0  0.42834  0.35453  0.40217  1.0000
  S   S231      1.0  0.42819  0.43551  0.37716  1.0000
  C   C606      1.0  0.54380  0.43401  0.46333  1.0000
  C   C607      1.0  0.47076  0.41855  0.40336  1.0000
  S   S232      1.0  0.45493  0.40508  0.48831  1.0000
  H   H979      1.0  0.55860  0.43298  0.46930  1.0000
  H   H980      1.0  0.35622  0.59385  0.35840  1.0000
  H   H981      1.0  0.64186  0.47362  0.47894  1.0000
  H   H982      1.0  0.33412  0.59968  0.31572  1.0000
  H   H983      1.0  0.40789  0.35036  0.46640  1.0000
  N   N62       1.0  0.38984  0.38576  0.45906  1.0000
  N   N63       1.0  0.52037  0.43565  0.47257  1.0000
  C   C608      1.0  0.46021  0.37023  0.47265  1.0000
  S   S233      1.0  0.44477  0.33559  0.43813  1.0000
  S   S234      1.0  0.43713  0.48660  0.39415  1.0000
  H   H984      1.0  0.38978  0.35195  0.45329  1.0000
  H   H985      1.0  0.42763  0.38252  0.45173  1.0000
  S   S235      1.0  0.43594  0.61632  0.49229  1.0000
  H   H986      1.0  0.52957  0.45819  0.48477  1.0000
  H   H987      1.0  0.56363  0.33947  0.43913  1.0000
  C   C609      1.0  0.50139  0.43615  0.46428  1.0000
  H   H988      1.0  0.34093  0.61805  0.36753  1.0000
  H   H989      1.0  0.33605  0.55474  0.37965  1.0000
  C   C610      1.0  0.41020  0.39090  0.44812  1.0000
  C   C611      1.0  0.60666  0.65237  0.26420  1.0000
  H   H990      1.0  0.64713  0.39795  0.48960  1.0000
  C   C612      1.0  0.65628  0.43408  0.44198  1.0000
  S   S236      1.0  0.64227  0.65701  0.30341  1.0000
  H   H991      1.0  0.40795  0.38667  0.47608  1.0000
  H   H992      1.0  0.64630  0.54185  0.35041  1.0000
  C   C613      1.0  0.39090  0.35969  0.46258  1.0000
  H   H993      1.0  0.49255  0.49292  0.42380  1.0000
  C   C614      1.0  0.39112  0.39520  0.47176  1.0000
  H   H994      1.0  0.38824  0.58519  0.37253  1.0000
  Fe  Fe115     1.0  0.42089  0.47480  0.37836  1.0000
  H   H995      1.0  0.36564  0.39021  0.44426  1.0000
  N   N64       1.0  0.64347  0.43613  0.48680  1.0000
  C   C615      1.0  0.51528  0.45776  0.47873  1.0000
  H   H996      1.0  0.53665  0.63264  0.45696  1.0000
  H   H997      1.0  0.66708  0.41034  0.47514  1.0000
  Fe  Fe116     1.0  0.65341  0.63547  0.32352  1.0000
  C   C616      1.0  0.45713  0.34841  0.46999  1.0000
  S   S237      1.0  0.54228  0.48088  0.42737  1.0000
  C   C617      1.0  0.61659  0.59790  0.36740  1.0000
  C   C618      1.0  0.44041  0.33818  0.49431  1.0000
  H   H998      1.0  0.53456  0.41417  0.49071  1.0000
  Fe  Fe117     1.0  0.62712  0.48915  0.42904  1.0000
  H   H999      1.0  0.50127  0.45086  0.45515  1.0000
  H   H1000     1.0  0.49533  0.51150  0.44487  1.0000
  H   H1001     1.0  0.40986  0.41042  0.44516  1.0000
  H   H1002     1.0  0.53704  0.53254  0.35912  1.0000
  H   H1003     1.0  0.34542  0.59278  0.26521  1.0000
  S   S238      1.0  0.63940  0.61107  0.47161  1.0000
  Fe  Fe118     1.0  0.59314  0.53686  0.43002  1.0000
  S   S239      1.0  0.57617  0.53299  0.41203  1.0000
  S   S240      1.0  0.57498  0.56660  0.44231  1.0000
  H   H1004     1.0  0.36583  0.41688  0.45081  1.0000
  H   H1005     1.0  0.53492  0.55600  0.43107  1.0000
  Fe  Fe119     1.0  0.61360  0.51941  0.40210  1.0000
  C   C619      1.0  0.41239  0.56927  0.43644  1.0000
  S   S241      1.0  0.63080  0.52668  0.41908  1.0000
  C   C620      1.0  0.50341  0.49371  0.41354  1.0000
  C   C621      1.0  0.52728  0.63837  0.46706  1.0000
  C   C622      1.0  0.44672  0.33250  0.48069  1.0000
  H   H1006     1.0  0.56526  0.52489  0.37662  1.0000
  H   H1007     1.0  0.60831  0.61357  0.37216  1.0000
  H   H1008     1.0  0.52514  0.39778  0.47969  1.0000
  H   H1009     1.0  0.37392  0.60868  0.38241  1.0000
  C   C623      1.0  0.54582  0.34382  0.43643  1.0000
  C   C624      1.0  0.53096  0.56429  0.37650  1.0000
  C   C625      1.0  0.34770  0.60220  0.25455  1.0000
  H   H1010     1.0  0.51400  0.47382  0.47047  1.0000
  C   C626      1.0  0.63812  0.55751  0.35521  1.0000
  H   H1011     1.0  0.65126  0.58090  0.45061  1.0000
  H   H1012     1.0  0.40983  0.38395  0.43841  1.0000
  C   C627      1.0  0.54234  0.48957  0.39902  1.0000
  H   H1013     1.0  0.49107  0.57423  0.45006  1.0000
  C   C628      1.0  0.63785  0.58029  0.34715  1.0000
  H   H1014     1.0  0.51595  0.57743  0.37226  1.0000
  Fe  Fe120     1.0  0.62173  0.63134  0.48922  1.0000
  S   S242      1.0  0.42370  0.54102  0.37681  1.0000
  N   N65       1.0  0.55154  0.55926  0.36536  1.0000
  Fe  Fe121     1.0  0.40733  0.52551  0.36257  1.0000
  H   H1015     1.0  0.54026  0.63287  0.47463  1.0000
  Fe  Fe122     1.0  0.41389  0.59590  0.48429  1.0000
  S   S243      1.0  0.33820  0.64336  0.26596  1.0000
  H   H1016     1.0  0.35892  0.54811  0.39066  1.0000
  H   H1017     1.0  0.58682  0.53751  0.36339  1.0000
  H   H1018     1.0  0.47567  0.53980  0.44514  1.0000
  H   H1019     1.0  0.47311  0.50602  0.40250  1.0000
  H   H1020     1.0  0.54796  0.41790  0.45819  1.0000
  H   H1021     1.0  0.54729  0.53108  0.45301  1.0000
  H   H1022     1.0  0.52482  0.53109  0.42728  1.0000
  N   N66       1.0  0.51164  0.53948  0.44802  1.0000
  H   H1023     1.0  0.50480  0.55921  0.42786  1.0000
  H   H1024     1.0  0.54630  0.59509  0.35396  1.0000
  H   H1025     1.0  0.33969  0.58149  0.40314  1.0000
  S   S244      1.0  0.38719  0.50277  0.38000  1.0000
  C   C629      1.0  0.35330  0.55907  0.38080  1.0000
  H   H1026     1.0  0.55908  0.54502  0.34603  1.0000
  C   C630      1.0  0.62790  0.55485  0.36940  1.0000
  C   C631      1.0  0.53124  0.49593  0.38699  1.0000
  C   C632      1.0  0.56034  0.58155  0.35889  1.0000
  H   H1027     1.0  0.38200  0.57872  0.39136  1.0000
  H   H1028     1.0  0.60910  0.57318  0.38645  1.0000
  C   C633      1.0  0.52843  0.48836  0.41231  1.0000
  Fe  Fe123     1.0  0.57646  0.49539  0.42297  1.0000
  H   H1029     1.0  0.48335  0.43843  0.47080  1.0000
  C   C634      1.0  0.59313  0.57779  0.45093  1.0000
  C   C635      1.0  0.61801  0.57366  0.44719  1.0000
  C   C636      1.0  0.63203  0.58384  0.45369  1.0000
  C   C637      1.0  0.62129  0.59799  0.46404  1.0000
  C   C638      1.0  0.59641  0.60168  0.46804  1.0000
  C   C639      1.0  0.58237  0.59159  0.46146  1.0000
  H   H1030     1.0  0.62644  0.56304  0.43909  1.0000
  S   S245      1.0  0.41110  0.62139  0.46396  1.0000
  H   H1031     1.0  0.58806  0.61244  0.47608  1.0000
  H   H1032     1.0  0.56319  0.59432  0.46456  1.0000
  H   H1033     1.0  0.52929  0.56194  0.34968  1.0000
  H   H1034     1.0  0.50393  0.41917  0.46012  1.0000
  H   H1035     1.0  0.34933  0.53472  0.35586  1.0000
  C   C640      1.0  0.62724  0.60055  0.35326  1.0000
  H   H1036     1.0  0.52081  0.56958  0.45403  1.0000
  C   C641      1.0  0.40587  0.54612  0.41981  1.0000
  S   S246      1.0  0.43966  0.49638  0.35974  1.0000
  H   H1037     1.0  0.56606  0.58962  0.36679  1.0000
  H   H1038     1.0  0.52380  0.54783  0.38149  1.0000
  H   H1039     1.0  0.36683  0.55319  0.37193  1.0000
  Fe  Fe124     1.0  0.40561  0.51679  0.39406  1.0000
  H   H1040     1.0  0.49832  0.55628  0.46624  1.0000
  C   C642      1.0  0.49987  0.35535  0.42908  1.0000
  C   C643      1.0  0.50628  0.50209  0.38817  1.0000
  H   H1041     1.0  0.35136  0.39385  0.46176  1.0000
  H   H1042     1.0  0.48392  0.52258  0.46124  1.0000
  C   C644      1.0  0.49074  0.52776  0.44995  1.0000
  S   S247      1.0  0.45432  0.58598  0.43430  1.0000
  H   H1043     1.0  0.53682  0.50639  0.44946  1.0000
  S   S248      1.0  0.49314  0.51146  0.37285  1.0000
  H   H1044     1.0  0.63604  0.41360  0.47384  1.0000
  Fe  Fe125     1.0  0.46678  0.59203  0.48183  1.0000
  S   S249      1.0  0.59121  0.49993  0.44152  1.0000
  N   N67       1.0  0.35124  0.58477  0.38089  1.0000
  C   C645      1.0  0.51945  0.54672  0.43288  1.0000
  H   H1045     1.0  0.57619  0.57826  0.35061  1.0000
  C   C646      1.0  0.54396  0.54928  0.35456  1.0000
  Fe  Fe126     1.0  0.58384  0.35750  0.49309  1.0000
  H   H1046     1.0  0.40581  0.57806  0.44553  1.0000
  S   S250      1.0  0.62749  0.62939  0.34367  1.0000
  C   C647      1.0  0.34524  0.62707  0.25206  1.0000
  H   H1047     1.0  0.53607  0.57155  0.38494  1.0000
  H   H1048     1.0  0.37466  0.58725  0.32257  1.0000
  C   C648      1.0  0.36479  0.56026  0.33978  1.0000
  H   H1049     1.0  0.54413  0.44964  0.45477  1.0000
  S   S251      1.0  0.44487  0.56997  0.47540  1.0000
  H   H1050     1.0  0.43603  0.53764  0.40391  1.0000
  S   S252      1.0  0.38692  0.53213  0.41344  1.0000
  Fe  Fe127     1.0  0.45391  0.50979  0.37572  1.0000
  S   S253      1.0  0.55771  0.33826  0.48810  1.0000
  C   C649      1.0  0.42924  0.54657  0.41288  1.0000
  S   S254      1.0  0.46912  0.61665  0.46137  1.0000
  S   S255      1.0  0.62825  0.52593  0.37896  1.0000
  H   H1051     1.0  0.57725  0.54892  0.37962  1.0000
  C   C650      1.0  0.44393  0.55876  0.41748  1.0000
  H   H1052     1.0  0.46184  0.55931  0.41190  1.0000
  H   H1053     1.0  0.49810  0.45914  0.48613  1.0000
  H   H1054     1.0  0.56167  0.48517  0.39803  1.0000
  C   C651      1.0  0.53127  0.52276  0.45436  1.0000
  Fe  Fe128     1.0  0.44408  0.59688  0.45571  1.0000
  C   C652      1.0  0.49236  0.50094  0.40148  1.0000
  S   S256      1.0  0.39389  0.55291  0.34450  1.0000
  C   C653      1.0  0.39753  0.55732  0.43168  1.0000
  C   C654      1.0  0.36026  0.57857  0.32844  1.0000
  H   H1055     1.0  0.54201  0.49599  0.37673  1.0000
  H   H1056     1.0  0.37952  0.55690  0.43716  1.0000
  H   H1057     1.0  0.52596  0.51742  0.46582  1.0000
  C   C655      1.0  0.43550  0.57028  0.42919  1.0000
  C   C656      1.0  0.50514  0.56082  0.45492  1.0000
  C   C657      1.0  0.57101  0.54190  0.37150  1.0000
  Fe  Fe129     1.0  0.43631  0.63951  0.47114  1.0000
  C   C658      1.0  0.64864  0.41352  0.48111  1.0000
  C   C659      1.0  0.64669  0.62874  0.26456  1.0000
  H   H1058     1.0  0.64578  0.58215  0.33621  1.0000
  S   S257      1.0  0.65418  0.35461  0.45463  1.0000
  H   H1059     1.0  0.51257  0.62810  0.47108  1.0000
  C   C660      1.0  0.61898  0.43940  0.49479  1.0000
  S   S258      1.0  0.65737  0.46462  0.43884  1.0000
  C   C661      1.0  0.33727  0.58569  0.32454  1.0000
  H   H1060     1.0  0.62520  0.64427  0.28201  1.0000
  H   H1061     1.0  0.60539  0.43982  0.48807  1.0000
  C   C662      1.0  0.62622  0.64215  0.27128  1.0000
  C   C663      1.0  0.37487  0.58959  0.38185  1.0000
  C   C664      1.0  0.34311  0.59851  0.36778  1.0000
  C   C665      1.0  0.64533  0.45623  0.47511  1.0000
  C   C666      1.0  0.64732  0.62518  0.25079  1.0000
  S   S259      1.0  0.50037  0.57363  0.49055  1.0000
  H   H1062     1.0  0.66349  0.45415  0.46868  1.0000
  H   H1063     1.0  0.66186  0.61340  0.36715  1.0000
  H   H1064     1.0  0.54785  0.57906  0.49196  1.0000
  S   S260      1.0  0.59256  0.66364  0.48765  1.0000
  C   C667      1.0  0.66093  0.43534  0.49616  1.0000
  H   H1065     1.0  0.50326  0.41526  0.49083  1.0000
  H   H1066     1.0  0.48641  0.66177  0.45783  1.0000
  C   C668      1.0  0.53519  0.59249  0.49714  1.0000
  C   C669      1.0  0.59980  0.38097  0.51797  1.0000
  N   N68       1.0  0.46848  0.52435  0.52035  1.0000
  H   H1067     1.0  0.62534  0.35675  0.50607  1.0000
  S   S261      1.0  0.37330  0.35906  0.60804  1.0000
  C   C670      1.0  0.55850  0.34528  0.73830  1.0000
  H   H1068     1.0  0.57207  0.54065  0.51532  1.0000
  C   C671      1.0  0.64259  0.37241  0.51852  1.0000
  Fe  Fe130     1.0  0.45285  0.41409  0.50982  1.0000
  S   S262      1.0  0.48382  0.40021  0.52158  1.0000
  Fe  Fe131     1.0  0.42943  0.44991  0.52930  1.0000
  S   S263      1.0  0.45864  0.43895  0.54273  1.0000
  S   S264      1.0  0.63624  0.47756  0.56595  1.0000
  Fe  Fe132     1.0  0.48344  0.43848  0.52232  1.0000
  S   S265      1.0  0.51694  0.45391  0.51503  1.0000
  Fe  Fe133     1.0  0.45621  0.40158  0.54109  1.0000
  S   S266      1.0  0.46175  0.37188  0.55963  1.0000
  S   S267      1.0  0.45453  0.45248  0.50909  1.0000
  S   S268      1.0  0.42491  0.41244  0.52914  1.0000
  C   C672      1.0  0.56956  0.46041  0.53489  1.0000
  H   H1069     1.0  0.65366  0.65436  0.54718  1.0000
  H   H1070     1.0  0.50482  0.50908  0.52331  1.0000
  C   C673      1.0  0.50256  0.62800  0.50986  1.0000
  S   S269      1.0  0.57481  0.37709  0.51158  1.0000
  C   C674      1.0  0.51060  0.59350  0.49814  1.0000
  C   C675      1.0  0.62278  0.36889  0.51344  1.0000
  S   S270      1.0  0.63033  0.42262  0.56597  1.0000
  S   S271      1.0  0.39891  0.47943  0.53485  1.0000
  H   H1071     1.0  0.51110  0.38238  0.54402  1.0000
  H   H1072     1.0  0.58864  0.45931  0.53244  1.0000
  S   S272      1.0  0.46991  0.35539  0.73418  1.0000
  H   H1073     1.0  0.48987  0.64174  0.51477  1.0000
  H   H1074     1.0  0.41904  0.49739  0.50597  1.0000
  H   H1075     1.0  0.54308  0.37727  0.53959  1.0000
  Fe  Fe134     1.0  0.65456  0.42438  0.54538  1.0000
  C   C676      1.0  0.66632  0.55219  0.52104  1.0000
  H   H1076     1.0  0.54537  0.34830  0.73133  1.0000
  S   S273      1.0  0.64038  0.61200  0.53838  1.0000
  C   C677      1.0  0.55735  0.46548  0.54796  1.0000
  C   C678      1.0  0.53249  0.46679  0.55098  1.0000
  C   C679      1.0  0.51996  0.46270  0.54105  1.0000
  C   C680      1.0  0.53220  0.45786  0.52794  1.0000
  C   C681      1.0  0.55696  0.45694  0.52483  1.0000
  H   H1077     1.0  0.49979  0.54029  0.51620  1.0000
  H   H1078     1.0  0.50083  0.46361  0.54350  1.0000
  H   H1079     1.0  0.56648  0.45312  0.51471  1.0000
  C   C682      1.0  0.39864  0.36324  0.59525  1.0000
  C   C683      1.0  0.42159  0.35004  0.59670  1.0000
  C   C684      1.0  0.44085  0.35282  0.58573  1.0000
  C   C685      1.0  0.43739  0.36908  0.57335  1.0000
  C   C686      1.0  0.41457  0.38255  0.57203  1.0000
  C   C687      1.0  0.39531  0.37956  0.58290  1.0000
  S   S274      1.0  0.60390  0.61315  0.50942  1.0000
  C   C688      1.0  0.52712  0.62751  0.50847  1.0000
  H   H1080     1.0  0.41167  0.39519  0.56259  1.0000
  H   H1081     1.0  0.37765  0.38990  0.58170  1.0000
  H   H1082     1.0  0.50927  0.40605  0.57685  1.0000
  H   H1083     1.0  0.56199  0.56774  0.52268  1.0000
  N   N69       1.0  0.58902  0.54221  0.53271  1.0000
  Fe  Fe135     1.0  0.57665  0.64700  0.50880  1.0000
  H   H1084     1.0  0.45491  0.51644  0.50327  1.0000
  C   C689      1.0  0.59671  0.39673  0.52753  1.0000
  C   C690      1.0  0.50852  0.40563  0.56568  1.0000
  C   C691      1.0  0.57794  0.55380  0.52011  1.0000
  H   H1085     1.0  0.61403  0.41294  0.53974  1.0000
  C   C692      1.0  0.45186  0.54754  0.52065  1.0000
  H   H1086     1.0  0.42450  0.33774  0.60626  1.0000
  H   H1087     1.0  0.43813  0.36470  0.50745  1.0000
  H   H1088     1.0  0.52295  0.47078  0.56108  1.0000
  S   S275      1.0  0.57254  0.47069  0.56059  1.0000
  C   C693      1.0  0.52936  0.36476  0.56748  1.0000
  C   C694      1.0  0.63952  0.38829  0.52799  1.0000
  Fe  Fe136     1.0  0.61274  0.45946  0.55746  1.0000
  H   H1089     1.0  0.47992  0.53134  0.49810  1.0000
  S   S276      1.0  0.53696  0.65013  0.51388  1.0000
  C   C695      1.0  0.55164  0.39688  0.56012  1.0000
  C   C696      1.0  0.52738  0.38903  0.54474  1.0000
  H   H1090     1.0  0.55344  0.39770  0.57107  1.0000
  H   H1091     1.0  0.55226  0.41498  0.55392  1.0000
  H   H1092     1.0  0.56767  0.38454  0.55577  1.0000
  H   H1093     1.0  0.52643  0.40720  0.53840  1.0000
  H   H1094     1.0  0.39428  0.34547  0.70095  1.0000
  H   H1095     1.0  0.65822  0.52579  0.55520  1.0000
  H   H1096     1.0  0.47014  0.48800  0.53057  1.0000
  C   C697      1.0  0.61655  0.40051  0.53250  1.0000
  C   C698      1.0  0.59969  0.34286  0.74181  1.0000
  S   S277      1.0  0.63498  0.45973  0.53623  1.0000
  H   H1097     1.0  0.50773  0.42411  0.55993  1.0000
  H   H1098     1.0  0.49130  0.40034  0.56535  1.0000
  H   H1099     1.0  0.45554  0.50989  0.54162  1.0000
  H   H1100     1.0  0.57950  0.52142  0.55284  1.0000
  H   H1101     1.0  0.36806  0.33189  0.72438  1.0000
  H   H1102     1.0  0.57901  0.40642  0.53084  1.0000
  H   H1103     1.0  0.45882  0.56190  0.51273  1.0000
  Fe  Fe137     1.0  0.65996  0.47508  0.54519  1.0000
  N   N70       1.0  0.52925  0.38910  0.55951  1.0000
  H   H1104     1.0  0.45849  0.34246  0.58687  1.0000
  Fe  Fe138     1.0  0.37212  0.33212  0.62812  1.0000
  H   H1105     1.0  0.64550  0.56837  0.55840  1.0000
  C   C699      1.0  0.65855  0.57613  0.52280  1.0000
  H   H1106     1.0  0.62375  0.53229  0.52069  1.0000
  H   H1107     1.0  0.60980  0.56924  0.53114  1.0000
  C   C700      1.0  0.66601  0.53395  0.53268  1.0000
  H   H1108     1.0  0.43400  0.54668  0.51834  1.0000
  H   H1109     1.0  0.44888  0.55318  0.53112  1.0000
  C   C701      1.0  0.65130  0.56387  0.54796  1.0000
  C   C702      1.0  0.47211  0.51778  0.50621  1.0000
  H   H1110     1.0  0.48978  0.53069  0.53444  1.0000
  Fe  Fe139     1.0  0.62396  0.63218  0.51954  1.0000
  C   C703      1.0  0.40695  0.51187  0.51044  1.0000
  Fe  Fe140     1.0  0.65632  0.44035  0.57254  1.0000
  C   C704      1.0  0.49432  0.61111  0.50461  1.0000
  C   C705      1.0  0.40369  0.53505  0.50257  1.0000
  H   H1111     1.0  0.58784  0.35081  0.72161  1.0000
  C   C706      1.0  0.61029  0.52418  0.52878  1.0000
  H   H1112     1.0  0.61942  0.51550  0.53798  1.0000
  H   H1113     1.0  0.60457  0.55234  0.54833  1.0000
  C   C707      1.0  0.49176  0.52618  0.52374  1.0000
  C   C708      1.0  0.38750  0.55377  0.50823  1.0000
  C   C709      1.0  0.37443  0.54910  0.52162  1.0000
  C   C710      1.0  0.45830  0.50578  0.53078  1.0000
  H   H1114     1.0  0.36170  0.56337  0.52600  1.0000
  C   C711      1.0  0.39428  0.50750  0.52403  1.0000
  H   H1115     1.0  0.59076  0.56267  0.51193  1.0000
  H   H1116     1.0  0.60543  0.50986  0.52448  1.0000
  H   H1117     1.0  0.44060  0.50407  0.52870  1.0000
  C   C712      1.0  0.37790  0.52616  0.52950  1.0000
  C   C713      1.0  0.41073  0.33595  0.69578  1.0000
  C   C714      1.0  0.57159  0.53048  0.54324  1.0000
  H   H1118     1.0  0.48438  0.50026  0.50567  1.0000
  H   H1119     1.0  0.58086  0.57459  0.54162  1.0000
  S   S278      1.0  0.63000  0.34274  0.73457  1.0000
  C   C715      1.0  0.59632  0.56039  0.53873  1.0000
  H   H1120     1.0  0.55535  0.54353  0.54656  1.0000
  C   C716      1.0  0.65113  0.58204  0.53626  1.0000
  H   H1121     1.0  0.51248  0.35859  0.56730  1.0000
  H   H1122     1.0  0.36790  0.52290  0.53994  1.0000
  H   H1123     1.0  0.56572  0.51656  0.53910  1.0000
  C   C717      1.0  0.58251  0.34679  0.73283  1.0000
  C   C718      1.0  0.54343  0.60971  0.50214  1.0000
  H   H1124     1.0  0.53092  0.36403  0.57867  1.0000
  S   S279      1.0  0.64418  0.64806  0.49937  1.0000
  C   C719      1.0  0.65833  0.53978  0.54616  1.0000
  H   H1125     1.0  0.54451  0.35170  0.56297  1.0000
  S   S280      1.0  0.38290  0.58317  0.49900  1.0000
  S   S281      1.0  0.34726  0.33993  0.64801  1.0000
  H   H1126     1.0  0.66033  0.36299  0.51497  1.0000
  S   S282      1.0  0.66596  0.42519  0.59420  1.0000
  H   H1127     1.0  0.65850  0.59001  0.51370  1.0000
  H   H1128     1.0  0.43218  0.34153  0.71011  1.0000
  H   H1129     1.0  0.47535  0.61166  0.50571  1.0000
  H   H1130     1.0  0.65739  0.45197  0.50081  1.0000
  H   H1131     1.0  0.66026  0.42017  0.50499  1.0000
  H   H1132     1.0  0.61706  0.42455  0.50368  1.0000
  H   H1133     1.0  0.61442  0.45628  0.49925  1.0000
  C   C720      1.0  0.43216  0.33363  0.70103  1.0000
  S   S283      1.0  0.66468  0.39347  0.53360  1.0000
  H   H1134     1.0  0.56235  0.60955  0.50071  1.0000
  C   C721      1.0  0.38195  0.34315  0.76322  1.0000
  H   H1135     1.0  0.35194  0.37206  0.76066  1.0000
  C   C722      1.0  0.35748  0.35333  0.76461  1.0000
  C   C723      1.0  0.34883  0.37250  0.80110  1.0000
  Fe  Fe141     1.0  0.44034  0.33995  0.74905  1.0000
  S   S284      1.0  0.40327  0.36082  0.75506  1.0000
  H   H1136     1.0  0.35340  0.36503  0.79113  1.0000
  H   H1137     1.0  0.36185  0.36211  0.80806  1.0000
  C   C724      1.0  0.59263  0.33789  0.75629  1.0000
  S   S285      1.0  0.52148  0.33944  0.76030  1.0000
  C   C725      1.0  0.55142  0.34075  0.75282  1.0000
  H   H1138     1.0  0.35190  0.39120  0.79856  1.0000
  C   C726      1.0  0.34020  0.33925  0.77084  1.0000
  C   C727      1.0  0.56852  0.33725  0.76177  1.0000
  H   H1139     1.0  0.60565  0.33493  0.76330  1.0000
  H   H1140     1.0  0.56312  0.33404  0.77302  1.0000
  Fe  Fe142     1.0  0.49422  0.33183  0.74887  1.0000
  Fe  Fe143     1.0  0.65810  0.33186  0.74900  1.0000
  H   H1141     1.0  0.36868  0.71900  0.14255  1.0000
  S   S286      1.0  0.58943  0.69745  0.17309  1.0000
  C   C728      1.0  0.38707  0.71236  0.18220  1.0000
  H   H1142     1.0  0.51469  0.74762  0.18601  1.0000
  C   C729      1.0  0.61366  0.71360  0.18951  1.0000
  C   C730      1.0  0.61291  0.70946  0.17607  1.0000
  H   H1143     1.0  0.53405  0.79575  0.15821  1.0000
  C   C731      1.0  0.43019  0.72877  0.17869  1.0000
  H   H1144     1.0  0.37131  0.80484  0.23037  1.0000
  C   C732      1.0  0.43060  0.70463  0.17889  1.0000
  C   C733      1.0  0.40902  0.69648  0.18055  1.0000
  N   N71       1.0  0.54282  0.76488  0.17368  1.0000
  H   H1145     1.0  0.44745  0.69217  0.17803  1.0000
  C   C734      1.0  0.35651  0.81193  0.22404  1.0000
  H   H1146     1.0  0.54591  0.73002  0.16849  1.0000
  C   C735      1.0  0.63137  0.71425  0.16512  1.0000
  S   S287      1.0  0.36005  0.70219  0.18450  1.0000
  H   H1147     1.0  0.35289  0.87065  0.22517  1.0000
  C   C736      1.0  0.63273  0.72273  0.19196  1.0000
  C   C737      1.0  0.65155  0.72682  0.18112  1.0000
  H   H1148     1.0  0.63088  0.71093  0.15473  1.0000
  H   H1149     1.0  0.39018  0.70910  0.15432  1.0000
  C   C738      1.0  0.38680  0.73664  0.18129  1.0000
  C   C739      1.0  0.45177  0.69698  0.21398  1.0000
  S   S288      1.0  0.45654  0.73890  0.17855  1.0000
  H   H1150     1.0  0.53746  0.75421  0.15493  1.0000
  H   H1151     1.0  0.36996  0.74917  0.18209  1.0000
  C   C740      1.0  0.54587  0.78902  0.16639  1.0000
  H   H1152     1.0  0.56470  0.78924  0.16126  1.0000
  H   H1153     1.0  0.63312  0.72597  0.20236  1.0000
  C   C741      1.0  0.40838  0.74479  0.17936  1.0000
  H   H1154     1.0  0.62724  0.71545  0.24013  1.0000
  H   H1155     1.0  0.56789  0.74649  0.15844  1.0000
  C   C742      1.0  0.54875  0.74825  0.16340  1.0000
  H   H1156     1.0  0.51276  0.77780  0.18844  1.0000
  S   S289      1.0  0.41663  0.76979  0.24057  1.0000
  C   C743      1.0  0.36150  0.82671  0.17477  1.0000
  Fe  Fe144     1.0  0.44530  0.77043  0.18978  1.0000
  S   S290      1.0  0.44503  0.80755  0.17832  1.0000
  C   C744      1.0  0.38200  0.72485  0.14723  1.0000
  S   S291      1.0  0.42693  0.82482  0.20914  1.0000
  H   H1157     1.0  0.34404  0.79908  0.22667  1.0000
  H   H1158     1.0  0.40847  0.75601  0.14959  1.0000
  Fe  Fe145     1.0  0.46223  0.81184  0.19617  1.0000
  S   S292      1.0  0.49541  0.82839  0.19095  1.0000
  C   C745      1.0  0.36310  0.79879  0.15904  1.0000
  S   S293      1.0  0.46495  0.77370  0.20657  1.0000
  H   H1159     1.0  0.50961  0.70276  0.21160  1.0000
  S   S294      1.0  0.63928  0.81139  0.22311  1.0000
  C   C746      1.0  0.37421  0.80809  0.16773  1.0000
  H   H1160     1.0  0.66537  0.72572  0.15926  1.0000
  S   S295      1.0  0.63490  0.79533  0.19336  1.0000
  H   H1161     1.0  0.48382  0.69513  0.18961  1.0000
  C   C747      1.0  0.41329  0.71548  0.12808  1.0000
  Fe  Fe146     1.0  0.61886  0.78817  0.21611  1.0000
  S   S296      1.0  0.58110  0.78366  0.22563  1.0000
  N   N72       1.0  0.40037  0.73437  0.13633  1.0000
  S   S297      1.0  0.64550  0.75459  0.22112  1.0000
  S   S298      1.0  0.37533  0.83862  0.18570  1.0000
  H   H1162     1.0  0.37214  0.73845  0.15388  1.0000
  C   C748      1.0  0.51886  0.81650  0.20096  1.0000
  C   C749      1.0  0.54119  0.82341  0.19639  1.0000
  C   C750      1.0  0.56055  0.81323  0.20374  1.0000
  C   C751      1.0  0.55749  0.79645  0.21591  1.0000
  C   C752      1.0  0.53509  0.78977  0.22058  1.0000
  C   C753      1.0  0.51587  0.79965  0.21310  1.0000
  H   H1163     1.0  0.54359  0.83659  0.18707  1.0000
  H   H1164     1.0  0.57770  0.81865  0.20012  1.0000
  H   H1165     1.0  0.53258  0.77693  0.23004  1.0000
  H   H1166     1.0  0.49868  0.79450  0.21689  1.0000
  S   S299      1.0  0.40915  0.77881  0.20263  1.0000
  Fe  Fe147     1.0  0.42867  0.78606  0.21834  1.0000
  C   C754      1.0  0.48412  0.66883  0.22363  1.0000
  H   H1167     1.0  0.55470  0.76866  0.19248  1.0000
  C   C755      1.0  0.33922  0.80811  0.15719  1.0000
  H   H1168     1.0  0.50499  0.77201  0.17281  1.0000
  H   H1169     1.0  0.55751  0.73832  0.18990  1.0000
  Fe  Fe148     1.0  0.40996  0.81647  0.19229  1.0000
  C   C756      1.0  0.48981  0.70851  0.21269  1.0000
  H   H1170     1.0  0.37820  0.76925  0.13294  1.0000
  H   H1171     1.0  0.42227  0.69971  0.13488  1.0000
  H   H1172     1.0  0.40200  0.76296  0.11880  1.0000
  C   C757      1.0  0.41755  0.74208  0.14305  1.0000
  H   H1173     1.0  0.39280  0.80130  0.16873  1.0000
  C   C758      1.0  0.38866  0.75492  0.12698  1.0000
  H   H1174     1.0  0.42737  0.72198  0.11974  1.0000
  H   H1175     1.0  0.59943  0.70990  0.19802  1.0000
  C   C759      1.0  0.55890  0.75672  0.18440  1.0000
  H   H1176     1.0  0.43158  0.74960  0.13516  1.0000
  H   H1177     1.0  0.40819  0.76356  0.17831  1.0000
  H   H1178     1.0  0.40091  0.70907  0.12290  1.0000
  H   H1179     1.0  0.42682  0.72691  0.15007  1.0000
  H   H1180     1.0  0.37311  0.78443  0.15370  1.0000
  H   H1181     1.0  0.54116  0.80207  0.17382  1.0000
  H   H1182     1.0  0.37587  0.74964  0.12157  1.0000
  C   C760      1.0  0.51771  0.76557  0.18053  1.0000
  H   H1183     1.0  0.57800  0.75633  0.17962  1.0000
  C   C761      1.0  0.36155  0.85229  0.22328  1.0000
  H   H1184     1.0  0.42051  0.81892  0.23898  1.0000
  C   C762      1.0  0.48636  0.68030  0.19853  1.0000
  C   C763      1.0  0.33756  0.83606  0.17300  1.0000
  S   S300      1.0  0.55523  0.66692  0.20819  1.0000
  N   N73       1.0  0.34410  0.83608  0.22660  1.0000
  Fe  Fe149     1.0  0.66283  0.76331  0.19897  1.0000
  H   H1185     1.0  0.48365  0.71560  0.22276  1.0000
  C   C764      1.0  0.65093  0.72247  0.16770  1.0000
  N   N74       1.0  0.47801  0.68864  0.21221  1.0000
  H   H1186     1.0  0.36453  0.81201  0.21283  1.0000
  H   H1187     1.0  0.37011  0.85359  0.21209  1.0000
  H   H1188     1.0  0.37618  0.84593  0.22976  1.0000
  H   H1189     1.0  0.66242  0.67837  0.20149  1.0000
  Fe  Fe150     1.0  0.58495  0.66621  0.19004  1.0000
  H   H1190     1.0  0.48583  0.72350  0.20402  1.0000
  H   H1191     1.0  0.50572  0.67199  0.19733  1.0000
  H   H1192     1.0  0.44656  0.71217  0.20568  1.0000
  H   H1193     1.0  0.40954  0.67787  0.18062  1.0000
  H   H1194     1.0  0.44484  0.70326  0.22424  1.0000
  H   H1195     1.0  0.65826  0.67018  0.17868  1.0000
  H   H1196     1.0  0.44227  0.68258  0.21339  1.0000
  Fe  Fe151     1.0  0.65820  0.81516  0.20083  1.0000
  H   H1197     1.0  0.47634  0.66678  0.19728  1.0000
  H   H1198     1.0  0.47780  0.67431  0.23413  1.0000
  Fe  Fe152     1.0  0.66712  0.77835  0.22632  1.0000
  H   H1199     1.0  0.62101  0.92024  0.29037  1.0000
  H   H1200     1.0  0.60802  0.88723  0.49336  1.0000
  C   C765      1.0  0.64709  0.72547  0.26065  1.0000
  H   H1201     1.0  0.62633  0.69142  0.27800  1.0000
  H   H1202     1.0  0.61826  0.85190  0.43903  1.0000
  C   C766      1.0  0.52898  0.74699  0.48996  1.0000
  H   H1203     1.0  0.34548  0.95008  0.35389  1.0000
  H   H1204     1.0  0.49475  0.90109  0.48329  1.0000
  H   H1205     1.0  0.38557  0.75429  0.45235  1.0000
  H   H1206     1.0  0.49446  0.69053  0.45312  1.0000
  C   C767      1.0  0.64547  0.90997  0.46549  1.0000
  C   C768      1.0  0.39466  0.83183  0.25591  1.0000
  H   H1207     1.0  0.37404  0.72488  0.28245  1.0000
  C   C769      1.0  0.61940  0.83412  0.44587  1.0000
  H   H1208     1.0  0.45134  0.72360  0.45598  1.0000
  C   C770      1.0  0.44400  0.69774  0.47437  1.0000
  C   C771      1.0  0.45501  0.73572  0.47466  1.0000
  C   C772      1.0  0.50192  0.67106  0.45465  1.0000
  S   S301      1.0  0.34433  0.80984  0.31243  1.0000
  C   C773      1.0  0.50249  0.95590  0.46547  1.0000
  H   H1209     1.0  0.41120  0.80511  0.45674  1.0000
  C   C774      1.0  0.62465  0.90504  0.28445  1.0000
  H   H1210     1.0  0.38902  0.68284  0.27845  1.0000
  H   H1211     1.0  0.37926  0.99684  0.33443  1.0000
  C   C775      1.0  0.44295  0.69230  0.48895  1.0000
  H   H1212     1.0  0.60316  0.80349  0.46817  1.0000
  H   H1213     1.0  0.57755  0.84285  0.46290  1.0000
  H   H1214     1.0  0.66413  0.98625  0.38766  1.0000
  H   H1215     1.0  0.55094  0.67243  0.46861  1.0000
  C   C776      1.0  0.39379  0.77727  0.47997  1.0000
  H   H1216     1.0  0.45928  0.75247  0.46905  1.0000
  C   C777      1.0  0.38187  0.99122  0.41403  1.0000
  H   H1217     1.0  0.63536  0.94592  0.49010  1.0000
  S   S302      1.0  0.43610  0.67917  0.46453  1.0000
  H   H1218     1.0  0.40473  0.74119  0.46523  1.0000
  C   C778      1.0  0.45044  0.71930  0.46727  1.0000
  H   H1219     1.0  0.34681  0.82798  0.24856  1.0000
  H   H1220     1.0  0.52026  0.76611  0.48860  1.0000
  H   H1221     1.0  0.38055  0.96955  0.34648  1.0000
  H   H1222     1.0  0.60372  0.70282  0.25153  1.0000
  H   H1223     1.0  0.49681  0.98716  0.38393  1.0000
  H   H1224     1.0  0.42708  0.77502  0.45683  1.0000
  H   H1225     1.0  0.60747  0.89886  0.28525  1.0000
  C   C779      1.0  0.37073  0.67926  0.28283  1.0000
  H   H1226     1.0  0.63543  0.92577  0.44523  1.0000
  C   C780      1.0  0.49558  0.94309  0.49047  1.0000
  S   S303      1.0  0.57984  0.97529  0.41828  1.0000
  Fe  Fe153     1.0  0.62956  0.93410  0.39727  1.0000
  S   S304      1.0  0.59412  0.92357  0.40700  1.0000
  C   C781      1.0  0.53199  0.84122  0.48695  1.0000
  Fe  Fe154     1.0  0.57834  0.96145  0.39884  1.0000
  S   S305      1.0  0.54400  0.97821  0.39052  1.0000
  Fe  Fe155     1.0  0.59876  0.93841  0.42557  1.0000
  S   S306      1.0  0.58563  0.92096  0.44741  1.0000
  S   S307      1.0  0.63526  0.94662  0.41650  1.0000
  Fe  Fe156     1.0  0.40599  0.97019  0.36920  1.0000
  S   S308      1.0  0.42908  0.95216  0.38554  1.0000
  S   S309      1.0  0.42581  0.90123  0.37590  1.0000
  Fe  Fe157     1.0  0.40459  0.92568  0.39085  1.0000
  S   S310      1.0  0.39294  0.91683  0.41407  1.0000
  Fe  Fe158     1.0  0.44885  0.92918  0.36955  1.0000
  S   S311      1.0  0.48888  0.91668  0.36629  1.0000
  S   S312      1.0  0.42811  0.94974  0.35265  1.0000
  N   N75       1.0  0.64321  0.88555  0.28994  1.0000
  H   H1227     1.0  0.60550  0.82535  0.44369  1.0000
  H   H1228     1.0  0.54529  0.74530  0.48187  1.0000
  H   H1229     1.0  0.48324  0.96408  0.46536  1.0000
  N   N76       1.0  0.50553  0.93519  0.47682  1.0000
  C   C782      1.0  0.34377  0.87981  0.33214  1.0000
  Fe  Fe159     1.0  0.46081  0.84201  0.48256  1.0000
  C   C783      1.0  0.49281  0.91691  0.47485  1.0000
  H   H1230     1.0  0.50920  0.85375  0.42408  1.0000
  H   H1231     1.0  0.38282  0.76714  0.26594  1.0000
  C   C784      1.0  0.53127  0.92491  0.47656  1.0000
  H   H1232     1.0  0.36529  0.98465  0.44157  1.0000
  C   C785      1.0  0.59213  0.85113  0.46464  1.0000
  C   C786      1.0  0.39494  0.83833  0.32150  1.0000
  H   H1233     1.0  0.34562  0.98798  0.36196  1.0000
  H   H1234     1.0  0.59597  0.70611  0.27684  1.0000
  C   C787      1.0  0.50566  0.96980  0.38138  1.0000
  C   C788      1.0  0.60618  0.74467  0.25865  1.0000
  C   C789      1.0  0.40683  0.82736  0.29833  1.0000
  H   H1235     1.0  0.48519  0.84547  0.41814  1.0000
  H   H1236     1.0  0.63113  0.92257  0.36547  1.0000
  H   H1237     1.0  0.47009  0.90340  0.39455  1.0000
  H   H1238     1.0  0.37119  0.71332  0.25990  1.0000
  Fe  Fe160     1.0  0.50717  0.81037  0.47265  1.0000
  H   H1239     1.0  0.47514  0.96369  0.37403  1.0000
  H   H1240     1.0  0.46248  0.87454  0.40048  1.0000
  C   C790      1.0  0.38815  0.75430  0.46328  1.0000
  Fe  Fe161     1.0  0.46476  0.78739  0.48607  1.0000
  H   H1241     1.0  0.37737  0.83254  0.32311  1.0000
  H   H1242     1.0  0.45636  0.89582  0.41232  1.0000
  C   C791      1.0  0.40772  0.88857  0.42096  1.0000
  C   C792      1.0  0.41441  0.87033  0.41283  1.0000
  C   C793      1.0  0.42785  0.84834  0.41798  1.0000
  C   C794      1.0  0.43481  0.84464  0.43122  1.0000
  C   C795      1.0  0.42773  0.86269  0.43951  1.0000
  C   C796      1.0  0.41401  0.88461  0.43441  1.0000
  H   H1243     1.0  0.40916  0.87313  0.40257  1.0000
  H   H1244     1.0  0.43321  0.83434  0.41158  1.0000
  H   H1245     1.0  0.43301  0.85989  0.44978  1.0000
  H   H1246     1.0  0.40878  0.89866  0.44076  1.0000
  H   H1247     1.0  0.63441  0.68908  0.25263  1.0000
  Fe  Fe162     1.0  0.61570  0.98248  0.40757  1.0000
  H   H1248     1.0  0.51124  0.66633  0.44432  1.0000
  N   N77       1.0  0.35220  0.70076  0.28004  1.0000
  S   S313      1.0  0.43844  0.81861  0.47718  1.0000
  C   C797      1.0  0.42551  0.85579  0.30510  1.0000
  C   C798      1.0  0.49330  0.95646  0.37586  1.0000
  H   H1249     1.0  0.37305  0.74737  0.47052  1.0000
  H   H1250     1.0  0.61515  0.81385  0.48093  1.0000
  H   H1251     1.0  0.41851  0.95965  0.43717  1.0000
  C   C799      1.0  0.52937  0.96084  0.38356  1.0000
  C   C800      1.0  0.50470  0.93421  0.37234  1.0000
  C   C801      1.0  0.52865  0.92543  0.37422  1.0000
  C   C802      1.0  0.54090  0.93860  0.38002  1.0000
  H   H1252     1.0  0.53771  0.90841  0.37126  1.0000
  H   H1253     1.0  0.55934  0.93177  0.38150  1.0000
  C   C803      1.0  0.60570  0.91410  0.45960  1.0000
  C   C804      1.0  0.59807  0.90354  0.47330  1.0000
  C   C805      1.0  0.61411  0.89583  0.48296  1.0000
  C   C806      1.0  0.63794  0.89870  0.47904  1.0000
  C   C807      1.0  0.61740  0.81262  0.46957  1.0000
  C   C808      1.0  0.62936  0.91762  0.45575  1.0000
  H   H1254     1.0  0.57989  0.90061  0.47637  1.0000
  H   H1255     1.0  0.61542  0.71957  0.28391  1.0000
  C   C809      1.0  0.40742  0.96268  0.42867  1.0000
  H   H1256     1.0  0.36100  0.90958  0.32249  1.0000
  H   H1257     1.0  0.47874  0.86776  0.42926  1.0000
  S   S314      1.0  0.45341  0.81782  0.43689  1.0000
  N   N78       1.0  0.49347  0.87944  0.40785  1.0000
  C   C810      1.0  0.50273  0.89919  0.41109  1.0000
  C   C811      1.0  0.50993  0.86899  0.39626  1.0000
  C   C812      1.0  0.46955  0.88869  0.40365  1.0000
  C   C813      1.0  0.49161  0.86083  0.42039  1.0000
  H   H1258     1.0  0.49087  0.90720  0.41993  1.0000
  H   H1259     1.0  0.50389  0.91373  0.40190  1.0000
  H   H1260     1.0  0.52100  0.89305  0.41399  1.0000
  H   H1261     1.0  0.50345  0.85401  0.39358  1.0000
  H   H1262     1.0  0.51148  0.88238  0.38656  1.0000
  H   H1263     1.0  0.52825  0.86208  0.39897  1.0000
  H   H1264     1.0  0.66389  0.91228  0.46240  1.0000
  S   S315      1.0  0.37962  0.94564  0.37588  1.0000
  C   C814      1.0  0.35347  0.70863  0.26474  1.0000
  Fe  Fe163     1.0  0.40298  0.92386  0.36022  1.0000
  H   H1265     1.0  0.63500  0.80091  0.46691  1.0000
  H   H1266     1.0  0.54150  0.93832  0.47781  1.0000
  N   N79       1.0  0.62246  0.72148  0.26148  1.0000
  H   H1267     1.0  0.34339  0.95018  0.33600  1.0000
  H   H1268     1.0  0.38987  0.99248  0.44725  1.0000
  C   C815      1.0  0.36915  0.89632  0.34340  1.0000
  H   H1269     1.0  0.37331  0.87956  0.36456  1.0000
  N   N80       1.0  0.61594  0.83649  0.46085  1.0000
  H   H1270     1.0  0.40718  0.78806  0.44434  1.0000
  S   S316      1.0  0.66183  0.90976  0.38728  1.0000
  H   H1271     1.0  0.49982  0.91048  0.46466  1.0000
  C   C816      1.0  0.36500  0.87981  0.35555  1.0000
  H   H1272     1.0  0.49708  0.69028  0.47785  1.0000
  H   H1273     1.0  0.62290  0.76555  0.48810  1.0000
  H   H1274     1.0  0.63032  0.91199  0.27320  1.0000
  H   H1275     1.0  0.39007  0.82056  0.29900  1.0000
  C   C817      1.0  0.50481  0.67088  0.47883  1.0000
  C   C818      1.0  0.35820  0.89652  0.33181  1.0000
  H   H1276     1.0  0.63262  0.85026  0.47451  1.0000
  H   H1277     1.0  0.41275  0.83337  0.28697  1.0000
  C   C819      1.0  0.64750  0.91107  0.36173  1.0000
  C   C820      1.0  0.40960  0.78696  0.45543  1.0000
  H   H1278     1.0  0.42057  0.81207  0.30209  1.0000
  C   C821      1.0  0.56621  0.81213  0.49394  1.0000
  H   H1279     1.0  0.36672  0.86108  0.30279  1.0000
  S   S317      1.0  0.54655  0.80375  0.47267  1.0000
  N   N81       1.0  0.38964  0.77835  0.46545  1.0000
  H   H1280     1.0  0.51658  0.66659  0.48705  1.0000
  H   H1281     1.0  0.42318  0.87059  0.31122  1.0000
  Fe  Fe164     1.0  0.46489  0.81738  0.45744  1.0000
  H   H1282     1.0  0.41917  0.95645  0.41924  1.0000
  C   C822      1.0  0.36698  0.79496  0.46311  1.0000
  N   N82       1.0  0.40291  0.84701  0.30653  1.0000
  C   C823      1.0  0.62199  0.70655  0.25100  1.0000
  H   H1283     1.0  0.37020  0.67277  0.29429  1.0000
  C   C824      1.0  0.37753  0.82604  0.26744  1.0000
  H   H1284     1.0  0.36774  0.98008  0.41682  1.0000
  H   H1285     1.0  0.53424  0.90950  0.48516  1.0000
  S   S318      1.0  0.38860  0.91645  0.34191  1.0000
  C   C825      1.0  0.35621  0.72001  0.28666  1.0000
  S   S319      1.0  0.48974  0.78486  0.46590  1.0000
  H   H1286     1.0  0.39792  0.84990  0.25303  1.0000
  H   H1287     1.0  0.38909  0.87270  0.28968  1.0000
  H   H1288     1.0  0.59032  0.86922  0.45819  1.0000
  H   H1289     1.0  0.53938  0.91852  0.46644  1.0000
  C   C826      1.0  0.38439  0.86668  0.30115  1.0000
  H   H1290     1.0  0.35072  0.69432  0.25947  1.0000
  H   H1291     1.0  0.39265  0.85252  0.32804  1.0000
  H   H1292     1.0  0.36048  0.79800  0.28021  1.0000
  H   H1293     1.0  0.51635  0.73676  0.48772  1.0000
  H   H1294     1.0  0.51164  0.97013  0.46682  1.0000
  H   H1295     1.0  0.51821  0.84741  0.48036  1.0000
  C   C827      1.0  0.33998  0.86294  0.34416  1.0000
  S   S320      1.0  0.48531  0.84295  0.46185  1.0000
  H   H1296     1.0  0.63730  0.91190  0.34161  1.0000
  H   H1297     1.0  0.36330  0.79617  0.45226  1.0000
  H   H1298     1.0  0.38198  0.88238  0.30647  1.0000
  C   C828      1.0  0.35037  0.86320  0.35592  1.0000
  H   H1299     1.0  0.51016  0.95074  0.45499  1.0000
  S   S321      1.0  0.61329  0.97081  0.38751  1.0000
  H   H1300     1.0  0.35525  0.71463  0.29824  1.0000
  H   H1301     1.0  0.33545  0.88002  0.32314  1.0000
  S   S322      1.0  0.44558  0.87895  0.48823  1.0000
  H   H1302     1.0  0.63416  0.86617  0.45690  1.0000
  C   C829      1.0  0.38623  0.78515  0.26318  1.0000
  H   H1303     1.0  0.40802  0.82289  0.32580  1.0000
  C   C830      1.0  0.63475  0.84810  0.46331  1.0000
  S   S323      1.0  0.65837  0.88741  0.49091  1.0000
  H   H1304     1.0  0.58884  0.85338  0.47588  1.0000
  C   C831      1.0  0.37230  0.97985  0.33730  1.0000
  H   H1305     1.0  0.43993  0.84137  0.30900  1.0000
  C   C832      1.0  0.40276  0.79115  0.25133  1.0000
  H   H1306     1.0  0.63723  0.82325  0.44260  1.0000
  H   H1307     1.0  0.47616  0.95093  0.49108  1.0000
  H   H1308     1.0  0.36760  0.81332  0.46459  1.0000
  C   C833      1.0  0.45312  0.73083  0.48926  1.0000
  S   S324      1.0  0.36031  0.84855  0.27651  1.0000
  H   H1309     1.0  0.35149  0.78914  0.47053  1.0000
  H   H1310     1.0  0.43191  0.86266  0.29394  1.0000
  H   H1311     1.0  0.50468  0.95704  0.49217  1.0000
  H   H1312     1.0  0.57858  0.79548  0.49298  1.0000
  H   H1313     1.0  0.37902  0.96934  0.32856  1.0000
  C   C834      1.0  0.37356  0.80261  0.27123  1.0000
  H   H1314     1.0  0.34736  0.85027  0.36529  1.0000
  H   H1315     1.0  0.61811  0.87003  0.30634  1.0000
  H   H1316     1.0  0.47325  0.92392  0.47516  1.0000
  S   S325      1.0  0.48418  0.81080  0.49371  1.0000
  H   H1317     1.0  0.53217  0.69677  0.45925  1.0000
  C   C835      1.0  0.54861  0.82019  0.48528  1.0000
  S   S326      1.0  0.61468  0.71795  0.49279  1.0000
  H   H1318     1.0  0.60586  0.75630  0.26644  1.0000
  H   H1319     1.0  0.39465  0.79516  0.48207  1.0000
  H   H1320     1.0  0.58751  0.74232  0.25892  1.0000
  C   C836      1.0  0.63506  0.87688  0.30488  1.0000
  C   C837      1.0  0.40725  0.81439  0.24785  1.0000
  C   C838      1.0  0.61462  0.70914  0.27569  1.0000
  H   H1321     1.0  0.39384  0.95094  0.43212  1.0000
  H   H1322     1.0  0.63208  0.89124  0.31139  1.0000
  H   H1323     1.0  0.41098  0.76528  0.48204  1.0000
  H   H1324     1.0  0.37934  0.77039  0.48783  1.0000
  H   H1325     1.0  0.43793  0.67572  0.49453  1.0000
  C   C839      1.0  0.53843  0.67709  0.46074  1.0000
  H   H1326     1.0  0.64795  0.73733  0.26811  1.0000
  H   H1327     1.0  0.39341  0.98585  0.40433  1.0000
  H   H1328     1.0  0.65401  0.73407  0.24999  1.0000
  H   H1329     1.0  0.43289  0.92531  0.49614  1.0000
  H   H1330     1.0  0.66107  0.95370  0.36773  1.0000
  H   H1331     1.0  0.65296  0.83753  0.46061  1.0000
  H   H1332     1.0  0.34240  0.73647  0.28490  1.0000
  N   N83       1.0  0.39592  0.98802  0.42558  1.0000
  C   C840      1.0  0.65104  0.90499  0.34821  1.0000
  H   H1333     1.0  0.61175  0.75461  0.24808  1.0000
  H   H1334     1.0  0.33947  0.72461  0.26228  1.0000
  C   C841      1.0  0.33771  0.96103  0.34463  1.0000
  C   C842      1.0  0.53323  0.85446  0.49712  1.0000
  H   H1335     1.0  0.64865  0.86215  0.30937  1.0000
  H   H1336     1.0  0.63102  0.85847  0.28250  1.0000
  C   C843      1.0  0.66509  0.90211  0.37036  1.0000
  N   N84       1.0  0.34590  0.98414  0.34062  1.0000
  H   H1337     1.0  0.54899  0.67236  0.45064  1.0000
  H   H1338     1.0  0.65970  0.70845  0.26328  1.0000
  H   H1339     1.0  0.65472  0.98563  0.36412  1.0000
  H   H1340     1.0  0.65825  0.97272  0.49644  1.0000
  H   H1341     1.0  0.34129  0.98794  0.31909  1.0000
  H   H1342     1.0  0.65396  0.87162  0.27050  1.0000
  C   C844      1.0  0.64751  0.86577  0.28180  1.0000
  H   H1343     1.0  0.45048  0.99520  0.49566  1.0000
  H   H1344     1.0  0.66150  0.85078  0.28562  1.0000
  C   C845      1.0  0.66562  0.89460  0.28863  1.0000
  C   C846      1.0  0.44747  0.70888  0.49638  1.0000
  S   S327      1.0  0.66566  0.71629  0.29568  1.0000
  H   H1345     1.0  0.66318  0.90938  0.29476  1.0000
  C   C847      1.0  0.37988  0.99518  0.43825  1.0000
  N   N85       1.0  0.51811  0.66436  0.46532  1.0000
  H   H1346     1.0  0.36811  0.66433  0.27806  1.0000
  Fe  Fe165     1.0  0.64064  0.86599  0.50996  1.0000
  H   H1347     1.0  0.44599  0.70491  0.50770  1.0000
  H   H1348     1.0  0.60713  0.96228  0.52496  1.0000
  H   H1349     1.0  0.63474  0.78936  0.50308  1.0000
  S   S328      1.0  0.59491  0.66461  0.52088  1.0000
  C   C848      1.0  0.65968  0.92917  0.51182  1.0000
  S   S329      1.0  0.60916  0.88577  0.52258  1.0000
  C   C849      1.0  0.56261  0.98702  0.55126  1.0000
  H   H1350     1.0  0.63338  0.73093  0.53719  1.0000
  Fe  Fe166     1.0  0.62365  0.86281  0.54118  1.0000
  H   H1351     1.0  0.55453  0.90007  0.53140  1.0000
  C   C850      1.0  0.55114  0.75347  0.50685  1.0000
  C   C851      1.0  0.62428  0.72497  0.51799  1.0000
  H   H1352     1.0  0.54235  0.77260  0.50617  1.0000
  Fe  Fe167     1.0  0.59132  0.85585  0.52187  1.0000
  S   S330      1.0  0.62162  0.83780  0.50759  1.0000
  C   C852      1.0  0.65446  0.66793  0.53748  1.0000
  C   C853      1.0  0.51281  0.74123  0.51458  1.0000
  H   H1353     1.0  0.52670  0.86652  0.56491  1.0000
  H   H1354     1.0  0.61318  0.92483  0.57131  1.0000
  H   H1355     1.0  0.59863  0.96706  0.55076  1.0000
  C   C854      1.0  0.63794  0.90354  0.55726  1.0000
  Fe  Fe168     1.0  0.51734  0.98061  0.53598  1.0000
  S   S331      1.0  0.48485  0.97460  0.55160  1.0000
  S   S332      1.0  0.55524  0.97018  0.54033  1.0000
  Fe  Fe169     1.0  0.47474  0.95881  0.53477  1.0000
  S   S333      1.0  0.46884  0.92074  0.53829  1.0000
  H   H1356     1.0  0.52298  0.91160  0.53323  1.0000
  S   S334      1.0  0.50869  0.96246  0.52015  1.0000
  C   C855      1.0  0.55114  0.84672  0.50557  1.0000
  C   C856      1.0  0.58594  0.98202  0.55434  1.0000
  C   C857      1.0  0.64469  0.94021  0.56300  1.0000
  H   H1357     1.0  0.60832  0.95991  0.50004  1.0000
  C   C858      1.0  0.54715  0.71352  0.50559  1.0000
  C   C859      1.0  0.64669  0.97183  0.50689  1.0000
  H   H1358     1.0  0.63125  0.98698  0.50618  1.0000
  N   N86       1.0  0.63859  0.94871  0.51115  1.0000
  S   S335      1.0  0.60246  0.83444  0.54176  1.0000
  S   S336      1.0  0.64493  0.77775  0.53168  1.0000
  S   S337      1.0  0.55381  0.86451  0.51732  1.0000
  C   C860      1.0  0.62453  0.94565  0.50076  1.0000
  H   H1359     1.0  0.51667  0.73550  0.52552  1.0000
  C   C861      1.0  0.46732  0.87576  0.51162  1.0000
  C   C862      1.0  0.47232  0.88535  0.52262  1.0000
  C   C863      1.0  0.46340  0.90940  0.52398  1.0000
  C   C864      1.0  0.44951  0.92382  0.51424  1.0000
  C   C865      1.0  0.66007  0.90126  0.54852  1.0000
  H   H1360     1.0  0.47431  0.85723  0.51067  1.0000
  H   H1361     1.0  0.48314  0.87405  0.53009  1.0000
  H   H1362     1.0  0.44230  0.94228  0.51528  1.0000
  N   N87       1.0  0.53502  0.73879  0.50427  1.0000
  H   H1363     1.0  0.61769  0.93079  0.52893  1.0000
  H   H1364     1.0  0.62118  0.70712  0.52214  1.0000
  N   N88       1.0  0.53680  0.89871  0.55269  1.0000
  C   C866      1.0  0.51881  0.91450  0.56118  1.0000
  C   C867      1.0  0.56005  0.89444  0.55776  1.0000
  C   C868      1.0  0.53946  0.91023  0.53786  1.0000
  H   H1365     1.0  0.50113  0.91830  0.55749  1.0000
  H   H1366     1.0  0.52435  0.93191  0.56052  1.0000
  H   H1367     1.0  0.51616  0.90630  0.57242  1.0000
  H   H1368     1.0  0.55881  0.88619  0.56900  1.0000
  H   H1369     1.0  0.56687  0.91134  0.55658  1.0000
  H   H1370     1.0  0.57389  0.88218  0.55176  1.0000
  H   H1371     1.0  0.54336  0.92839  0.53668  1.0000
  H   H1372     1.0  0.55668  0.74746  0.51740  1.0000
  S   S338      1.0  0.61984  0.88200  0.55953  1.0000
  C   C869      1.0  0.63145  0.77164  0.50736  1.0000
  C   C870      1.0  0.62358  0.94821  0.52512  1.0000
  H   H1373     1.0  0.54213  0.86354  0.54749  1.0000
  C   C871      1.0  0.52893  0.87578  0.55386  1.0000
  C   C872      1.0  0.63109  0.73846  0.52647  1.0000
  H   H1374     1.0  0.63862  0.95518  0.56859  1.0000
  H   H1375     1.0  0.51150  0.87850  0.54996  1.0000
  H   H1376     1.0  0.58035  0.81863  0.51124  1.0000
  C   C873      1.0  0.59303  0.99639  0.56204  1.0000
  C   C874      1.0  0.63032  0.92298  0.56454  1.0000
  C   C875      1.0  0.44414  0.91413  0.50343  1.0000
  H   H1377     1.0  0.50294  0.76004  0.51366  1.0000
  H   H1378     1.0  0.65428  0.91151  0.51568  1.0000
  C   C876      1.0  0.63480  0.76181  0.52116  1.0000
  H   H1379     1.0  0.50035  0.73020  0.51297  1.0000
  S   S339      1.0  0.65015  0.99685  0.58211  1.0000
  H   H1380     1.0  0.64689  0.68576  0.54057  1.0000
  H   H1381     1.0  0.61847  0.92824  0.50354  1.0000
  H   H1382     1.0  0.49770  0.92802  0.49935  1.0000
  C   C877      1.0  0.62165  0.73464  0.50407  1.0000
  Fe  Fe170     1.0  0.63440  0.81803  0.52756  1.0000
  S   S340      1.0  0.45377  0.99368  0.52511  1.0000
  H   H1383     1.0  0.53560  0.70194  0.50358  1.0000
  S   S341      1.0  0.65691  0.84474  0.52867  1.0000
  H   H1384     1.0  0.56779  0.75249  0.49898  1.0000
  C   C878      1.0  0.62493  0.75807  0.49885  1.0000
  C   C879      1.0  0.45289  0.89006  0.50210  1.0000
  Fe  Fe171     1.0  0.61316  0.67894  0.49975  1.0000
  H   H1385     1.0  0.63354  0.95099  0.53312  1.0000
  H   H1386     1.0  0.61108  0.99243  0.56436  1.0000
  S   S342      1.0  0.45668  0.75238  0.49874  1.0000
  H   H1387     1.0  0.52041  0.87072  0.49843  1.0000
  H   H1388     1.0  0.55176  0.70665  0.51631  1.0000
  H   H1389     1.0  0.65729  0.97474  0.51455  1.0000
  H   H1390     1.0  0.66619  0.88615  0.54301  1.0000
  C   C880      1.0  0.56733  0.82533  0.50419  1.0000
  C   C881      1.0  0.66698  0.93771  0.55442  1.0000
  H   H1391     1.0  0.56412  0.71113  0.49805  1.0000
  H   H1392     1.0  0.66695  0.68173  0.51007  1.0000
  H   H1393     1.0  0.64238  0.66428  0.53093  1.0000
  S   S343      1.0  0.89656  0.30959  0.00802  1.0000
  S   S344      1.0  0.95065  0.10764  0.01161  1.0000
  H   H1394     1.0  0.99744  0.11776  0.00653  1.0000
  H   H1395     1.0  0.84771  0.15093  0.02985  1.0000
  H   H1396     1.0  0.91042  0.15153  0.99898  1.0000
  C   C882      1.0  0.85730  0.14572  0.01967  1.0000
  C   C883      1.0  0.93393  0.21822  0.00757  1.0000
  S   S345      1.0  0.89364  0.07930  0.01751  1.0000
  C   C884      1.0  0.90676  0.00735  0.02910  1.0000
  C   C885      1.0  0.89027  0.04940  0.02252  1.0000
  C   C886      1.0  0.90963  0.03130  0.02583  1.0000
  S   S346      1.0  0.92568  0.23994  0.01871  1.0000
  H   H1397     1.0  0.98059  0.25153  0.02673  1.0000
  C   C887      1.0  0.86799  0.04358  0.02278  1.0000
  H   H1398     1.0  0.92674  0.03571  0.02599  1.0000
  C   C888      1.0  0.86518  0.01971  0.02591  1.0000
  H   H1399     1.0  0.85294  0.05750  0.02031  1.0000
  S   S347      1.0  0.94792  0.29692  0.01918  1.0000
  H   H1400     1.0  0.86823  0.18610  0.02453  1.0000
  C   C889      1.0  0.94029  0.19410  0.01333  1.0000
  C   C890      1.0  0.89249  0.14648  0.00212  1.0000
  H   H1401     1.0  0.94044  0.18909  0.02450  1.0000
  H   H1402     1.0  0.95197  0.15798  0.00916  1.0000
  H   H1403     1.0  0.85976  0.12590  0.02082  1.0000
  Fe  Fe172     1.0  0.98281  0.07974  0.00615  1.0000
  H   H1404     1.0  0.99752  0.19451  0.01309  1.0000
  H   H1405     1.0  0.92711  0.02525  0.99839  1.0000
  C   C891      1.0  0.99514  0.20790  0.02016  1.0000
  C   C892      1.0  0.89581  0.14254  0.02660  1.0000
  H   H1406     1.0  0.88728  0.14742  0.03703  1.0000
  C   C893      1.0  0.88456  0.00154  0.02899  1.0000
  C   C894      1.0  0.99127  0.24006  0.00064  1.0000
  H   H1407     1.0  0.97180  0.24553  0.00419  1.0000
  H   H1408     1.0  0.84544  0.15348  0.01160  1.0000
  H   H1409     1.0  0.84799  0.01529  0.02585  1.0000
  Fe  Fe173     1.0  0.93016  0.08333  0.00596  1.0000
  Fe  Fe174     1.0  0.92725  0.27836  0.00904  1.0000
  Fe  Fe175     1.0  0.91934  0.32934  0.01596  1.0000
  H   H1410     1.0  0.89923  0.12270  0.02773  1.0000
  H   H1411     1.0  0.97572  0.21206  0.02439  1.0000
  S   S348      1.0  0.96179  0.05391  0.00270  1.0000
  H   H1412     1.0  0.91349  0.14823  0.02400  1.0000
  H   H1413     1.0  0.89511  0.12684  0.00262  1.0000
  H   H1414     1.0  0.88638  0.99985  0.99824  1.0000
  N   N89       1.0  0.88057  0.15370  0.01570  1.0000
  C   C895      1.0  0.87674  0.17996  0.01441  1.0000
  H   H1415     1.0  0.89398  0.18652  0.01114  1.0000
  C   C896      1.0  0.94664  0.17642  0.00467  1.0000
  H   H1416     1.0  0.86509  0.18896  0.00639  1.0000
  C   C897      1.0  0.99994  0.24707  0.02239  1.0000
  Fe  Fe176     1.0  0.96412  0.30945  0.99727  1.0000
  H   H1417     1.0  0.69659  0.28382  0.43843  1.0000
  C   C898      1.0  0.68711  0.28732  0.44898  1.0000
  H   H1418     1.0  0.69842  0.27690  0.45689  1.0000
  H   H1419     1.0  0.68601  0.30662  0.44928  1.0000
  H   H1420     1.0  0.68473  0.00861  0.36636  1.0000
  H   H1421     1.0  0.67586  0.24401  0.45916  1.0000
  H   H1422     1.0  0.67361  0.25113  0.44076  1.0000
  Fe  Fe177     1.0  0.89441  0.14903  0.69530  1.0000
  S   S349      1.0  0.86132  0.16153  0.70983  1.0000
  Fe  Fe178     1.0  0.91461  0.11643  0.67395  1.0000
  S   S350      1.0  0.90801  0.08648  0.66475  1.0000
  S   S351      1.0  0.88977  0.15171  0.67295  1.0000
  Fe  Fe179     1.0  0.75430  0.11112  0.62369  1.0000
  S   S352      1.0  0.74058  0.14856  0.62805  1.0000
  S   S353      1.0  0.74039  0.10533  0.60477  1.0000
  Fe  Fe180     1.0  0.78096  0.09808  0.64908  1.0000
  S   S354      1.0  0.76834  0.13391  0.65569  1.0000
  S   S355      1.0  0.80443  0.07014  0.66221  1.0000
  Fe  Fe181     1.0  0.73311  0.13145  0.65038  1.0000
  S   S356      1.0  0.69645  0.13936  0.66262  1.0000
  Fe  Fe182     1.0  0.77724  0.14728  0.63270  1.0000
  S   S357      1.0  0.79894  0.17616  0.62553  1.0000
  S   S358      1.0  0.74466  0.09399  0.64595  1.0000
  S   S359      1.0  0.79213  0.11144  0.62626  1.0000
  C   C899      1.0  0.87635  0.11216  0.74369  1.0000
  H   H1423     1.0  0.83682  0.14942  0.64350  1.0000
  N   N90       1.0  0.87347  0.24258  0.67996  1.0000
  S   S360      1.0  0.98074  0.12373  0.70053  1.0000
  S   S361      1.0  0.91694  0.11233  0.69686  1.0000
  H   H1424     1.0  0.88983  0.17485  0.73073  1.0000
  H   H1425     1.0  0.79510  0.25637  0.63497  1.0000
  H   H1426     1.0  0.87174  0.20527  0.68520  1.0000
  C   C900      1.0  0.90545  0.30924  0.66318  1.0000
  H   H1427     1.0  0.82142  0.07446  0.72280  1.0000
  C   C901      1.0  0.70161  0.10803  0.55525  1.0000
  C   C902      1.0  0.73586  0.11961  0.69352  1.0000
  H   H1428     1.0  0.88858  0.07176  0.69554  1.0000
  C   C903      1.0  0.83432  0.06529  0.71473  1.0000
  Fe  Fe183     1.0  0.67369  0.02296  0.58213  1.0000
  C   C904      1.0  0.84897  0.10152  0.70423  1.0000
  C   C905      1.0  0.86114  0.16443  0.61851  1.0000
  C   C906      1.0  0.70504  0.04326  0.60250  1.0000
  C   C907      1.0  0.69985  0.06534  0.59397  1.0000
  C   C908      1.0  0.71041  0.08431  0.59512  1.0000
  C   C909      1.0  0.72624  0.08141  0.60475  1.0000
  C   C910      1.0  0.73085  0.05960  0.61364  1.0000
  H   H1429     1.0  0.68807  0.12517  0.61760  1.0000
  H   H1430     1.0  0.68771  0.06774  0.58648  1.0000
  H   H1431     1.0  0.70623  0.10144  0.58862  1.0000
  H   H1432     1.0  0.99848  0.11032  0.67288  1.0000
  H   H1433     1.0  0.67677  0.08511  0.62027  1.0000
  C   C911      1.0  0.78509  0.20170  0.63297  1.0000
  C   C912      1.0  0.76246  0.20280  0.64118  1.0000
  C   C913      1.0  0.75147  0.22339  0.64701  1.0000
  H   H1434     1.0  0.70351  0.26641  0.71326  1.0000
  H   H1435     1.0  0.84174  0.26956  0.68281  1.0000
  C   C914      1.0  0.79687  0.22102  0.63078  1.0000
  H   H1436     1.0  0.75325  0.18798  0.64285  1.0000
  H   H1437     1.0  0.70253  0.29811  0.70812  1.0000
  N   N91       1.0  0.72631  0.09587  0.55071  1.0000
  H   H1438     1.0  0.81435  0.22025  0.62442  1.0000
  S   S362      1.0  0.69552  0.01697  0.56129  1.0000
  C   C915      1.0  0.70195  0.19573  0.67966  1.0000
  C   C916      1.0  0.70713  0.17781  0.67117  1.0000
  C   C917      1.0  0.68984  0.16428  0.67116  1.0000
  H   H1439     1.0  0.76208  0.09534  0.55410  1.0000
  C   C918      1.0  0.98049  0.20435  0.67165  1.0000
  H   H1440     1.0  0.71563  0.20542  0.68019  1.0000
  H   H1441     1.0  0.72468  0.17398  0.66502  1.0000
  H   H1442     1.0  0.89079  0.13378  0.64520  1.0000
  H   H1443     1.0  0.75329  0.25086  0.69736  1.0000
  C   C919      1.0  0.85879  0.14275  0.72605  1.0000
  C   C920      1.0  0.87979  0.19174  0.73434  1.0000
  H   H1444     1.0  0.75229  0.29395  0.68988  1.0000
  C   C921      1.0  0.87882  0.12713  0.73066  1.0000
  H   H1445     1.0  0.82078  0.15528  0.73082  1.0000
  H   H1446     1.0  0.89628  0.12684  0.72433  1.0000
  C   C922      1.0  0.87893  0.08349  0.66347  1.0000
  C   C923      1.0  0.87575  0.06157  0.66106  1.0000
  C   C924      1.0  0.85285  0.05778  0.66065  1.0000
  C   C925      1.0  0.83297  0.07617  0.66208  1.0000
  C   C926      1.0  0.83606  0.09839  0.66424  1.0000
  C   C927      1.0  0.85901  0.10191  0.66521  1.0000
  H   H1447     1.0  0.89103  0.04724  0.65977  1.0000
  H   H1448     1.0  0.85057  0.04056  0.65907  1.0000
  H   H1449     1.0  0.82067  0.11259  0.66552  1.0000
  H   H1450     1.0  0.86125  0.11875  0.66728  1.0000
  H   H1451     1.0  0.73379  0.22433  0.65317  1.0000
  C   C928      1.0  0.96502  0.19541  0.66559  1.0000
  H   H1452     1.0  0.84959  0.18230  0.61620  1.0000
  H   H1453     1.0  0.96539  0.17643  0.66739  1.0000
  C   C929      1.0  0.78592  0.24155  0.63668  1.0000
  S   S363      1.0  0.92682  0.19970  0.65225  1.0000
  H   H1454     1.0  0.69605  0.10331  0.56672  1.0000
  H   H1455     1.0  0.73288  0.15361  0.70890  1.0000
  H   H1456     1.0  0.87217  0.19767  0.63046  1.0000
  H   H1457     1.0  0.70698  0.27590  0.67437  1.0000
  N   N92       1.0  0.86908  0.16094  0.63232  1.0000
  H   H1458     1.0  0.85563  0.08367  0.73090  1.0000
  C   C930      1.0  0.84787  0.16297  0.64336  1.0000
  C   C931      1.0  0.94855  0.23551  0.65526  1.0000
  C   C932      1.0  0.94878  0.21096  0.65758  1.0000
  H   H1459     1.0  0.83894  0.04612  0.71932  1.0000
  C   C933      1.0  0.68530  0.12296  0.62926  1.0000
  H   H1460     1.0  0.91457  0.20163  0.74554  1.0000
  H   H1461     1.0  0.87406  0.12264  0.63517  1.0000
  H   H1462     1.0  0.87348  0.05555  0.72745  1.0000
  H   H1463     1.0  0.85025  0.15099  0.61815  1.0000
  H   H1464     1.0  0.87657  0.16297  0.60986  1.0000
  H   H1465     1.0  0.86320  0.22119  0.69976  1.0000
  H   H1466     1.0  0.72423  0.02355  0.61921  1.0000
  H   H1467     1.0  0.66867  0.09741  0.50628  1.0000
  H   H1468     1.0  0.83600  0.18078  0.64161  1.0000
  H   H1469     1.0  0.96345  0.26354  0.65991  1.0000
  C   C934      1.0  0.87016  0.31200  0.74142  1.0000
  H   H1470     1.0  0.68934  0.29636  0.68550  1.0000
  C   C935      1.0  0.73650  0.10614  0.71832  1.0000
  Fe  Fe184     1.0  0.92331  0.16671  0.66781  1.0000
  C   C936      1.0  0.87202  0.24372  0.66498  1.0000
  H   H1471     1.0  0.74113  0.08713  0.71681  1.0000
  H   H1472     1.0  0.89919  0.17842  0.62418  1.0000
  H   H1473     1.0  0.74307  0.05719  0.62110  1.0000
  C   C937      1.0  0.72024  0.04056  0.61251  1.0000
  H   H1474     1.0  0.86374  0.06326  0.69061  1.0000
  S   S364      1.0  0.92551  0.16759  0.69016  1.0000
  H   H1475     1.0  0.85302  0.16050  0.65394  1.0000
  H   H1476     1.0  0.88810  0.20656  0.72773  1.0000
  C   C938      1.0  0.96399  0.24450  0.66143  1.0000
  H   H1477     1.0  0.90367  0.28895  0.64739  1.0000
  C   C939      1.0  0.88417  0.13700  0.63495  1.0000
  H   H1478     1.0  0.88046  0.22652  0.66129  1.0000
  C   C940      1.0  0.86072  0.26531  0.68461  1.0000
  H   H1479     1.0  0.72538  0.13047  0.68532  1.0000
  H   H1480     1.0  0.69044  0.26460  0.69068  1.0000
  H   H1481     1.0  0.86921  0.28050  0.67877  1.0000
  H   H1482     1.0  0.89077  0.29610  0.72384  1.0000
  H   H1483     1.0  0.74410  0.24995  0.68107  1.0000
  H   H1484     1.0  0.68817  0.12309  0.70122  1.0000
  H   H1485     1.0  0.70292  0.11451  0.63256  1.0000
  H   H1486     1.0  0.72404  0.06465  0.56642  1.0000
  H   H1487     1.0  0.75066  0.09277  0.53141  1.0000
  H   H1488     1.0  0.70672  0.14752  0.72096  1.0000
  S   S365      1.0  0.79621  0.30622  0.62662  1.0000
  H   H1489     1.0  0.72511  0.31364  0.68581  1.0000
  C   C941      1.0  0.97996  0.22887  0.66962  1.0000
  H   H1490     1.0  0.88942  0.17732  0.64264  1.0000
  H   H1491     1.0  0.93587  0.24762  0.64917  1.0000
  H   H1492     1.0  0.82490  0.06631  0.70567  1.0000
  C   C942      1.0  0.73739  0.25295  0.69209  1.0000
  C   C943      1.0  0.74879  0.32240  0.71604  1.0000
  C   C944      1.0  0.89316  0.32677  0.67121  1.0000
  H   H1493     1.0  0.69172  0.32770  0.56485  1.0000
  H   H1494     1.0  0.86483  0.11028  0.70070  1.0000
  H   H1495     1.0  0.74219  0.12366  0.55466  1.0000
  S   S366      1.0  0.99902  0.23974  0.67761  1.0000
  C   C945      1.0  0.88305  0.17938  0.63240  1.0000
  C   C946      1.0  0.67456  0.08434  0.63182  1.0000
  H   H1496     1.0  0.71551  0.06307  0.55008  1.0000
  H   H1497     1.0  0.68054  0.14103  0.63236  1.0000
  C   C947      1.0  0.71644  0.14597  0.71017  1.0000
  N   N93       1.0  0.85593  0.07615  0.71032  1.0000
  H   H1498     1.0  0.68077  0.09838  0.65526  1.0000
  S   S367      1.0  0.94824  0.13166  0.66670  1.0000
  H   H1499     1.0  0.90018  0.13469  0.62672  1.0000
  Fe  Fe185     1.0  0.94831  0.13116  0.68957  1.0000
  H   H1500     1.0  0.71973  0.09565  0.52994  1.0000
  C   C948      1.0  0.86781  0.07442  0.72262  1.0000
  C   C949      1.0  0.86239  0.22270  0.68840  1.0000
  C   C950      1.0  0.73219  0.10166  0.53528  1.0000
  C   C951      1.0  0.74326  0.10401  0.55740  1.0000
  C   C952      1.0  0.69965  0.11206  0.70894  1.0000
  H   H1501     1.0  0.87909  0.04441  0.70407  1.0000
  H   H1502     1.0  0.86113  0.19424  0.73217  1.0000
  H   H1503     1.0  0.88408  0.08265  0.71970  1.0000
  H   H1504     1.0  0.85317  0.24833  0.66293  1.0000
  H   H1505     1.0  0.73955  0.09966  0.56905  1.0000
  H   H1506     1.0  0.84326  0.22509  0.68717  1.0000
  H   H1507     1.0  0.83985  0.10348  0.69496  1.0000
  C   C953      1.0  0.89885  0.23856  0.68183  1.0000
  H   H1508     1.0  0.72735  0.23847  0.69729  1.0000
  H   H1509     1.0  0.86096  0.26491  0.69594  1.0000
  C   C954      1.0  0.70119  0.27853  0.68553  1.0000
  H   H1510     1.0  0.69971  0.12776  0.55267  1.0000
  S   S368      1.0  0.69283  0.01887  0.60078  1.0000
  H   H1511     1.0  0.83667  0.11182  0.71202  1.0000
  C   C955      1.0  0.76309  0.24286  0.64466  1.0000
  H   H1512     1.0  0.88148  0.25751  0.65819  1.0000
  C   C956      1.0  0.89387  0.30206  0.65383  1.0000
  S   S369      1.0  0.67826  0.07363  0.53380  1.0000
  H   H1513     1.0  0.74650  0.06003  0.55142  1.0000
  H   H1514     1.0  0.90903  0.22156  0.67846  1.0000
  H   H1515     1.0  0.70483  0.15746  0.70272  1.0000
  H   H1516     1.0  0.69206  0.07536  0.63521  1.0000
  H   H1517     1.0  0.99224  0.19227  0.67832  1.0000
  C   C957      1.0  0.72819  0.06978  0.55485  1.0000
  C   C958      1.0  0.85733  0.32903  0.66098  1.0000
  C   C959      1.0  0.86970  0.31169  0.65284  1.0000
  H   H1518     1.0  0.68902  0.11250  0.71963  1.0000
  H   H1519     1.0  0.74047  0.10099  0.69127  1.0000
  H   H1520     1.0  0.86322  0.32840  0.73494  1.0000
  C   C960      1.0  0.87257  0.06334  0.69970  1.0000
  Fe  Fe186     1.0  0.97551  0.26614  0.69056  1.0000
  S   S370      1.0  0.97677  0.30522  0.68602  1.0000
  Fe  Fe187     1.0  0.93902  0.26995  0.71700  1.0000
  S   S371      1.0  0.93769  0.30916  0.71479  1.0000
  H   H1521     1.0  0.90782  0.25315  0.67548  1.0000
  Fe  Fe188     1.0  0.93665  0.30953  0.69206  1.0000
  S   S372      1.0  0.93542  0.27068  0.69466  1.0000
  S   S373      1.0  0.97902  0.26135  0.71327  1.0000
  S   S374      1.0  0.67457  0.21705  0.70152  1.0000
  C   C961      1.0  0.89549  0.27278  0.74342  1.0000
  Fe  Fe189     1.0  0.76876  0.29911  0.64557  1.0000
  H   H1522     1.0  0.68844  0.10293  0.55005  1.0000
  C   C962      1.0  0.88594  0.29379  0.73514  1.0000
  Fe  Fe190     1.0  0.81579  0.31602  0.64175  1.0000
  S   S375      1.0  0.85508  0.30069  0.64201  1.0000
  S   S376      1.0  0.78964  0.30610  0.66081  1.0000
  S   S377      1.0  0.74873  0.26866  0.65176  1.0000
  Fe  Fe191     1.0  0.97760  0.30085  0.70915  1.0000
  H   H1523     1.0  0.74152  0.29402  0.67397  1.0000
  S   S378      1.0  0.74726  0.30459  0.73264  1.0000
  C   C963      1.0  0.67954  0.19987  0.68811  1.0000
  H   H1524     1.0  0.72938  0.27902  0.71287  1.0000
  H   H1525     1.0  0.70320  0.09333  0.70698  1.0000
  H   H1526     1.0  0.90071  0.23773  0.69297  1.0000
  C   C964      1.0  0.71392  0.28019  0.70735  1.0000
  H   H1527     1.0  0.92406  0.30169  0.66391  1.0000
  H   H1528     1.0  0.72648  0.10668  0.72916  1.0000
  N   N94       1.0  0.72206  0.27676  0.69257  1.0000
  C   C965      1.0  0.73584  0.29539  0.68526  1.0000
  H   H1529     1.0  0.73079  0.12121  0.53174  1.0000
  S   S379      1.0  0.91727  0.25121  0.73562  1.0000
  H   H1530     1.0  0.78545  0.30656  0.70934  1.0000
  H   H1531     1.0  0.75342  0.11255  0.71785  1.0000
  H   H1532     1.0  0.75283  0.12639  0.69212  1.0000
  N   N95       1.0  0.72213  0.12094  0.70773  1.0000
  C   C966      1.0  0.83636  0.14336  0.73441  1.0000
  C   C967      1.0  0.76998  0.31950  0.70643  1.0000
  Fe  Fe192     1.0  0.71225  0.31440  0.74655  1.0000
  H   H1533     1.0  0.93067  0.30225  0.74665  1.0000
  Fe  Fe193     1.0  0.66823  0.04658  0.55229  1.0000
  H   H1534     1.0  0.87484  0.22930  0.74713  1.0000
  Fe  Fe194     1.0  0.96591  0.07227  0.98036  1.0000
  S   S380      1.0  0.97708  0.04902  0.96355  1.0000
  S   S381      1.0  0.81222  0.31541  0.80059  1.0000
  H   H1535     1.0  0.72523  0.25798  0.78685  1.0000
  C   C968      1.0  0.75768  0.20353  0.78158  1.0000
  Fe  Fe195     1.0  0.81703  0.16417  0.79233  1.0000
  S   S382      1.0  0.78960  0.15528  0.81073  1.0000
  S   S383      1.0  0.82560  0.20032  0.78334  1.0000
  Fe  Fe196     1.0  0.82652  0.11497  0.78458  1.0000
  S   S384      1.0  0.79936  0.10151  0.80230  1.0000
  S   S385      1.0  0.85093  0.09459  0.76849  1.0000
  Fe  Fe197     1.0  0.77612  0.13725  0.79643  1.0000
  S   S386      1.0  0.73639  0.14847  0.79605  1.0000
  Fe  Fe198     1.0  0.81512  0.12054  0.81512  1.0000
  S   S387      1.0  0.82002  0.10814  0.83786  1.0000
  S   S388      1.0  0.80187  0.14883  0.77769  1.0000
  S   S389      1.0  0.84403  0.13134  0.79786  1.0000
  S   S390      1.0  0.67485  0.25726  0.78342  1.0000
  H   H1536     1.0  0.91520  0.02464  0.96267  1.0000
  H   H1537     1.0  0.75284  0.25129  0.77514  1.0000
  C   C969      1.0  0.72089  0.21284  0.79736  1.0000
  Fe  Fe199     1.0  0.91514  0.02511  0.90810  1.0000
  C   C970      1.0  0.85772  0.99995  0.87430  1.0000
  Fe  Fe200     1.0  0.91712  0.01948  0.87763  1.0000
  S   S391      1.0  0.91088  0.03283  0.85510  1.0000
  Fe  Fe201     1.0  0.95605  0.12191  0.98861  1.0000
  S   S392      1.0  0.94209  0.03118  0.88870  1.0000
  H   H1538     1.0  0.81633  0.12810  0.75347  1.0000
  C   C971      1.0  0.84467  0.08625  0.84255  1.0000
  C   C972      1.0  0.86205  0.07609  0.83239  1.0000
  C   C973      1.0  0.88232  0.05983  0.83641  1.0000
  C   C974      1.0  0.88535  0.05363  0.85058  1.0000
  C   C975      1.0  0.86791  0.06370  0.86075  1.0000
  C   C976      1.0  0.84761  0.07994  0.85673  1.0000
  H   H1539     1.0  0.85997  0.08089  0.82143  1.0000
  H   H1540     1.0  0.89576  0.05206  0.82849  1.0000
  H   H1541     1.0  0.87013  0.05913  0.87169  1.0000
  H   H1542     1.0  0.83426  0.08786  0.86463  1.0000
  S   S393      1.0  0.88875  0.01706  0.89650  1.0000
  Fe  Fe202     1.0  0.67914  0.29294  0.77090  1.0000
  H   H1543     1.0  0.84980  0.17373  0.75624  1.0000
  C   C977      1.0  0.70136  0.13306  0.76161  1.0000
  C   C978      1.0  0.72459  0.12099  0.76353  1.0000
  C   C979      1.0  0.73588  0.12604  0.77380  1.0000
  C   C980      1.0  0.72372  0.14280  0.78239  1.0000
  H   H1544     1.0  0.69104  0.16779  0.78706  1.0000
  H   H1545     1.0  0.76294  0.18623  0.78834  1.0000
  H   H1546     1.0  0.88704  0.02255  0.97366  1.0000
  H   H1547     1.0  0.75367  0.11650  0.77536  1.0000
  H   H1548     1.0  0.91581  0.16995  0.74870  1.0000
  H   H1549     1.0  0.99214  0.09362  0.95167  1.0000
  C   C981      1.0  0.95706  0.05093  0.95180  1.0000
  C   C982      1.0  0.93559  0.06753  0.95222  1.0000
  C   C983      1.0  0.91925  0.06774  0.94329  1.0000
  C   C984      1.0  0.92434  0.05139  0.93390  1.0000
  C   C985      1.0  0.94598  0.03503  0.93334  1.0000
  C   C986      1.0  0.96234  0.03486  0.94224  1.0000
  H   H1550     1.0  0.93142  0.08014  0.95942  1.0000
  H   H1551     1.0  0.90255  0.08048  0.94371  1.0000
  H   H1552     1.0  0.95001  0.02239  0.92612  1.0000
  H   H1553     1.0  0.97901  0.02207  0.94178  1.0000
  C   C987      1.0  0.70058  0.15495  0.78038  1.0000
  H   H1554     1.0  0.74764  0.19999  0.77385  1.0000
  H   H1555     1.0  0.67155  0.15952  0.76863  1.0000
  C   C988      1.0  0.82844  0.21731  0.79557  1.0000
  C   C989      1.0  0.94006  0.20685  0.98448  1.0000
  H   H1556     1.0  0.94699  0.29817  0.76099  1.0000
  H   H1557     1.0  0.87823  0.15379  0.75497  1.0000
  S   S394      1.0  0.93262  0.09988  0.98330  1.0000
  H   H1558     1.0  0.72623  0.24225  0.77278  1.0000
  S   S395      1.0  0.83002  0.33083  0.82717  1.0000
  C   C990      1.0  0.99940  0.01652  0.90351  1.0000
  H   H1559     1.0  0.84022  0.24522  0.77959  1.0000
  C   C991      1.0  0.82584  0.22340  0.81956  1.0000
  C   C992      1.0  0.87287  0.28801  0.76431  1.0000
  H   H1560     1.0  0.90643  0.18670  0.76300  1.0000
  H   H1561     1.0  0.82146  0.21767  0.83072  1.0000
  H   H1562     1.0  0.84546  0.26930  0.79652  1.0000
  H   H1563     1.0  0.77445  0.20936  0.77580  1.0000
  C   C993      1.0  0.68952  0.15029  0.76993  1.0000
  H   H1564     1.0  0.84246  0.00542  0.84964  1.0000
  C   C994      1.0  0.90538  0.18711  0.75177  1.0000
  H   H1565     1.0  0.94306  0.32275  0.88915  1.0000
  H   H1566     1.0  0.96956  0.32914  0.74856  1.0000
  H   H1567     1.0  0.88187  0.15501  0.99353  1.0000
  H   H1568     1.0  0.92719  0.04168  0.98098  1.0000
  S   S396      1.0  0.68722  0.12606  0.74897  1.0000
  N   N96       1.0  0.86714  0.15569  0.83696  1.0000
  C   C995      1.0  0.87757  0.13119  0.83419  1.0000
  C   C996      1.0  0.84080  0.15840  0.84034  1.0000
  C   C997      1.0  0.87353  0.17301  0.82437  1.0000
  C   C998      1.0  0.87664  0.16011  0.84895  1.0000
  H   H1569     1.0  0.86986  0.12680  0.82567  1.0000
  H   H1570     1.0  0.87393  0.11775  0.84368  1.0000
  H   H1571     1.0  0.89734  0.12862  0.83108  1.0000
  H   H1572     1.0  0.83228  0.17647  0.84280  1.0000
  H   H1573     1.0  0.83294  0.15556  0.83144  1.0000
  H   H1574     1.0  0.83535  0.14510  0.84954  1.0000
  H   H1575     1.0  0.86657  0.19171  0.82625  1.0000
  H   H1576     1.0  0.86596  0.17064  0.81524  1.0000
  H   H1577     1.0  0.89327  0.17105  0.82129  1.0000
  H   H1578     1.0  0.87196  0.14739  0.85863  1.0000
  H   H1579     1.0  0.86920  0.17850  0.85129  1.0000
  H   H1580     1.0  0.89650  0.15802  0.84682  1.0000
  C   C999      1.0  0.82310  0.20951  0.80999  1.0000
  H   H1581     1.0  0.76161  0.20785  0.80776  1.0000
  C   C1000     1.0  0.83909  0.25274  0.80029  1.0000
  H   H1582     1.0  0.98012  0.01975  0.90584  1.0000
  N   N97       1.0  0.74299  0.22135  0.79006  1.0000
  S   S397      1.0  0.95207  0.16094  0.97920  1.0000
  H   H1583     1.0  0.93968  0.21184  0.97333  1.0000
  S   S398      1.0  0.90304  0.05110  0.92340  1.0000
  S   S399      1.0  0.98989  0.09571  0.98347  1.0000
  H   H1584     1.0  0.66768  0.21090  0.78114  1.0000
  H   H1585     1.0  0.99786  0.25623  0.99457  1.0000
  H   H1586     1.0  0.81674  0.19293  0.81376  1.0000
  H   H1587     1.0  0.79697  0.31961  0.76564  1.0000
  H   H1588     1.0  0.95309  0.00642  0.97176  1.0000
  H   H1589     1.0  0.92613  0.30056  0.91176  1.0000
  Fe  Fe203     1.0  0.91658  0.32168  0.98681  1.0000
  C   C1001     1.0  0.83624  0.23901  0.79073  1.0000
  H   H1590     1.0  0.71031  0.20962  0.78979  1.0000
  C   C1002     1.0  0.91172  0.31650  0.91294  1.0000
  C   C1003     1.0  0.93406  0.22456  0.99310  1.0000
  C   C1004     1.0  0.75677  0.22475  0.80049  1.0000
  H   H1591     1.0  0.99696  0.11996  0.93943  1.0000
  H   H1592     1.0  0.92898  0.24306  0.98857  1.0000
  C   C1005     1.0  0.86878  0.17140  0.75780  1.0000
  H   H1593     1.0  0.95610  0.32630  0.91107  1.0000
  H   H1594     1.0  0.89929  0.03868  0.99225  1.0000
  H   H1595     1.0  0.72496  0.19572  0.80461  1.0000
  Fe  Fe204     1.0  0.84305  0.32983  0.78698  1.0000
  C   C1006     1.0  0.73664  0.24424  0.78078  1.0000
  H   H1596     1.0  0.86863  0.17053  0.76923  1.0000
  H   H1597     1.0  0.89581  0.25337  0.76446  1.0000
  H   H1598     1.0  0.70898  0.22610  0.80359  1.0000
  H   H1599     1.0  0.86930  0.01363  0.87159  1.0000
  C   C1007     1.0  0.86400  0.30934  0.75601  1.0000
  C   C1008     1.0  0.83406  0.24491  0.81470  1.0000
  H   H1600     1.0  0.86815  0.28591  0.77559  1.0000
  C   C1009     1.0  0.94614  0.18272  0.99024  1.0000
  Fe  Fe205     1.0  0.83850  0.29956  0.81555  1.0000
  H   H1601     1.0  0.91483  0.30452  0.76401  1.0000
  S   S400      1.0  0.83824  0.26193  0.82658  1.0000
  H   H1602     1.0  0.83888  0.00959  0.87438  1.0000
  S   S401      1.0  0.87025  0.31134  0.80098  1.0000
  C   C1010     1.0  0.88849  0.26962  0.75800  1.0000
  S   S402      1.0  0.71202  0.30807  0.76977  1.0000
  C   C1011     1.0  0.91784  0.02916  0.98906  1.0000
  H   H1603     1.0  0.74631  0.23833  0.80697  1.0000
  H   H1604     1.0  0.73379  0.10755  0.75719  1.0000
  H   H1605     1.0  0.77380  0.23073  0.79533  1.0000
  S   S403      1.0  0.94550  0.28892  0.98715  1.0000
  S   S404      1.0  0.68172  0.29602  0.74767  1.0000
  C   C1012     1.0  0.86721  0.21399  0.75361  1.0000
  C   C1013     1.0  0.93091  0.30876  0.75654  1.0000
  C   C1014     1.0  0.85388  0.11289  0.75210  1.0000
  H   H1606     1.0  0.87292  0.00952  0.84660  1.0000
  C   C1015     1.0  0.77808  0.32563  0.76367  1.0000
  C   C1016     1.0  0.00010  0.10015  0.94077  1.0000
  H   H1607     1.0  0.86806  0.21447  0.76476  1.0000
  H   H1608     1.0  0.98987  0.09514  0.93362  1.0000
  H   H1609     1.0  0.89643  0.31428  0.90825  1.0000
  H   H1610     1.0  0.77373  0.31222  0.75834  1.0000
  N   N98       1.0  0.91791  0.00702  0.98380  1.0000
  H   H1611     1.0  0.84792  0.21710  0.75255  1.0000
  H   H1612     1.0  0.76649  0.32537  0.77407  1.0000
  H   H1613     1.0  0.99331  0.22707  0.99335  1.0000
  C   C1017     1.0  0.90581  0.01295  0.97127  1.0000
  H   H1614     1.0  0.90551  0.31645  0.92439  1.0000
  N   N99       1.0  0.88027  0.19105  0.74938  1.0000
  H   H1615     1.0  0.89188  0.10024  0.74734  1.0000
  C   C1018     1.0  0.83387  0.12825  0.74734  1.0000
  C   C1019     1.0  0.90742  0.38261  0.02978  1.0000
  H   H1616     1.0  0.88781  0.38907  0.05002  1.0000
  C   C1020     1.0  0.91956  0.41740  0.01439  1.0000
  C   C1021     1.0  0.89692  0.39689  0.04010  1.0000
  S   S405      1.0  0.90479  0.35232  0.03293  1.0000
  C   C1022     1.0  0.95433  0.41193  0.05699  1.0000
  C   C1023     1.0  0.90863  0.43173  0.02461  1.0000
  C   C1024     1.0  0.89768  0.42137  0.03758  1.0000
  Fe  Fe206     1.0  0.90798  0.48168  0.03867  1.0000
  S   S406      1.0  0.90832  0.46260  0.02065  1.0000
  H   H1617     1.0  0.88912  0.43233  0.04551  1.0000
  S   S407      1.0  0.91041  0.46674  0.06131  1.0000
  C   C1025     1.0  0.91928  0.39284  0.01706  1.0000
  H   H1618     1.0  0.97490  0.44536  0.03894  1.0000
  H   H1619     1.0  0.92824  0.38188  0.00928  1.0000
  H   H1620     1.0  0.97189  0.37108  0.04658  1.0000
  H   H1621     1.0  0.95594  0.42690  0.06209  1.0000
  H   H1622     1.0  0.95555  0.43460  0.03042  1.0000
  H   H1623     1.0  0.88493  0.37060  0.00760  1.0000
  C   C1026     1.0  0.66996  0.65246  0.18098  1.0000
  C   C1027     1.0  0.67182  0.61006  0.15729  1.0000
  H   H1624     1.0  0.86556  0.61707  0.05461  1.0000
  H   H1625     1.0  0.79356  0.65169  0.17452  1.0000
  C   C1028     1.0  0.97294  0.42980  0.03449  1.0000
  N   N100      1.0  0.97393  0.40801  0.04516  1.0000
  C   C1029     1.0  0.87174  0.37247  0.00040  1.0000
  C   C1030     1.0  0.99170  0.64428  0.23936  1.0000
  H   H1626     1.0  0.92841  0.42525  0.00441  1.0000
  H   H1627     1.0  0.85439  0.36986  0.00704  1.0000
  Fe  Fe207     1.0  0.94105  0.48625  0.05801  1.0000
  S   S408      1.0  0.94005  0.49886  0.03515  1.0000
  H   H1628     1.0  0.83348  0.62353  0.05913  1.0000
  H   H1629     1.0  0.99787  0.38813  0.00066  1.0000
  H   H1630     1.0  0.98581  0.38439  0.02990  1.0000
  H   H1631     1.0  0.98744  0.42737  0.02538  1.0000
  H   H1632     1.0  0.93651  0.41638  0.05343  1.0000
  C   C1031     1.0  0.86073  0.41503  0.99973  1.0000
  H   H1633     1.0  0.87290  0.41424  0.00741  1.0000
  C   C1032     1.0  0.99722  0.40248  0.05032  1.0000
  S   S409      1.0  0.97717  0.46864  0.06389  1.0000
  C   C1033     1.0  0.98799  0.51299  0.05377  1.0000
  H   H1634     1.0  0.89206  0.54470  0.16443  1.0000
  H   H1635     1.0  0.80762  0.55670  0.11687  1.0000
  H   H1636     1.0  0.84641  0.56300  0.04915  1.0000
  H   H1637     1.0  0.67912  0.64699  0.17077  1.0000
  Fe  Fe208     1.0  0.75329  0.61070  0.14400  1.0000
  S   S410      1.0  0.78127  0.58245  0.15365  1.0000
  S   S411      1.0  0.71642  0.60715  0.14146  1.0000
  H   H1638     1.0  0.92877  0.50461  0.00541  1.0000
  S   S412      1.0  0.81384  0.62451  0.14768  1.0000
  Fe  Fe209     1.0  0.80758  0.59730  0.13601  1.0000
  Fe  Fe210     1.0  0.78587  0.61130  0.16454  1.0000
  S   S413      1.0  0.79190  0.60253  0.18706  1.0000
  S   S414      1.0  0.77914  0.62315  0.12522  1.0000
  S   S415      1.0  0.75563  0.63824  0.15647  1.0000
  H   H1639     1.0  0.82756  0.56087  0.07387  1.0000
  S   S416      1.0  0.91862  0.52003  0.06469  1.0000
  H   H1640     1.0  0.85462  0.58575  0.15317  1.0000
  H   H1641     1.0  0.95438  0.39578  0.06520  1.0000
  C   C1034     1.0  0.93514  0.56941  0.01590  1.0000
  C   C1035     1.0  0.84534  0.55664  0.11465  1.0000
  C   C1036     1.0  0.82529  0.55002  0.11162  1.0000
  C   C1037     1.0  0.95673  0.55300  0.01584  1.0000
  N   N101      1.0  0.84938  0.58632  0.06293  1.0000
  H   H1642     1.0  0.81158  0.59104  0.07076  1.0000
  S   S417      1.0  0.84287  0.57582  0.12696  1.0000
  H   H1643     1.0  0.96078  0.54119  0.02537  1.0000
  C   C1038     1.0  0.86818  0.54761  0.10787  1.0000
  C   C1039     1.0  0.83168  0.55096  0.16768  1.0000
  C   C1040     1.0  0.85099  0.52583  0.09484  1.0000
  H   H1644     1.0  0.88379  0.55249  0.11026  1.0000
  H   H1645     1.0  0.81577  0.56203  0.17312  1.0000
  H   H1646     1.0  0.84274  0.41354  0.00589  1.0000
  H   H1647     1.0  0.69500  0.57276  0.19082  1.0000
  H   H1648     1.0  0.97038  0.51797  0.05073  1.0000
  C   C1041     1.0  0.87473  0.54107  0.16288  1.0000
  H   H1649     1.0  0.83035  0.53195  0.17157  1.0000
  C   C1042     1.0  0.69642  0.60111  0.15701  1.0000
  C   C1043     1.0  0.70472  0.58762  0.16912  1.0000
  H   H1650     1.0  0.86209  0.58671  0.04089  1.0000
  H   H1651     1.0  0.72361  0.58034  0.16891  1.0000
  H   H1652     1.0  0.87164  0.55217  0.06780  1.0000
  C   C1044     1.0  0.79925  0.62607  0.19317  1.0000
  Fe  Fe211     1.0  0.78331  0.64892  0.13844  1.0000
  C   C1045     1.0  0.80583  0.62219  0.20654  1.0000
  H   H1653     1.0  0.69059  0.61571  0.19859  1.0000
  H   H1654     1.0  0.80621  0.60484  0.21302  1.0000
  H   H1655     1.0  0.88773  0.57551  0.05936  1.0000
  H   H1656     1.0  0.99687  0.54764  0.04553  1.0000
  N   N102      1.0  0.68732  0.65299  0.19010  1.0000
  C   C1046     1.0  0.97309  0.55174  0.00342  1.0000
  H   H1657     1.0  0.83058  0.58214  0.08408  1.0000
  S   S418      1.0  0.88237  0.51500  0.04350  1.0000
  C   C1047     1.0  0.85517  0.58165  0.16467  1.0000
  C   C1048     1.0  0.82817  0.53446  0.10184  1.0000
  Fe  Fe212     1.0  0.88756  0.50196  0.06601  1.0000
  C   C1049     1.0  0.79870  0.64855  0.18484  1.0000
  H   H1658     1.0  0.83032  0.55452  0.15628  1.0000
  H   H1659     1.0  0.83001  0.59295  0.04550  1.0000
  C   C1050     1.0  0.82886  0.57986  0.07335  1.0000
  C   C1051     1.0  0.93041  0.58529  0.00366  1.0000
  Fe  Fe213     1.0  0.88593  0.65663  0.23962  1.0000
  H   H1660     1.0  0.81259  0.52935  0.09956  1.0000
  C   C1052     1.0  0.87183  0.57144  0.06708  1.0000
  S   S419      1.0  0.91297  0.56846  0.03071  1.0000
  H   H1661     1.0  0.87453  0.52181  0.16672  1.0000
  S   S420      1.0  0.85372  0.50785  0.08182  1.0000
  H   H1662     1.0  0.71185  0.62257  0.18325  1.0000
  S   S421      1.0  0.92518  0.64978  0.23012  1.0000
  H   H1663     1.0  0.91379  0.59813  0.00369  1.0000
  H   H1664     1.0  0.83980  0.59367  0.16988  1.0000
  C   C1053     1.0  0.81219  0.64062  0.21151  1.0000
  C   C1054     1.0  0.70198  0.62894  0.19310  1.0000
  H   H1665     1.0  0.71548  0.62867  0.19983  1.0000
  H   H1666     1.0  0.85195  0.61542  0.07271  1.0000
  C   C1055     1.0  0.68850  0.58326  0.18148  1.0000
  H   H1667     1.0  0.81726  0.63745  0.22184  1.0000
  C   C1056     1.0  0.97127  0.38785  0.03884  1.0000
  H   H1668     1.0  0.87185  0.58641  0.16642  1.0000
  H   H1669     1.0  0.83959  0.56317  0.19108  1.0000
  H   H1670     1.0  0.87169  0.55562  0.18773  1.0000
  H   H1671     1.0  0.95392  0.39145  0.03481  1.0000
  N   N103      1.0  0.85417  0.55632  0.17018  1.0000
  C   C1057     1.0  0.87101  0.53235  0.09796  1.0000
  H   H1672     1.0  0.77836  0.59392  0.24600  1.0000
  Fe  Fe214     1.0  0.91477  0.53086  0.04200  1.0000
  C   C1058     1.0  0.81189  0.66305  0.20316  1.0000
  C   C1059     1.0  0.84681  0.58211  0.04899  1.0000
  C   C1060     1.0  0.85012  0.61173  0.06231  1.0000
  C   C1061     1.0  0.94886  0.64731  0.23964  1.0000
  H   H1673     1.0  0.85406  0.53281  0.18998  1.0000
  C   C1062     1.0  0.85498  0.55172  0.18542  1.0000
  H   H1674     1.0  0.88870  0.52553  0.09283  1.0000
  S   S422      1.0  0.86063  0.63743  0.23351  1.0000
  H   H1675     1.0  0.87451  0.57420  0.07752  1.0000
  H   H1676     1.0  0.87432  0.54429  0.15135  1.0000
  H   H1677     1.0  0.89802  0.51896  0.00856  1.0000
  H   H1678     1.0  0.98954  0.53866  0.00336  1.0000
  H   H1679     1.0  0.99977  0.41741  0.05514  1.0000
  H   H1680     1.0  0.97572  0.64377  0.22134  1.0000
  C   C1063     1.0  0.97239  0.64500  0.23240  1.0000
  H   H1681     1.0  0.92119  0.53640  0.00421  1.0000
  C   C1064     1.0  0.99574  0.48993  0.06060  1.0000
  H   H1682     1.0  0.99857  0.38617  0.05843  1.0000
  H   H1683     1.0  0.68685  0.66201  0.21036  1.0000
  H   H1684     1.0  0.73923  0.61899  0.24086  1.0000
  C   C1065     1.0  0.91559  0.52066  0.00191  1.0000
  C   C1066     1.0  0.67432  0.66063  0.20341  1.0000
  C   C1067     1.0  0.99889  0.35157  0.99875  1.0000
  H   H1685     1.0  0.69232  0.38047  0.45059  1.0000
  C   C1068     1.0  0.67691  0.41753  0.44490  1.0000
  C   C1069     1.0  0.67631  0.39311  0.44829  1.0000
  H   H1686     1.0  0.69342  0.42364  0.44453  1.0000
  S   S423      1.0  0.68015  0.65780  0.32421  1.0000
  H   H1687     1.0  0.75815  0.65117  0.29559  1.0000
  H   H1688     1.0  0.74669  0.56231  0.26618  1.0000
  C   C1070     1.0  0.67665  0.59925  0.37091  1.0000
  H   H1689     1.0  0.71845  0.58024  0.26246  1.0000
  N   N104      1.0  0.69843  0.59792  0.36024  1.0000
  C   C1071     1.0  0.73462  0.62100  0.25213  1.0000
  C   C1072     1.0  0.69310  0.59179  0.34743  1.0000
  H   H1690     1.0  0.78226  0.58191  0.26389  1.0000
  H   H1691     1.0  0.71075  0.62635  0.36616  1.0000
  C   C1073     1.0  0.70611  0.62128  0.35682  1.0000
  H   H1692     1.0  0.74481  0.62009  0.27751  1.0000
  H   H1693     1.0  0.68002  0.60340  0.38085  1.0000
  H   H1694     1.0  0.70905  0.59077  0.33907  1.0000
  C   C1074     1.0  0.71779  0.57938  0.36568  1.0000
  H   H1695     1.0  0.77921  0.61331  0.25792  1.0000
  S   S424      1.0  0.68030  0.60800  0.31278  1.0000
  H   H1696     1.0  0.72027  0.60489  0.27957  1.0000
  H   H1697     1.0  0.73439  0.57795  0.35778  1.0000
  H   H1698     1.0  0.67852  0.60542  0.34311  1.0000
  Fe  Fe215     1.0  0.70622  0.63194  0.31206  1.0000
  S   S425      1.0  0.74206  0.61557  0.31851  1.0000
  C   C1075     1.0  0.94477  0.64873  0.25396  1.0000
  Fe  Fe216     1.0  0.84111  0.63838  0.25551  1.0000
  H   H1699     1.0  0.68727  0.57425  0.34956  1.0000
  H   H1700     1.0  0.74914  0.58845  0.28304  1.0000
  S   S426      1.0  0.86857  0.65416  0.26220  1.0000
  H   H1701     1.0  0.96085  0.64905  0.27201  1.0000
  H   H1702     1.0  0.72211  0.62110  0.34847  1.0000
  H   H1703     1.0  0.71251  0.56154  0.36832  1.0000
  S   S427      1.0  0.82665  0.60614  0.26756  1.0000
  C   C1076     1.0  0.73828  0.57846  0.25945  1.0000
  H   H1704     1.0  0.71477  0.62366  0.25490  1.0000
  C   C1077     1.0  0.77265  0.59712  0.25704  1.0000
  H   H1705     1.0  0.92672  0.65054  0.25964  1.0000
  H   H1706     1.0  0.66992  0.58211  0.37343  1.0000
  C   C1078     1.0  0.80371  0.60999  0.28193  1.0000
  C   C1079     1.0  0.78888  0.63218  0.28334  1.0000
  C   C1080     1.0  0.76969  0.63410  0.29450  1.0000
  C   C1081     1.0  0.76569  0.61391  0.30439  1.0000
  C   C1082     1.0  0.78077  0.59192  0.30307  1.0000
  C   C1083     1.0  0.79944  0.58990  0.29176  1.0000
  H   H1707     1.0  0.79205  0.64772  0.27576  1.0000
  C   C1084     1.0  0.98767  0.64575  0.25366  1.0000
  H   H1708     1.0  0.77785  0.57631  0.31071  1.0000
  H   H1709     1.0  0.81082  0.57273  0.29072  1.0000
  Fe  Fe217     1.0  0.67159  0.63143  0.29269  1.0000
  C   C1085     1.0  0.96414  0.64794  0.26094  1.0000
  H   H1710     1.0  0.72234  0.58342  0.37535  1.0000
  C   C1086     1.0  0.73987  0.60350  0.27596  1.0000
  N   N105      1.0  0.74637  0.60000  0.26114  1.0000
  H   H1711     1.0  0.69170  0.63569  0.35290  1.0000
  H   H1712     1.0  0.67958  0.43315  0.49041  1.0000
  H   H1713     1.0  0.74011  0.63761  0.25327  1.0000
  S   S428      1.0  0.67174  0.61660  0.27313  1.0000
  S   S429      1.0  0.70008  0.65292  0.29105  1.0000
  H   H1714     1.0  0.74283  0.57521  0.24839  1.0000
  S   S430      1.0  0.68202  0.43935  0.55239  1.0000
  C   C1087     1.0  0.71602  0.37773  0.55718  1.0000
  H   H1715     1.0  0.71480  0.36630  0.69603  1.0000
  H   H1716     1.0  0.85962  0.35042  0.67614  1.0000
  S   S431      1.0  0.76945  0.36768  0.60417  1.0000
  C   C1088     1.0  0.74472  0.43900  0.64215  1.0000
  Fe  Fe218     1.0  0.77076  0.34395  0.65614  1.0000
  H   H1717     1.0  0.72733  0.45381  0.61780  1.0000
  H   H1718     1.0  0.74703  0.45750  0.63741  1.0000
  H   H1719     1.0  0.68178  0.38845  0.61615  1.0000
  S   S432      1.0  0.75202  0.36675  0.67232  1.0000
  H   H1720     1.0  0.70659  0.38665  0.54812  1.0000
  H   H1721     1.0  0.67924  0.38598  0.57762  1.0000
  H   H1722     1.0  0.69184  0.34957  0.54920  1.0000
  S   S433      1.0  0.79862  0.35481  0.63827  1.0000
  H   H1723     1.0  0.77181  0.44122  0.61661  1.0000
  S   S434      1.0  0.74729  0.33620  0.64263  1.0000
  C   C1089     1.0  0.74045  0.38280  0.60128  1.0000
  C   C1090     1.0  0.73777  0.39989  0.58917  1.0000
  C   C1091     1.0  0.71498  0.41281  0.58676  1.0000
  C   C1092     1.0  0.69740  0.39165  0.60858  1.0000
  C   C1093     1.0  0.72012  0.37848  0.61088  1.0000
  H   H1724     1.0  0.75343  0.40336  0.58170  1.0000
  N   N106      1.0  0.70317  0.35973  0.56640  1.0000
  H   H1725     1.0  0.72183  0.36507  0.62010  1.0000
  H   H1726     1.0  0.76976  0.41234  0.61358  1.0000
  H   H1727     1.0  0.78699  0.33620  0.73564  1.0000
  H   H1728     1.0  0.80986  0.34377  0.74314  1.0000
  H   H1729     1.0  0.71313  0.42626  0.57753  1.0000
  H   H1730     1.0  0.78861  0.36693  0.73480  1.0000
  C   C1094     1.0  0.67878  0.37145  0.57186  1.0000
  N   N107      1.0  0.74541  0.42445  0.63127  1.0000
  H   H1731     1.0  0.72619  0.42493  0.61451  1.0000
  H   H1732     1.0  0.66820  0.37954  0.56321  1.0000
  H   H1733     1.0  0.71745  0.39190  0.56293  1.0000
  H   H1734     1.0  0.72739  0.44008  0.64942  1.0000
  S   S435      1.0  0.67509  0.50416  0.52986  1.0000
  C   C1095     1.0  0.73025  0.35330  0.69892  1.0000
  H   H1735     1.0  0.73498  0.33990  0.57456  1.0000
  H   H1736     1.0  0.78385  0.41470  0.62783  1.0000
  H   H1737     1.0  0.71723  0.36165  0.58476  1.0000
  H   H1738     1.0  0.74377  0.38835  0.63028  1.0000
  H   H1739     1.0  0.72480  0.40004  0.64504  1.0000
  Fe  Fe219     1.0  0.77634  0.34423  0.62489  1.0000
  C   C1096     1.0  0.76872  0.42320  0.62192  1.0000
  H   H1740     1.0  0.95418  0.35861  0.74247  1.0000
  H   H1741     1.0  0.75648  0.39180  0.64477  1.0000
  H   H1742     1.0  0.95371  0.33417  0.73400  1.0000
  C   C1097     1.0  0.74239  0.40013  0.63813  1.0000
  H   H1743     1.0  0.70795  0.43586  0.62959  1.0000
  C   C1098     1.0  0.75129  0.35021  0.68925  1.0000
  C   C1099     1.0  0.71625  0.34837  0.57825  1.0000
  H   H1744     1.0  0.71234  0.34120  0.71942  1.0000
  H   H1745     1.0  0.75917  0.43110  0.64867  1.0000
  C   C1100     1.0  0.69474  0.40881  0.59652  1.0000
  C   C1101     1.0  0.79073  0.34914  0.74157  1.0000
  C   C1102     1.0  0.72586  0.43528  0.62295  1.0000
  H   H1746     1.0  0.70730  0.33441  0.58532  1.0000
  H   H1747     1.0  0.70726  0.64083  0.52070  1.0000
  H   H1748     1.0  0.78758  0.33105  0.68558  1.0000
  H   H1749     1.0  0.71962  0.33218  0.55401  1.0000
  H   H1750     1.0  0.74608  0.37500  0.74628  1.0000
  H   H1751     1.0  0.69477  0.65913  0.54880  1.0000
  H   H1752     1.0  0.73452  0.36957  0.55288  1.0000
  H   H1753     1.0  0.68839  0.62870  0.53595  1.0000
  S   S436      1.0  0.68918  0.35075  0.74591  1.0000
  C   C1103     1.0  0.70154  0.34144  0.55827  1.0000
  C   C1104     1.0  0.68858  0.64255  0.52636  1.0000
  C   C1105     1.0  0.72889  0.33917  0.71222  1.0000
  H   H1754     1.0  0.67750  0.63789  0.51959  1.0000
  H   H1755     1.0  0.67229  0.54778  0.51059  1.0000
  C   C1106     1.0  0.95306  0.33937  0.74439  1.0000
  H   H1756     1.0  0.90977  0.36729  0.74525  1.0000
  C   C1107     1.0  0.86916  0.33678  0.66999  1.0000
  H   H1757     1.0  0.83871  0.33657  0.66028  1.0000
  H   H1758     1.0  0.90919  0.34167  0.73774  1.0000
  S   S437      1.0  0.90753  0.33669  0.68263  1.0000
  C   C1108     1.0  0.77118  0.33328  0.69299  1.0000
  H   H1759     1.0  0.66876  0.35862  0.57923  1.0000
  H   H1760     1.0  0.74474  0.34435  0.74676  1.0000
  S   S438      1.0  0.68945  0.37277  0.78013  1.0000
  H   H1761     1.0  0.77804  0.38520  0.75643  1.0000
  C   C1109     1.0  0.90567  0.50987  0.90260  1.0000
  Fe  Fe220     1.0  0.91702  0.41358  0.87820  1.0000
  S   S439      1.0  0.95447  0.39810  0.88280  1.0000
  S   S440      1.0  0.89371  0.38916  0.87440  1.0000
  C   C1110     1.0  0.74874  0.37101  0.80547  1.0000
  S   S441      1.0  0.95505  0.45012  0.89073  1.0000
  Fe  Fe221     1.0  0.96339  0.43317  0.87148  1.0000
  Fe  Fe222     1.0  0.94334  0.41632  0.90169  1.0000
  S   S442      1.0  0.95827  0.39983  0.92160  1.0000
  C   C1111     1.0  0.90253  0.49544  0.91572  1.0000
  S   S443      1.0  0.90520  0.42928  0.89828  1.0000
  S   S444      1.0  0.83537  0.36359  0.79601  1.0000
  H   H1762     1.0  0.90267  0.56103  0.98440  1.0000
  S   S445      1.0  0.77117  0.37210  0.81511  1.0000
  H   H1763     1.0  0.96879  0.50791  0.93100  1.0000
  S   S446      1.0  0.88686  0.36444  0.81509  1.0000
  H   H1764     1.0  0.95161  0.49039  0.90804  1.0000
  H   H1765     1.0  0.76789  0.36810  0.77284  1.0000
  H   H1766     1.0  0.89360  0.36004  0.91929  1.0000
  H   H1767     1.0  0.98443  0.35604  0.99262  1.0000
  C   C1112     1.0  0.78006  0.36696  0.76268  1.0000
  C   C1113     1.0  0.89250  0.38222  0.85782  1.0000
  C   C1114     1.0  0.87858  0.36558  0.85712  1.0000
  C   C1115     1.0  0.87682  0.35981  0.84413  1.0000
  C   C1116     1.0  0.88897  0.37068  0.83170  1.0000
  C   C1117     1.0  0.90299  0.38721  0.83241  1.0000
  C   C1118     1.0  0.90475  0.39300  0.84540  1.0000
  H   H1768     1.0  0.86909  0.35710  0.86667  1.0000
  H   H1769     1.0  0.86616  0.34688  0.84374  1.0000
  H   H1770     1.0  0.91252  0.39566  0.82285  1.0000
  H   H1771     1.0  0.91553  0.40583  0.84578  1.0000
  S   S447      1.0  0.92687  0.44750  0.86518  1.0000
  C   C1119     1.0  0.91353  0.35558  0.95559  1.0000
  C   C1120     1.0  0.93787  0.35393  0.95588  1.0000
  C   C1121     1.0  0.95133  0.36790  0.94549  1.0000
  C   C1122     1.0  0.94058  0.38341  0.93471  1.0000
  C   C1123     1.0  0.91618  0.38522  0.93445  1.0000
  C   C1124     1.0  0.90265  0.37129  0.94490  1.0000
  H   H1772     1.0  0.90644  0.39843  0.98990  1.0000
  H   H1773     1.0  0.97022  0.36645  0.94572  1.0000
  H   H1774     1.0  0.90773  0.39742  0.92625  1.0000
  H   H1775     1.0  0.88373  0.37279  0.94476  1.0000
  H   H1776     1.0  0.89227  0.41582  0.97550  1.0000
  S   S448      1.0  0.89642  0.33870  0.96881  1.0000
  H   H1777     1.0  0.87880  0.54442  0.98853  1.0000
  H   H1778     1.0  0.80311  0.44509  0.82120  1.0000
  H   H1779     1.0  0.79864  0.44591  0.83970  1.0000
  H   H1780     1.0  0.82339  0.40753  0.81212  1.0000
  C   C1125     1.0  0.94669  0.58388  0.99119  1.0000
  H   H1781     1.0  0.89581  0.54730  0.97117  1.0000
  S   S449      1.0  0.93725  0.34343  0.99469  1.0000
  H   H1782     1.0  0.93487  0.35466  0.88560  1.0000
  H   H1783     1.0  0.97986  0.48717  0.89685  1.0000
  N   N108      1.0  0.92032  0.33875  0.90617  1.0000
  H   H1784     1.0  0.85049  0.41435  0.97421  1.0000
  H   H1785     1.0  0.98939  0.44635  0.91073  1.0000
  C   C1126     1.0  0.74766  0.35030  0.80048  1.0000
  H   H1786     1.0  0.73670  0.35717  0.76256  1.0000
  N   N109      1.0  0.77457  0.34966  0.75513  1.0000
  Fe  Fe223     1.0  0.80649  0.34767  0.81078  1.0000
  H   H1787     1.0  0.94683  0.35816  0.90830  1.0000
  C   C1127     1.0  0.89709  0.54488  0.98255  1.0000
  H   H1788     1.0  0.94449  0.54024  0.97992  1.0000
  H   H1789     1.0  0.79411  0.38389  0.83743  1.0000
  H   H1790     1.0  0.81421  0.41028  0.85600  1.0000
  C   C1128     1.0  0.79174  0.40373  0.83564  1.0000
  H   H1791     1.0  0.77905  0.41024  0.84468  1.0000
  C   C1129     1.0  0.71223  0.37109  0.79011  1.0000
  C   C1130     1.0  0.82568  0.40284  0.84686  1.0000
  H   H1792     1.0  0.78293  0.41031  0.82611  1.0000
  H   H1793     1.0  0.83499  0.38205  0.82403  1.0000
  H   H1794     1.0  0.84358  0.40780  0.84573  1.0000
  Fe  Fe224     1.0  0.91803  0.46187  0.88563  1.0000
  N   N110      1.0  0.81489  0.41161  0.83389  1.0000
  H   H1795     1.0  0.82827  0.38304  0.84950  1.0000
  C   C1131     1.0  0.83119  0.40188  0.82203  1.0000
  C   C1132     1.0  0.81102  0.43794  0.83100  1.0000
  H   H1796     1.0  0.84877  0.40772  0.82018  1.0000
  C   C1133     1.0  0.94053  0.34104  0.91271  1.0000
  H   H1797     1.0  0.82819  0.44441  0.82971  1.0000
  H   H1798     1.0  0.73192  0.40747  0.80683  1.0000
  C   C1134     1.0  0.73138  0.39150  0.80292  1.0000
  H   H1799     1.0  0.90667  0.37647  0.90335  1.0000
  C   C1135     1.0  0.71337  0.39159  0.79519  1.0000
  N   N111      1.0  0.98190  0.47927  0.91897  1.0000
  N   N112      1.0  0.91419  0.52295  0.98684  1.0000
  H   H1800     1.0  0.88540  0.35872  0.90275  1.0000
  H   H1801     1.0  0.70017  0.40765  0.79317  1.0000
  C   C1136     1.0  0.98055  0.45381  0.92039  1.0000
  C   C1137     1.0  0.96943  0.48841  0.93195  1.0000
  H   H1802     1.0  0.89758  0.47827  0.91655  1.0000
  S   S450      1.0  0.90196  0.50031  0.88735  1.0000
  H   H1803     1.0  0.97836  0.47924  0.94114  1.0000
  C   C1138     1.0  0.93058  0.34249  0.76752  1.0000
  H   H1804     1.0  0.91336  0.33686  0.88570  1.0000
  H   H1805     1.0  0.95167  0.50839  0.98173  1.0000
  C   C1139     1.0  0.97035  0.49296  0.90692  1.0000
  Fe  Fe225     1.0  0.68647  0.34302  0.76937  1.0000
  H   H1806     1.0  0.94643  0.34172  0.96404  1.0000
  H   H1807     1.0  0.76057  0.33419  0.80278  1.0000
  C   C1140     1.0  0.85270  0.39694  0.98137  1.0000
  C   C1141     1.0  0.99308  0.62818  0.97791  1.0000
  H   H1808     1.0  0.79871  0.36184  0.76507  1.0000
  C   C1142     1.0  0.92831  0.33812  0.89103  1.0000
  H   H1809     1.0  0.90223  0.49247  0.93795  1.0000
  H   H1810     1.0  0.96164  0.45115  0.92226  1.0000
  S   S451      1.0  0.91735  0.65590  0.93994  1.0000
  Fe  Fe226     1.0  0.96908  0.57727  0.95622  1.0000
  S   S452      1.0  0.92933  0.58701  0.95711  1.0000
  H   H1811     1.0  0.98254  0.61452  0.97749  1.0000
  Fe  Fe227     1.0  0.97830  0.58688  0.92455  1.0000
  S   S453      1.0  0.93925  0.59730  0.92276  1.0000
  H   H1812     1.0  0.98702  0.63424  0.98828  1.0000
  Fe  Fe228     1.0  0.93747  0.61778  0.94033  1.0000
  S   S454      1.0  0.98696  0.56276  0.97524  1.0000
  Fe  Fe229     1.0  0.93529  0.56556  0.93964  1.0000
  S   S455      1.0  0.91594  0.53474  0.94215  1.0000
  S   S456      1.0  0.97695  0.60942  0.94081  1.0000
  S   S457      1.0  0.97467  0.55375  0.93998  1.0000
  C   C1143     1.0  0.90516  0.50352  0.92781  1.0000
  C   C1144     1.0  0.91177  0.52569  0.92681  1.0000
  S   S458      1.0  0.99891  0.43740  0.85813  1.0000
  C   C1145     1.0  0.91190  0.53220  0.90163  1.0000
  C   C1146     1.0  0.91536  0.53993  0.91367  1.0000
  H   H1813     1.0  0.85914  0.38266  0.97469  1.0000
  H   H1814     1.0  0.94278  0.59599  0.98175  1.0000
  H   H1815     1.0  0.91424  0.54346  0.89151  1.0000
  H   H1816     1.0  0.92029  0.55710  0.91279  1.0000
  C   C1147     1.0  0.90062  0.35935  0.90802  1.0000
  H   H1817     1.0  0.93783  0.52567  0.96713  1.0000
  Fe  Fe230     1.0  0.85976  0.34407  0.81148  1.0000
  C   C1148     1.0  0.72925  0.35028  0.79290  1.0000
  H   H1818     1.0  0.98823  0.64366  0.96970  1.0000
  C   C1149     1.0  0.93810  0.52431  0.97854  1.0000
  C   C1150     1.0  0.96778  0.56674  0.99101  1.0000
  H   H1819     1.0  0.83470  0.39445  0.98715  1.0000
  H   H1820     1.0  0.95058  0.48566  0.93437  1.0000
  H   H1821     1.0  0.96014  0.65253  0.95213  1.0000
  H   H1822     1.0  0.96979  0.51246  0.90593  1.0000
  C   C1151     1.0  0.74945  0.35685  0.75257  1.0000
  H   H1823     1.0  0.93058  0.36195  0.76606  1.0000
  H   H1824     1.0  0.85932  0.43298  0.99312  1.0000
  N   N113      1.0  0.86961  0.39582  0.99112  1.0000
  H   H1825     1.0  0.93534  0.34068  0.92424  1.0000
  H   H1826     1.0  0.90083  0.38405  0.97670  1.0000
  H   H1827     1.0  0.89301  0.34518  0.75487  1.0000
  C   C1152     1.0  0.89331  0.39871  0.98295  1.0000
  C   C1153     1.0  0.90604  0.50197  0.98436  1.0000
  H   H1828     1.0  0.98932  0.44274  0.92925  1.0000
  H   H1829     1.0  0.91422  0.33910  0.77506  1.0000
  H   H1830     1.0  0.90479  0.50318  0.97306  1.0000
  C   C1154     1.0  0.90987  0.34778  0.74769  1.0000
  H   H1831     1.0  0.72803  0.33420  0.78937  1.0000
  H   H1832     1.0  0.88809  0.50036  0.99054  1.0000
  H   H1833     1.0  0.87774  0.35756  0.99424  1.0000
  H   H1834     1.0  0.91851  0.48513  0.98760  1.0000
  N   N114      1.0  0.93112  0.33460  0.75403  1.0000
  H   H1835     1.0  0.97203  0.66397  0.92195  1.0000
  S   S459      1.0  0.84636  0.33354  0.76355  1.0000
  H   H1836     1.0  0.94638  0.33293  0.77260  1.0000
  C   C1155     1.0  0.74212  0.74695  0.14294  1.0000
  S   S460      1.0  0.78038  0.68800  0.12976  1.0000
  C   C1156     1.0  0.81689  0.74036  0.12768  1.0000
  H   H1837     1.0  0.71212  0.76204  0.16522  1.0000
  H   H1838     1.0  0.91491  0.70069  0.22310  1.0000
  C   C1157     1.0  0.76780  0.72816  0.16032  1.0000
  C   C1158     1.0  0.83678  0.72889  0.13410  1.0000
  C   C1159     1.0  0.68664  0.81636  0.24313  1.0000
  C   C1160     1.0  0.80056  0.72726  0.12566  1.0000
  C   C1161     1.0  0.80345  0.70273  0.13055  1.0000
  C   C1162     1.0  0.82345  0.69109  0.13692  1.0000
  C   C1163     1.0  0.84033  0.70413  0.13849  1.0000
  H   H1839     1.0  0.92551  0.71980  0.20755  1.0000
  H   H1840     1.0  0.85586  0.69508  0.14331  1.0000
  H   H1841     1.0  0.89012  0.74850  0.17288  1.0000
  C   C1164     1.0  0.87672  0.74204  0.16858  1.0000
  S   S461      1.0  0.82039  0.68615  0.20914  1.0000
  C   C1165     1.0  0.91723  0.74184  0.23025  1.0000
  H   H1842     1.0  0.80438  0.68438  0.18339  1.0000
  H   H1843     1.0  0.74889  0.73299  0.13613  1.0000
  C   C1166     1.0  0.84770  0.74585  0.18957  1.0000
  C   C1167     1.0  0.95795  0.73406  0.21829  1.0000
  S   S462      1.0  0.89893  0.80178  0.23791  1.0000
  H   H1844     1.0  0.83640  0.76162  0.18406  1.0000
  H   H1845     1.0  0.88656  0.73030  0.16084  1.0000
  H   H1846     1.0  0.96414  0.74452  0.22473  1.0000
  H   H1847     1.0  0.77652  0.71310  0.15460  1.0000
  S   S463      1.0  0.85649  0.74572  0.13719  1.0000
  C   C1168     1.0  0.93054  0.70873  0.21750  1.0000
  H   H1848     1.0  0.76890  0.72162  0.17163  1.0000
  C   C1169     1.0  0.70301  0.66994  0.18286  1.0000
  H   H1849     1.0  0.73822  0.70224  0.15536  1.0000
  C   C1170     1.0  0.94511  0.70754  0.23910  1.0000
  N   N115      1.0  0.86098  0.72942  0.17980  1.0000
  H   H1850     1.0  0.97346  0.72033  0.21484  1.0000
  C   C1171     1.0  0.91276  0.86236  0.99776  1.0000
  H   H1851     1.0  0.83144  0.71159  0.18165  1.0000
  H   H1852     1.0  0.77858  0.74251  0.15663  1.0000
  S   S464      1.0  0.67632  0.73644  0.18443  1.0000
  H   H1853     1.0  0.91098  0.75395  0.22088  1.0000
  S   S465      1.0  0.67368  0.84727  0.18977  1.0000
  H   H1854     1.0  0.94523  0.69369  0.21481  1.0000
  H   H1855     1.0  0.89404  0.86302  0.00209  1.0000
  H   H1856     1.0  0.72362  0.75540  0.14099  1.0000
  H   H1857     1.0  0.83276  0.73594  0.16733  1.0000
  H   H1858     1.0  0.75730  0.84674  0.22367  1.0000
  C   C1172     1.0  0.72972  0.71669  0.16168  1.0000
  H   H1859     1.0  0.78545  0.73632  0.12045  1.0000
  N   N116      1.0  0.93771  0.72305  0.22627  1.0000
  H   H1860     1.0  0.73105  0.74827  0.17803  1.0000
  H   H1861     1.0  0.92220  0.75299  0.23680  1.0000
  H   H1862     1.0  0.86617  0.75774  0.16258  1.0000
  H   H1863     1.0  0.86007  0.75272  0.19450  1.0000
  S   S466      1.0  0.86492  0.86270  0.24462  1.0000
  Fe  Fe231     1.0  0.90076  0.83837  0.24095  1.0000
  H   H1864     1.0  0.75336  0.76090  0.13933  1.0000
  H   H1865     1.0  0.72934  0.70901  0.17297  1.0000
  S   S467      1.0  0.98987  0.84366  0.22875  1.0000
  C   C1173     1.0  0.73116  0.75530  0.16667  1.0000
  N   N117      1.0  0.74272  0.73679  0.15790  1.0000
  H   H1866     1.0  0.88580  0.69598  0.18049  1.0000
  C   C1174     1.0  0.87570  0.70882  0.18754  1.0000
  H   H1867     1.0  0.83566  0.73677  0.19817  1.0000
  S   S468      1.0  0.99434  0.95891  0.03848  1.0000
  H   H1868     1.0  0.94960  0.71794  0.24629  1.0000
  C   C1175     1.0  0.84382  0.72092  0.17349  1.0000
  H   H1869     1.0  0.74048  0.77080  0.16398  1.0000
  H   H1870     1.0  0.71082  0.72261  0.15976  1.0000
  H   H1871     1.0  0.74604  0.79970  0.20611  1.0000
  Fe  Fe232     1.0  0.92663  0.80722  0.21913  1.0000
  S   S469      1.0  0.92621  0.84505  0.22087  1.0000
  S   S470      1.0  0.92548  0.79302  0.19964  1.0000
  N   N118      1.0  0.92883  0.82829  0.04014  1.0000
  H   H1872     1.0  0.90355  0.87204  0.13387  1.0000
  S   S471      1.0  0.80714  0.78675  0.15621  1.0000
  H   H1873     1.0  0.72349  0.81930  0.19688  1.0000
  S   S472      1.0  0.88093  0.97172  0.03164  1.0000
  H   H1874     1.0  0.71678  0.86347  0.17484  1.0000
  H   H1875     1.0  0.71645  0.67082  0.18936  1.0000
  Fe  Fe233     1.0  0.82207  0.81731  0.15933  1.0000
  H   H1876     1.0  0.94785  0.85312  0.02561  1.0000
  S   S473      1.0  0.82343  0.82478  0.18068  1.0000
  Fe  Fe234     1.0  0.78727  0.81326  0.14070  1.0000
  C   C1176     1.0  0.68961  0.82148  0.16824  1.0000
  S   S474      1.0  0.74958  0.80992  0.14010  1.0000
  Fe  Fe235     1.0  0.83022  0.83698  0.12837  1.0000
  S   S475      1.0  0.84006  0.87048  0.11483  1.0000
  S   S476      1.0  0.79927  0.84434  0.14554  1.0000
  Fe  Fe236     1.0  0.93656  0.89967  0.05288  1.0000
  S   S477      1.0  0.97234  0.89888  0.03914  1.0000
  S   S478      1.0  0.93387  0.86728  0.06959  1.0000
  Fe  Fe237     1.0  0.91420  0.94496  0.03548  1.0000
  S   S479      1.0  0.94776  0.94764  0.02023  1.0000
  C   C1177     1.0  0.75056  0.83124  0.22184  1.0000
  Fe  Fe238     1.0  0.95149  0.90843  0.02128  1.0000
  H   H1877     1.0  0.95277  0.74649  0.20875  1.0000
  Fe  Fe239     1.0  0.96561  0.93812  0.03936  1.0000
  H   H1878     1.0  0.75287  0.84574  0.18646  1.0000
  S   S480      1.0  0.91612  0.90620  0.03483  1.0000
  S   S481      1.0  0.93159  0.93846  0.05481  1.0000
  H   H1879     1.0  0.67356  0.81398  0.17166  1.0000
  S   S482      1.0  0.81619  0.80800  0.12221  1.0000
  Fe  Fe240     1.0  0.83705  0.78346  0.13818  1.0000
  Fe  Fe241     1.0  0.95518  0.82966  0.23428  1.0000
  H   H1880     1.0  0.86441  0.69884  0.19609  1.0000
  C   C1178     1.0  0.88392  0.87320  0.13474  1.0000
  H   H1881     1.0  0.86858  0.91532  0.14389  1.0000
  H   H1882     1.0  0.90177  0.73411  0.23650  1.0000
  H   H1883     1.0  0.71735  0.81100  0.21553  1.0000
  H   H1884     1.0  0.72671  0.87334  0.21067  1.0000
  H   H1885     1.0  0.95069  0.85149  0.04358  1.0000
  S   S483      1.0  0.95739  0.79224  0.23093  1.0000
  C   C1179     1.0  0.92805  0.81401  0.02939  1.0000
  C   C1180     1.0  0.86570  0.86885  0.10194  1.0000
  C   C1181     1.0  0.86962  0.88948  0.09244  1.0000
  C   C1182     1.0  0.89035  0.88909  0.08235  1.0000
  C   C1183     1.0  0.90745  0.86812  0.08188  1.0000
  C   C1184     1.0  0.90357  0.84745  0.09140  1.0000
  C   C1185     1.0  0.88266  0.84776  0.10137  1.0000
  H   H1886     1.0  0.85655  0.90584  0.09285  1.0000
  H   H1887     1.0  0.89320  0.90509  0.07505  1.0000
  H   H1888     1.0  0.91679  0.83119  0.09108  1.0000
  H   H1889     1.0  0.87977  0.83179  0.10869  1.0000
  H   H1890     1.0  0.88883  0.71457  0.19245  1.0000
  H   H1891     1.0  0.92642  0.82540  0.01900  1.0000
  H   H1892     1.0  0.83506  0.88152  0.15988  1.0000
  N   N119      1.0  0.87124  0.87731  0.14884  1.0000
  C   C1186     1.0  0.73152  0.84032  0.15944  1.0000
  C   C1187     1.0  0.72769  0.82243  0.15293  1.0000
  C   C1188     1.0  0.70630  0.81373  0.15699  1.0000
  H   H1893     1.0  0.89974  0.85601  0.15963  1.0000
  H   H1894     1.0  0.90637  0.85709  0.04989  1.0000
  H   H1895     1.0  0.74767  0.84763  0.15606  1.0000
  H   H1896     1.0  0.70285  0.80057  0.15163  1.0000
  C   C1189     1.0  0.85167  0.81550  0.18606  1.0000
  C   C1190     1.0  0.85598  0.82320  0.19781  1.0000
  C   C1191     1.0  0.87869  0.81650  0.20197  1.0000
  C   C1192     1.0  0.89709  0.80190  0.19446  1.0000
  C   C1193     1.0  0.89276  0.79414  0.18274  1.0000
  C   C1194     1.0  0.87007  0.80090  0.17856  1.0000
  H   H1897     1.0  0.84185  0.83459  0.20363  1.0000
  H   H1898     1.0  0.88195  0.82285  0.21093  1.0000
  H   H1899     1.0  0.90706  0.78305  0.17684  1.0000
  H   H1900     1.0  0.86684  0.79491  0.16953  1.0000
  H   H1901     1.0  0.81415  0.75932  0.12406  1.0000
  H   H1902     1.0  0.73677  0.82688  0.23101  1.0000
  H   H1903     1.0  0.92173  0.99342  0.03166  1.0000
  H   H1904     1.0  0.90374  0.85837  0.03183  1.0000
  C   C1195     1.0  0.69350  0.83916  0.17487  1.0000
  S   S484      1.0  0.85400  0.81197  0.14260  1.0000
  H   H1905     1.0  0.70578  0.85358  0.21745  1.0000
  H   H1906     1.0  0.86602  0.90354  0.16232  1.0000
  C   C1196     1.0  0.72076  0.85734  0.20895  1.0000
  C   C1197     1.0  0.75962  0.84188  0.19669  1.0000
  N   N120      1.0  0.74063  0.83655  0.20854  1.0000
  H   H1907     1.0  0.76692  0.85757  0.19766  1.0000
  H   H1908     1.0  0.67989  0.81888  0.23333  1.0000
  H   H1909     1.0  0.87779  0.84005  0.15747  1.0000
  H   H1910     1.0  0.96664  0.82791  0.03417  1.0000
  C   C1198     1.0  0.71408  0.84918  0.17013  1.0000
  H   H1911     1.0  0.83782  0.89329  0.14135  1.0000
  H   H1912     1.0  0.89474  0.89959  0.15138  1.0000
  C   C1199     1.0  0.90637  0.84603  0.04182  1.0000
  H   H1913     1.0  0.71305  0.86210  0.19902  1.0000
  H   H1914     1.0  0.85319  0.70827  0.16620  1.0000
  C   C1200     1.0  0.84531  0.87866  0.14938  1.0000
  H   H1915     1.0  0.91251  0.80468  0.03227  1.0000
  C   C1201     1.0  0.73154  0.81569  0.20669  1.0000
  C   C1202     1.0  0.88030  0.85741  0.15951  1.0000
  H   H1916     1.0  0.84167  0.86192  0.14717  1.0000
  C   C1203     1.0  0.87534  0.89996  0.15174  1.0000
  H   H1917     1.0  0.87071  0.85959  0.17026  1.0000
  H   H1918     1.0  0.94833  0.79893  0.05290  1.0000
  C   C1204     1.0  0.94941  0.84071  0.03567  1.0000
  S   S485      1.0  0.86463  0.69287  0.23283  1.0000
  H   H1919     1.0  0.94461  0.80027  0.02795  1.0000
  H   H1920     1.0  0.89047  0.83731  0.04524  1.0000
  H   H1921     1.0  0.82584  0.67215  0.14071  1.0000
  H   H1922     1.0  0.88102  0.85633  0.13216  1.0000
  H   H1923     1.0  0.87733  0.88778  0.12641  1.0000
  H   H1924     1.0  0.77492  0.82656  0.19611  1.0000
  H   H1925     1.0  0.91624  0.80280  0.05739  1.0000
  C   C1205     1.0  0.93148  0.81243  0.05368  1.0000
  H   H1926     1.0  0.93198  0.82275  0.06202  1.0000
  H   H1927     1.0  0.76576  0.81579  0.22184  1.0000
  H   H1928     1.0  0.69238  0.68817  0.18046  1.0000
  S   S486      1.0  0.68738  0.78347  0.20460  1.0000
  H   H1929     1.0  0.96113  0.69370  0.23659  1.0000
  S   S487      1.0  0.68605  0.76858  0.24523  1.0000
  H   H1930     1.0  0.91741  0.88835  0.00943  1.0000
  H   H1931     1.0  0.91406  0.98601  0.00435  1.0000
  S   S488      1.0  0.96787  0.89173  0.00216  1.0000
  Fe  Fe242     1.0  0.83795  0.67348  0.22857  1.0000
  C   C1206     1.0  0.92599  0.87658  0.00198  1.0000
  C   C1207     1.0  0.80486  0.66706  0.18987  1.0000
  H   H1932     1.0  0.68787  0.85359  0.24166  1.0000
  H   H1933     1.0  0.71279  0.66473  0.17271  1.0000
  H   H1934     1.0  0.93056  0.69813  0.24503  1.0000
  Fe  Fe243     1.0  0.67148  0.67682  0.30318  1.0000
  H   H1935     1.0  0.85108  0.78588  0.30558  1.0000
  C   C1208     1.0  0.71550  0.75317  0.31111  1.0000
  H   H1936     1.0  0.76865  0.69137  0.27770  1.0000
  H   H1937     1.0  0.73193  0.71782  0.31983  1.0000
  C   C1209     1.0  0.71806  0.72828  0.31399  1.0000
  S   S489      1.0  0.83595  0.72094  0.26592  1.0000
  H   H1938     1.0  0.71537  0.94827  0.35844  1.0000
  C   C1210     1.0  0.69080  0.79360  0.25113  1.0000
  H   H1939     1.0  0.71341  0.99329  0.37079  1.0000
  C   C1211     1.0  0.70266  0.71686  0.30939  1.0000
  Fe  Fe244     1.0  0.84539  0.68903  0.25491  1.0000
  H   H1940     1.0  0.72259  0.94900  0.37537  1.0000
  S   S490      1.0  0.92969  0.82625  0.25467  1.0000
  C   C1212     1.0  0.75576  0.75191  0.27381  1.0000
  H   H1941     1.0  0.70489  0.69765  0.31156  1.0000
  H   H1942     1.0  0.72391  0.73870  0.26106  1.0000
  N   N121      1.0  0.68865  0.97044  0.37111  1.0000
  H   H1943     1.0  0.69290  0.97152  0.39226  1.0000
  H   H1944     1.0  0.67993  0.88040  0.29271  1.0000
  H   H1945     1.0  0.73214  0.70735  0.26708  1.0000
  C   C1213     1.0  0.88388  0.76199  0.26593  1.0000
  C   C1214     1.0  0.90480  0.72102  0.26888  1.0000
  H   H1946     1.0  0.84662  0.76740  0.26390  1.0000
  C   C1215     1.0  0.88356  0.71339  0.26850  1.0000
  H   H1947     1.0  0.92108  0.70805  0.27010  1.0000
  H   H1948     1.0  0.70073  0.93239  0.37395  1.0000
  H   H1949     1.0  0.81397  0.87257  0.25254  1.0000
  H   H1950     1.0  0.67161  0.95426  0.39090  1.0000
  S   S491      1.0  0.93245  0.75518  0.26490  1.0000
  C   C1216     1.0  0.86252  0.73011  0.26673  1.0000
  C   C1217     1.0  0.73224  0.72532  0.26934  1.0000
  C   C1218     1.0  0.90513  0.74539  0.26716  1.0000
  C   C1219     1.0  0.86270  0.75439  0.26553  1.0000
  Fe  Fe245     1.0  0.92959  0.78995  0.25006  1.0000
  C   C1220     1.0  0.83288  0.78329  0.31097  1.0000
  H   H1951     1.0  0.83472  0.77199  0.32136  1.0000
  H   H1952     1.0  0.82254  0.80113  0.31295  1.0000
  C   C1221     1.0  0.68455  0.73031  0.30195  1.0000
  C   C1222     1.0  0.69866  0.99225  0.36527  1.0000
  C   C1223     1.0  0.69765  0.76655  0.30347  1.0000
  C   C1224     1.0  0.68217  0.75516  0.29892  1.0000
  H   H1953     1.0  0.70197  0.77330  0.27032  1.0000
  H   H1954     1.0  0.85363  0.74979  0.29510  1.0000
  S   S492      1.0  0.81656  0.67309  0.25007  1.0000
  H   H1955     1.0  0.72032  0.72738  0.27947  1.0000
  S   S493      1.0  0.67562  0.88280  0.32613  1.0000
  C   C1225     1.0  0.77136  0.72718  0.25587  1.0000
  S   S494      1.0  0.69696  0.83227  0.30503  1.0000
  H   H1956     1.0  0.84958  0.83543  0.29546  1.0000
  H   H1957     1.0  0.78612  0.71111  0.28094  1.0000
  H   H1958     1.0  0.83615  0.73641  0.31047  1.0000
  H   H1959     1.0  0.78564  0.78792  0.31174  1.0000
  C   C1226     1.0  0.81683  0.85061  0.28702  1.0000
  Fe  Fe246     1.0  0.72095  0.84712  0.28633  1.0000
  C   C1227     1.0  0.70464  0.81014  0.26835  1.0000
  S   S495      1.0  0.72999  0.87418  0.29687  1.0000
  S   S496      1.0  0.70764  0.85729  0.26555  1.0000
  H   H1960     1.0  0.87581  0.84040  0.27237  1.0000
  H   H1961     1.0  0.74465  0.75361  0.28426  1.0000
  H   H1962     1.0  0.75689  0.70987  0.29101  1.0000
  H   H1963     1.0  0.67608  0.96890  0.35211  1.0000
  N   N122      1.0  0.82095  0.77254  0.30244  1.0000
  H   H1964     1.0  0.70603  0.86937  0.34811  1.0000
  H   H1965     1.0  0.83717  0.79151  0.28321  1.0000
  C   C1228     1.0  0.79658  0.77026  0.30976  1.0000
  H   H1966     1.0  0.71165  0.80762  0.27807  1.0000
  S   S497      1.0  0.73872  0.83076  0.32349  1.0000
  C   C1229     1.0  0.67212  0.88988  0.34321  1.0000
  H   H1967     1.0  0.79695  0.75850  0.32013  1.0000
  C   C1230     1.0  0.68974  0.88101  0.35183  1.0000
  H   H1968     1.0  0.81156  0.77983  0.28166  1.0000
  C   C1231     1.0  0.70074  0.83281  0.26025  1.0000
  C   C1232     1.0  0.84665  0.85681  0.26091  1.0000
  Fe  Fe247     1.0  0.70753  0.85789  0.31611  1.0000
  H   H1969     1.0  0.67256  0.90102  0.27750  1.0000
  C   C1233     1.0  0.84174  0.84316  0.28607  1.0000
  C   C1234     1.0  0.85660  0.84589  0.27301  1.0000
  Fe  Fe248     1.0  0.73013  0.80691  0.31045  1.0000
  H   H1970     1.0  0.66839  0.76561  0.29301  1.0000
  C   C1235     1.0  0.68623  0.88715  0.36534  1.0000
  C   C1236     1.0  0.83500  0.74871  0.30033  1.0000
  N   N123      1.0  0.75672  0.72844  0.26985  1.0000
  H   H1971     1.0  0.76392  0.74165  0.24778  1.0000
  C   C1237     1.0  0.69945  0.79064  0.26385  1.0000
  C   C1238     1.0  0.81930  0.78796  0.28867  1.0000
  H   H1972     1.0  0.74784  0.76677  0.26609  1.0000
  H   H1973     1.0  0.79013  0.72893  0.25591  1.0000
  H   H1974     1.0  0.98578  0.76254  0.25393  1.0000
  C   C1239     1.0  0.69135  0.83597  0.24777  1.0000
  C   C1240     1.0  0.80680  0.86060  0.27485  1.0000
  H   H1975     1.0  0.88350  0.69456  0.26964  1.0000
  H   H1976     1.0  0.78682  0.76268  0.30351  1.0000
  S   S498      1.0  0.79860  0.84685  0.30351  1.0000
  H   H1977     1.0  0.69566  0.78568  0.30108  1.0000
  S   S499      1.0  0.75333  0.81961  0.29072  1.0000
  H   H1978     1.0  0.88380  0.78079  0.26517  1.0000
  H   H1979     1.0  0.80765  0.80556  0.28984  1.0000
  Fe  Fe249     1.0  0.76022  0.84502  0.30324  1.0000
  C   C1241     1.0  0.82173  0.86408  0.26187  1.0000
  H   H1980     1.0  0.82686  0.74029  0.29363  1.0000
  H   H1981     1.0  0.78761  0.86632  0.27548  1.0000
  C   C1242     1.0  0.76756  0.70936  0.28034  1.0000
  S   S500      1.0  0.73545  0.76699  0.31664  1.0000
  C   C1243     1.0  0.70771  0.94916  0.36964  1.0000
  C   C1244     1.0  0.67890  0.97068  0.38612  1.0000
  H   H1982     1.0  0.70599  0.99277  0.35392  1.0000
  H   H1983     1.0  0.77396  0.75468  0.27438  1.0000
  C   C1245     1.0  0.66930  0.96971  0.36341  1.0000
  H   H1984     1.0  0.69994  0.88013  0.37195  1.0000
  H   H1985     1.0  0.99028  0.82325  0.25815  1.0000
  H   H1986     1.0  0.77205  0.70991  0.25242  1.0000
  H   H1987     1.0  0.99996  0.74439  0.26808  1.0000
  H   H1988     1.0  0.68688  0.94104  0.61430  1.0000
  H   H1989     1.0  0.73850  0.92430  0.60076  1.0000
  H   H1990     1.0  0.73030  0.96194  0.58392  1.0000
  H   H1991     1.0  0.68776  0.69030  0.54173  1.0000
  H   H1992     1.0  0.67320  0.70303  0.51913  1.0000
  C   C1246     1.0  0.67474  0.91809  0.54731  1.0000
  H   H1993     1.0  0.69214  0.91591  0.54082  1.0000
  S   S501      1.0  0.68583  0.95844  0.55263  1.0000
  H   H1994     1.0  0.72330  0.94532  0.57201  1.0000
  C   C1247     1.0  0.72355  0.91838  0.59758  1.0000
  H   H1995     1.0  0.73133  0.90793  0.58889  1.0000
  C   C1248     1.0  0.69515  0.95236  0.60498  1.0000
  C   C1249     1.0  0.68561  0.93024  0.58902  1.0000
  C   C1250     1.0  0.67920  0.68447  0.51683  1.0000
  H   H1996     1.0  0.70924  0.95951  0.60826  1.0000
  H   H1997     1.0  0.69738  0.68340  0.51051  1.0000
  C   C1251     1.0  0.71578  0.95474  0.58117  1.0000
  H   H1998     1.0  0.68114  0.96803  0.60203  1.0000
  H   H1999     1.0  0.70216  0.97022  0.57757  1.0000
  N   N124      1.0  0.70501  0.93892  0.59320  1.0000
  H   H2000     1.0  0.71603  0.90603  0.60664  1.0000
  H   H2001     1.0  0.69237  0.92035  0.57999  1.0000
  Fe  Fe250     1.0  0.67011  0.99325  0.56054  1.0000
  C   C1252     1.0  0.69443  0.67215  0.53886  1.0000
  H   H2002     1.0  0.67704  0.91814  0.59779  1.0000
  H   H2003     1.0  0.71322  0.67148  0.53345  1.0000
  H   H2004     1.0  0.67139  0.93156  0.51898  1.0000
  H   H2005     1.0  0.67075  0.92815  0.50131  1.0000
  N   N125      1.0  0.67917  0.66677  0.52987  1.0000
  H   H2006     1.0  0.67132  0.94526  0.58562  1.0000
  C   C1253     1.0  0.96828  0.71058  0.91201  1.0000
  H   H2007     1.0  0.94373  0.97803  0.97610  1.0000
  C   C1254     1.0  0.96354  0.68876  0.95201  1.0000
  C   C1255     1.0  0.95210  0.67110  0.94985  1.0000
  C   C1256     1.0  0.93056  0.67755  0.94441  1.0000
  C   C1257     1.0  0.91993  0.70179  0.94184  1.0000
  H   H2008     1.0  0.90314  0.70693  0.93776  1.0000
  C   C1258     1.0  0.93131  0.71951  0.94411  1.0000
  H   H2009     1.0  0.92334  0.73817  0.94172  1.0000
  C   C1259     1.0  0.95340  0.71300  0.94896  1.0000
  H   H2010     1.0  0.97249  0.71696  0.92106  1.0000
  C   C1260     1.0  0.98929  0.67049  0.91868  1.0000
  H   H2011     1.0  0.85363  0.95145  0.86116  1.0000
  H   H2012     1.0  0.98062  0.68372  0.95574  1.0000
  C   C1261     1.0  0.92379  0.84725  0.98796  1.0000
  H   H2013     1.0  0.83917  0.87495  0.96924  1.0000
  N   N126      1.0  0.86443  0.98290  0.86426  1.0000
  H   H2014     1.0  0.95258  0.99033  0.98929  1.0000
  S   S502      1.0  0.97034  0.73429  0.94992  1.0000
  H   H2015     1.0  0.89542  0.95790  0.85699  1.0000
  C   C1262     1.0  0.94292  0.99488  0.98006  1.0000
  H   H2016     1.0  0.97980  0.86011  0.98212  1.0000
  C   C1263     1.0  0.88975  0.97112  0.86431  1.0000
  H   H2017     1.0  0.95654  0.83543  0.97459  1.0000
  Fe  Fe251     1.0  0.93221  0.82116  0.93227  1.0000
  S   S503      1.0  0.94055  0.84270  0.94642  1.0000
  S   S504      1.0  0.91139  0.83990  0.91485  1.0000
  Fe  Fe252     1.0  0.95568  0.77408  0.94792  1.0000
  S   S505      1.0  0.96603  0.79207  0.96354  1.0000
  H   H2018     1.0  0.86602  0.86717  0.97704  1.0000
  Fe  Fe253     1.0  0.92935  0.81456  0.96381  1.0000
  C   C1264     1.0  0.98173  0.68400  0.89490  1.0000
  Fe  Fe254     1.0  0.97636  0.81896  0.94503  1.0000
  N   N127      1.0  0.98745  0.69121  0.90729  1.0000
  S   S506      1.0  0.91765  0.79441  0.94982  1.0000
  S   S507      1.0  0.96934  0.79937  0.92918  1.0000
  S   S508      1.0  0.88194  0.95257  0.90598  1.0000
  C   C1265     1.0  0.90514  0.87137  0.91180  1.0000
  C   C1266     1.0  0.88440  0.88283  0.90617  1.0000
  C   C1267     1.0  0.87790  0.90772  0.90423  1.0000
  C   C1268     1.0  0.89242  0.92156  0.90750  1.0000
  C   C1269     1.0  0.91358  0.91027  0.91285  1.0000
  C   C1270     1.0  0.91982  0.88512  0.91514  1.0000
  H   H2019     1.0  0.87300  0.87235  0.90358  1.0000
  H   H2020     1.0  0.86143  0.91627  0.90024  1.0000
  H   H2021     1.0  0.92481  0.92088  0.91548  1.0000
  H   H2022     1.0  0.93608  0.87639  0.91930  1.0000
  C   C1271     1.0  0.90516  0.99111  0.99484  1.0000
  H   H2023     1.0  0.95079  0.70454  0.91540  1.0000
  S   S509      1.0  0.99580  0.97712  0.89318  1.0000
  S   S510      1.0  0.90755  0.82910  0.98280  1.0000
  H   H2024     1.0  0.90419  0.87587  0.96316  1.0000
  C   C1272     1.0  0.85642  0.88047  0.96920  1.0000
  S   S511      1.0  0.93090  0.98663  0.91482  1.0000
  C   C1273     1.0  0.85786  0.89965  0.94499  1.0000
  H   H2025     1.0  0.96579  0.72627  0.90356  1.0000
  H   H2026     1.0  0.84059  0.89488  0.94425  1.0000
  H   H2027     1.0  0.85927  0.85245  0.94978  1.0000
  C   C1274     1.0  0.87599  0.85822  0.95059  1.0000
  C   C1275     1.0  0.96107  0.86087  0.98648  1.0000
  H   H2028     1.0  0.85227  0.89796  0.97297  1.0000
  H   H2029     1.0  0.90529  0.89004  0.94516  1.0000
  H   H2030     1.0  0.96443  0.67747  0.89741  1.0000
  H   H2031     1.0  0.88740  0.85839  0.94014  1.0000
  H   H2032     1.0  0.82981  0.97296  0.86866  1.0000
  S   S512      1.0  0.93398  0.98071  0.88188  1.0000
  H   H2033     1.0  0.86849  0.90094  0.93428  1.0000
  H   H2034     1.0  0.89069  0.90667  0.95898  1.0000
  C   C1276     1.0  0.89379  0.88893  0.95562  1.0000
  Fe  Fe255     1.0  0.90704  0.97885  0.90142  1.0000
  C   C1277     1.0  0.94786  0.84682  0.98222  1.0000
  N   N128      1.0  0.87100  0.88183  0.95510  1.0000
  H   H2035     1.0  0.85391  0.91776  0.94796  1.0000
  C   C1278     1.0  0.84907  0.96469  0.86848  1.0000
  H   H2036     1.0  0.88557  0.84421  0.95807  1.0000
  C   C1279     1.0  0.95028  0.87556  0.99647  1.0000
  H   H2037     1.0  0.98022  0.69914  0.88605  1.0000
  H   H2038     1.0  0.85130  0.95468  0.87920  1.0000
  Fe  Fe256     1.0  0.95634  0.99215  0.89466  1.0000
  H   H2039     1.0  0.99434  0.67503  0.92805  1.0000
  H   H2040     1.0  0.98979  0.90240  0.92124  1.0000
  H   H2041     1.0  0.89291  0.96153  0.87496  1.0000
  H   H2042     1.0  0.90455  0.97429  0.99126  1.0000
  H   H2043     1.0  0.98909  0.94562  0.92011  1.0000
  H   H2044     1.0  0.99581  0.66928  0.89114  1.0000
  H   H2045     1.0  0.85962  0.99076  0.88519  1.0000
  H   H2046     1.0  0.86598  0.98357  0.84216  1.0000
  H   H2047     1.0  0.90187  0.98434  0.86104  1.0000
  C   C1280     1.0  0.86125  0.99586  0.85004  1.0000
  H   H2048     1.0  0.90533  0.99667  0.96707  1.0000
