data_image0
_chemical_formula_structural       FeS2FeS2FeSFeS3FeS2FeS2FeSFeS3FeS2FeS2FeSFeS3FeS2FeS2FeSFeS3FeS2FeS2FeSFeS3FeS2FeS2FeSFeS3FeS2FeS2FeSFeS3FeS2FeS2FeSFeS3FeS2FeS2FeSFeS3FeS2FeS2FeSFeS3C6H4C6H4C6H4C6H4C6H4C6H4C6H4C6H4C6H4C6H4C6H4C6H4C6H4C6H4C6H4C6H4C6H4C6H4C6H4C6H4NC4H12NC4H12NC4H12NC4H12NC4H12NC4H12NC4H12NC4H12NC4H12NC4H12NC4H12NC4H12NC4H12NC4H12NC4H12NC4H12NC4H12NC4H12NC4H12NC4H12
_chemical_formula_sum              "Fe40 S80 C200 H320 N20"
_cell_length_a       41.218087643758786
_cell_length_b       41.345808016883915
_cell_length_c       27.90700326618022
_cell_angle_alpha    85.12392950054661
_cell_angle_beta     86.00814018508746
_cell_angle_gamma    120.89469389640983

_space_group_name_H-M_alt    "P 1"
_space_group_IT_number       1

loop_
  _space_group_symop_operation_xyz
  'x, y, z'

loop_
  _atom_site_type_symbol
  _atom_site_label
  _atom_site_symmetry_multiplicity
  _atom_site_fract_x
  _atom_site_fract_y
  _atom_site_fract_z
  _atom_site_occupancy
  Fe  Fe1       1.0  0.8407115263866298  0.6645373568728471  0.4655160437921215  1.0000
  S   S1        1.0  0.8630408076882409  0.6552252898832102  0.3953489344008965  1.0000
  S   S2        1.0  0.8318194707646465  0.7135322362908991  0.4772720087887194  1.0000
  Fe  Fe2       1.0  0.8408810533626245  0.5989447985506215  0.5230004838278641  1.0000
  S   S3        1.0  0.8627285214704319  0.5836737231330702  0.4582755322174588  1.0000
  S   S4        1.0  0.8325441064613194  0.5698812356882639  0.5988365390755679  1.0000
  Fe  Fe3       1.0  0.9034232427529958  0.6468684866957102  0.43761353457163504  1.0000
  S   S5        1.0  0.9633221117226272  0.6664168742943455  0.4022555544181762  1.0000
  Fe  Fe4       1.0  0.8212806186536389  0.5929153675165107  0.42051717582799025  1.0000
  S   S6        1.0  0.7843163776666826  0.5569259515672588  0.36708391350530944  1.0000
  S   S7        1.0  0.8849586816881603  0.6613865724817358  0.5057361263720779  1.0000
  S   S8        1.0  0.7956455672480811  0.6029027684138069  0.48738863310129094  1.0000
  Fe  Fe5       1.0  0.8102639799976188  0.12850589009325877  0.47118789758280255  1.0000
  S   S9        1.0  0.8663573851480955  0.1717149287188056  0.42658507132805207  1.0000
  S   S10       1.0  0.7658951756019378  0.0707171181305257  0.45206904176896034  1.0000
  Fe  Fe6       1.0  0.815656228866832  0.18579585551202288  0.5384342110160428  1.0000
  S   S11       1.0  0.8725380755056988  0.23317003981076534  0.5003278253387118  1.0000
  S   S12       1.0  0.7771047396085018  0.18725530555523456  0.5992474591001649  1.0000
  Fe  Fe7       1.0  0.8472562445757018  0.2134599249149639  0.4318792961504219  1.0000
  S   S13       1.0  0.8592342392188332  0.2596925808983591  0.3713026058067802  1.0000
  Fe  Fe8       1.0  0.8880689160857185  0.18843880607063415  0.497895012351963  1.0000
  S   S14       1.0  0.9453940615183557  0.1948633636247311  0.5090790559858591  1.0000
  S   S15       1.0  0.7895510477505863  0.16940498934238196  0.47005785444248815  1.0000
  S   S16       1.0  0.832803868758267  0.1419594227922859  0.5424995880956691  1.0000
  Fe  Fe9       1.0  0.6744942992933185  0.7716011038532925  0.4723693529563289  1.0000
  S   S17       1.0  0.7000496764407005  0.81907222423976  0.40983820960997874  1.0000
  S   S18       1.0  0.6807277968537055  0.7199583604816142  0.4691556378194529  1.0000
  Fe  Fe10      1.0  0.6285747602417834  0.8023286830260183  0.5209968056491411  1.0000
  S   S19       1.0  0.6506917044815609  0.851413499838324  0.4612001746525435  1.0000
  S   S20       1.0  0.5891351580422891  0.8038830858301773  0.5801609184884633  1.0000
  Fe  Fe11      1.0  0.6407230674011722  0.8085874702433987  0.410884555563283  1.0000
  S   S21       1.0  0.6167561463627269  0.8097483559940384  0.3403088868354773  1.0000
  Fe  Fe12      1.0  0.7075244999501787  0.8576283315432321  0.4658889372905664  1.0000
  S   S22       1.0  0.761908900683516  0.9139197664580829  0.4699313321383054  1.0000
  S   S23       1.0  0.6142998956930784  0.7589709717624442  0.4702957367455233  1.0000
  S   S24       1.0  0.6862462268343804  0.8107467769816264  0.5290925046122613  1.0000
  Fe  Fe13      1.0  0.6823175241210374  0.36557467270765126  0.7107995890026069  1.0000
  S   S25       1.0  0.6347022885203787  0.3177398752188067  0.7637814907364776  1.0000
  S   S26       1.0  0.6785431684559511  0.41466349806577185  0.6762402308989206  1.0000
  Fe  Fe14      1.0  0.725604049840374  0.3253348354003588  0.6994093614167738  1.0000
  S   S27       1.0  0.6821993512879496  0.27427194322466664  0.75157585758898  1.0000
  S   S28       1.0  0.7773391238543944  0.3339313559958917  0.6523200742990988  1.0000
  Fe  Fe15      1.0  0.638265256913467  0.2795646189584538  0.7140369309201602  1.0000
  S   S29       1.0  0.5880719089587437  0.22588231530916697  0.6945434273664725  1.0000
  Fe  Fe16      1.0  0.6813848916747987  0.31557884782260537  0.7991534597812915  1.0000
  S   S30       1.0  0.6686709868829477  0.2937530264513491  0.8810498955644357  1.0000
  S   S31       1.0  0.6817841331009427  0.32728211109060584  0.6582984926219205  1.0000
  S   S32       1.0  0.7291399693475208  0.36699097708922085  0.7493509396428577  1.0000
  Fe  Fe17      1.0  0.7531842460368517  0.3802229112342128  0.24835920454763455  1.0000
  S   S33       1.0  0.7047033792363369  0.32779585627631364  0.2937926731148422  1.0000
  S   S34       1.0  0.7976228335394366  0.42405999769931296  0.28911909357247695  1.0000
  Fe  Fe18      1.0  0.7264631075373765  0.3491649156680844  0.15162775485066063  1.0000
  S   S35       1.0  0.6770918826897983  0.29398564905039404  0.19139280130673195  1.0000
  S   S36       1.0  0.7371763242801788  0.3697850106187849  0.06954265075365981  1.0000
  Fe  Fe19      1.0  0.668352966934024  0.3305240760280506  0.23940544797782537  1.0000
  S   S37       1.0  0.6122459080208391  0.32749721616524147  0.25607414864738837  1.0000
  Fe  Fe20      1.0  0.7184636591612096  0.29646557733042656  0.24217383921953345  1.0000
  S   S38       1.0  0.717542434940716  0.24375128741543822  0.27428879114162563  1.0000
  S   S39       1.0  0.7158315841646269  0.38583735588399176  0.19794491883748666  1.0000
  S   S40       1.0  0.7689167740873553  0.3487009827192873  0.19872513798629085  1.0000
  Fe  Fe21      1.0  0.17282415143830954  0.7898899829840058  0.4832827343906803  1.0000
  S   S41       1.0  0.21524384642028535  0.8130584934261523  0.41542353304361024  1.0000
  S   S42       1.0  0.11361578113654608  0.7818487498785986  0.4894495896665718  1.0000
  Fe  Fe22      1.0  0.23366669492485767  0.7976873514633562  0.5473837724412176  1.0000
  S   S43       1.0  0.28024500814832437  0.8223780959330975  0.484690000721177  1.0000
  S   S44       1.0  0.24220555107548208  0.7865806621889381  0.6244718761996509  1.0000
  Fe  Fe23      1.0  0.2547657273228255  0.8568620257623066  0.45993226001506615  1.0000
  S   S45       1.0  0.2914915145389357  0.9199315246375925  0.43012849769010536  1.0000
  Fe  Fe24      1.0  0.23664758092351754  0.7763912236529428  0.4471144662222059  1.0000
  S   S46       1.0  0.246808808687598  0.7320309506193456  0.4186393467972475  1.0000
  S   S47       1.0  0.21169421367747124  0.8355766570170117  0.5258948291273717  1.0000
  S   S48       1.0  0.19085852750953425  0.7499323659720999  0.511800691527214  1.0000
  Fe  Fe25      1.0  0.42504435165068977  0.19877045578649125  0.5369404460966348  1.0000
  S   S49       1.0  0.4363250801594254  0.2302900940101542  0.4620896646408572  1.0000
  S   S50       1.0  0.4609695705114484  0.2367780893144124  0.5898128125221309  1.0000
  Fe  Fe26      1.0  0.3627556168062063  0.12301798650460086  0.5082900990633258  1.0000
  S   S51       1.0  0.37023437267681003  0.1495586867200441  0.43172052971308306  1.0000
  S   S52       1.0  0.3160498083219352  0.0610709768644292  0.5348525259657523  1.0000
  Fe  Fe27      1.0  0.43310902822508435  0.17881072699297565  0.4369215365018179  1.0000
  S   S53       1.0  0.47740002113917623  0.17817479267960254  0.3852579656667029  1.0000
  Fe  Fe28      1.0  0.37248261418255363  0.19874882277620234  0.4645342314076756  1.0000
  S   S54       1.0  0.3407835726488385  0.22557119901720854  0.4318024456665767  1.0000
  S   S55       1.0  0.4255749632449675  0.14898080745085016  0.5117450703388059  1.0000
  S   S56       1.0  0.36109964135171696  0.1704468983258637  0.5412412929486606  1.0000
  Fe  Fe29      1.0  0.17049279719447036  0.3521560608920663  0.4942160651599553  1.0000
  S   S57       1.0  0.208648208304327  0.3402421195559986  0.44606483914483447  1.0000
  S   S58       1.0  0.11205866087847767  0.34383592663416684  0.48463380770030473  1.0000
  Fe  Fe30      1.0  0.23233862685562937  0.3959570162817041  0.5580931410461318  1.0000
  S   S59       1.0  0.2749210605229283  0.387627125892573  0.5156245765619661  1.0000
  S   S60       1.0  0.2478203536655372  0.4235997076408459  0.6265423886763046  1.0000
  Fe  Fe31      1.0  0.2536980221536003  0.40119491950023567  0.4495957057075733  1.0000
  S   S61       1.0  0.30002462693056153  0.43999825362350975  0.3881616891783012  1.0000
  Fe  Fe32      1.0  0.22771395280429255  0.3274736794252348  0.515385709850605  1.0000
  S   S62       1.0  0.24087663069418266  0.2817565134326996  0.5399110794590476  1.0000
  S   S63       1.0  0.21498403432793947  0.4145821149408615  0.4920785373238056  1.0000
  S   S64       1.0  0.18584328419119853  0.3344575026250338  0.5634005899420128  1.0000
  Fe  Fe33      1.0  0.3986253646588801  0.6598196628084232  0.7236338656770345  1.0000
  S   S65       1.0  0.3441807116423886  0.6105101936375075  0.7650179410671748  1.0000
  S   S66       1.0  0.45049690753096133  0.6557197017861364  0.7060752267582789  1.0000
  Fe  Fe34      1.0  0.36419991970069115  0.7085290394692804  0.7041048956179737  1.0000
  S   S67       1.0  0.307225236989144  0.6637028895629835  0.7440529801648609  1.0000
  S   S68       1.0  0.3793085828312257  0.7629442227184576  0.6578289551083938  1.0000
  Fe  Fe35      1.0  0.34080376824335934  0.6561366926137556  0.8003646110621275  1.0000
  S   S69       1.0  0.32170352587221984  0.6531033811617492  0.8804621291836486  1.0000
  Fe  Fe36      1.0  0.3157080165371944  0.6223927869060978  0.7056094272457302  1.0000
  S   S70       1.0  0.27420486976930025  0.5858142524533064  0.6559889708913179  1.0000
  S   S71       1.0  0.397361548334069  0.7045641644194615  0.7624830301946185  1.0000
  S   S72       1.0  0.3706445416461826  0.6680241834060494  0.6622672966726293  1.0000
  Fe  Fe37      1.0  0.42172389660490234  0.6725817555824757  0.2456013445337327  1.0000
  S   S73       1.0  0.3884643414633977  0.6251501478757577  0.20241287913723302  1.0000
  S   S74       1.0  0.46216452975420363  0.6697895789992064  0.2944600347102335  1.0000
  Fe  Fe38      1.0  0.37429734473269105  0.7080445363531446  0.22611286486021337  1.0000
  S   S75       1.0  0.33688213526423827  0.6636064334980851  0.18113770243199406  1.0000
  S   S76       1.0  0.37032727452593117  0.758312180560274  0.24499866768248693  1.0000
  Fe  Fe39      1.0  0.33685016853178473  0.6222047001648424  0.2391887608844364  1.0000
  S   S77       1.0  0.2825133502288181  0.5670428555821984  0.2698691969465419  1.0000
  Fe  Fe40      1.0  0.39116366563578253  0.6696535146148629  0.14676867653088405  1.0000
  S   S78       1.0  0.40617188040344865  0.664787117394764  0.0679595021124144  1.0000
  S   S79       1.0  0.36950355476189584  0.666099103038255  0.28654758294763866  1.0000
  S   S80       1.0  0.42926355311030473  0.7177921029224493  0.18734225403406757  1.0000
  C   C1        1.0  0.34637921644092906  0.6575614935320423  0.9316938454612423  1.0000
  C   C2        1.0  0.3770087215180291  0.6518405633719307  0.9310941850914767  1.0000
  C   C3        1.0  0.3950089762595098  0.6543428663743293  0.9730340705656957  1.0000
  C   C4        1.0  0.3827169955574028  0.6627038439116264  0.016056145137298104  1.0000
  C   C5        1.0  0.3521033443882447  0.6684905275901218  0.016653310211409013  1.0000
  C   C6        1.0  0.33389579568645295  0.6656235276589684  0.9748223132739116  1.0000
  H   H1        1.0  0.3860754252530077  0.644587269753541  0.8986314213130351  1.0000
  H   H2        1.0  0.41834310415684645  0.6493578416268291  0.9724022474476548  1.0000
  H   H3        1.0  0.34245298968446214  0.6752221426085243  0.04927312438000005  1.0000
  H   H4        1.0  0.3101393376223275  0.6700006211597455  0.9757311088564073  1.0000
  C   C7        1.0  0.29491917991697103  0.47565624791091404  0.3567346452611497  1.0000
  C   C8        1.0  0.2594862357599227  0.4727384817354403  0.35867538020086537  1.0000
  C   C9        1.0  0.2559533731014187  0.5009526375094009  0.33196093171924934  1.0000
  C   C10       1.0  0.28792674115075667  0.5325831885895337  0.3040205367725247  1.0000
  C   C11       1.0  0.3234359526002086  0.5357247320503516  0.30263874584313927  1.0000
  C   C12       1.0  0.3268170210363772  0.5071285316968375  0.3284908038870757  1.0000
  H   H5        1.0  0.23467623625776374  0.4484622590660228  0.3801125254697345  1.0000
  H   H6        1.0  0.22840562742529077  0.4983514856350601  0.3331918234641926  1.0000
  H   H7        1.0  0.3482984181962109  0.5600284721924865  0.28146485656584336  1.0000
  H   H8        1.0  0.3543128928310324  0.5096090097916486  0.3268868587594709  1.0000
  C   C13       1.0  0.2553997231665819  0.4689918846424857  0.6332808061530537  1.0000
  C   C14       1.0  0.24534040654631184  0.48837777540371985  0.5997789090975041  1.0000
  C   C15       1.0  0.25073539767825564  0.5239600350393977  0.6075072204510663  1.0000
  C   C16       1.0  0.26686751306901285  0.5406878359084769  0.6481997790018559  1.0000
  C   C17       1.0  0.277278145605481  0.5214794189903161  0.6813646634708294  1.0000
  C   C18       1.0  0.2712912802960357  0.48565369900769584  0.6740779737841133  1.0000
  H   H9        1.0  0.2330957810725882  0.4758330870042924  0.56821450671613  1.0000
  H   H10       1.0  0.24265704680132064  0.5387000580767894  0.5816345764326346  1.0000
  H   H11       1.0  0.28930135917180516  0.5339005023283624  0.713096544165289  1.0000
  H   H12       1.0  0.2788093971400388  0.47062933635477894  0.7003563441639786  1.0000
  C   C19       1.0  0.31503282315351844  0.24325134496017892  0.46218101370405734  1.0000
  C   C20       1.0  0.2928668521258891  0.253369643795204  0.4359196017455435  1.0000
  C   C21       1.0  0.270732295442815  0.266101099848449  0.4589216487987757  1.0000
  C   C22       1.0  0.2705481807237442  0.26886336755289786  0.5085347047762405  1.0000
  C   C23       1.0  0.29278564339466445  0.2588352383590151  0.5347462181735413  1.0000
  C   C24       1.0  0.3153318774940742  0.24661612526344537  0.5116288052336361  1.0000
  H   H13       1.0  0.2922891185464959  0.2507071494162817  0.3976974244430541  1.0000
  H   H14       1.0  0.25294622221266233  0.27272915564493894  0.438634062198115  1.0000
  H   H15       1.0  0.292596977751345  0.2605794074447536  0.5732446841007993  1.0000
  H   H16       1.0  0.3325348715495211  0.23933801825227496  0.5322709559473112  1.0000
  C   C25       1.0  0.28114397497288635  0.7403520405275766  0.3697520844779563  1.0000
  C   C26       1.0  0.2832799940390064  0.7093655967548571  0.35664874171455113  1.0000
  C   C27       1.0  0.3101153912971323  0.714472334762522  0.3181347732544295  1.0000
  C   C28       1.0  0.3351682048383098  0.7507124581331346  0.2923223479511  1.0000
  C   C29       1.0  0.3332747302035195  0.7818177762644649  0.3056059853041598  1.0000
  C   C30       1.0  0.3063552218108131  0.7766980364202359  0.34419246561809036  1.0000
  H   H17       1.0  0.26378240132211095  0.6811290703402498  0.3760588885787707  1.0000
  H   H18       1.0  0.3111322287987016  0.6902589922340545  0.3082068628759776  1.0000
  H   H19       1.0  0.35258958476606933  0.8099616428642509  0.2858396595182556  1.0000
  H   H20       1.0  0.3049629406956479  0.8007675273860522  0.35393289258830035  1.0000
  C   C31       1.0  0.2807215362236261  0.7806733221368504  0.6336461536432353  1.0000
  C   C32       1.0  0.3130539059536414  0.7970430131685874  0.59892684968569  1.0000
  C   C33       1.0  0.34359178508026766  0.792214671107201  0.607249452757022  1.0000
  C   C34       1.0  0.3414145563574323  0.7699753330512702  0.6495814279312927  1.0000
  C   C35       1.0  0.30898844972581135  0.7533699948648112  0.6841486277599956  1.0000
  C   C36       1.0  0.2789243570732348  0.7591574529309345  0.6764557726530095  1.0000
  H   H21       1.0  0.31481313204680683  0.8137842343009719  0.5659912255415056  1.0000
  H   H22       1.0  0.36869102800183284  0.8051204028614671  0.5804766821993725  1.0000
  H   H23       1.0  0.307334059876513  0.7366218935564436  0.7172119917960366  1.0000
  H   H24       1.0  0.2540536048800596  0.7466130506636253  0.703582266623082  1.0000
  C   C37       1.0  0.2970371598653746  0.958735912243571  0.4592840004829445  1.0000
  C   C38       1.0  0.2728113849119839  0.953627264982995  0.5007373450691892  1.0000
  C   C39       1.0  0.2790019189844468  0.9852156114641656  0.523398530338163  1.0000
  C   C40       1.0  0.3092186627956507  0.02224654267688169  0.5047682287421708  1.0000
  C   C41       1.0  0.3331121568431625  0.027358171267444293  0.46302871523055805  1.0000
  C   C42       1.0  0.32697115145204864  0.9957798072255417  0.4404235268771033  1.0000
  H   H25       1.0  0.24932425673939787  0.9254289743954038  0.5154164966422872  1.0000
  H   H26       1.0  0.2602874934343919  0.9809672971025714  0.5556026589672496  1.0000
  H   H27       1.0  0.3564588326426351  0.05565998533051113  0.44819194343610785  1.0000
  H   H28       1.0  0.34581137895059155  0.00014772614960567587  0.408271846788259  1.0000
  C   C43       1.0  0.514810235235483  0.2203232764026007  0.350436302217981  1.0000
  C   C44       1.0  0.5479791527432921  0.22140191682964014  0.33211977064628967  1.0000
  C   C45       1.0  0.5783101283872625  0.2544105358312013  0.3038878787866507  1.0000
  C   C46       1.0  0.5752822653298494  0.28630039525796436  0.2929894433190929  1.0000
  C   C47       1.0  0.5421319292137516  0.2853065655241656  0.3113571982043262  1.0000
  C   C48       1.0  0.5120847716857262  0.2525167049501154  0.3404811790212787  1.0000
  H   H29       1.0  0.5501721636434651  0.1965210835767254  0.339604493220865  1.0000
  H   H30       1.0  0.6037169648651723  0.2548870712022001  0.28978465464544007  1.0000
  H   H31       1.0  0.5396681572047435  0.3099292769125431  0.3029830705413743  1.0000
  H   H32       1.0  0.48650499002706193  0.2518203458216893  0.3542344415199251  1.0000
  C   C49       1.0  0.6888645620985105  0.3154740043478988  0.9327098961802723  1.0000
  C   C50       1.0  0.6759872274850632  0.29300078456792567  0.9787046501581855  1.0000
  C   C51       1.0  0.6908197091630025  0.30879268364893536  0.020784456372887103  1.0000
  C   C52       1.0  0.7186450721261938  0.34750541826241904  0.0175395482274645  1.0000
  C   C53       1.0  0.7313227694280352  0.3699936276795557  0.971604984367344  1.0000
  C   C54       1.0  0.7166703818197916  0.35415077670878364  0.9294785202100647  1.0000
  H   H33       1.0  0.6546492643098986  0.2630244491048656  0.9817789950201262  1.0000
  H   H34       1.0  0.680979479484662  0.2909163205532428  0.055591405577570314  1.0000
  H   H35       1.0  0.7527943102173018  0.39995978617090705  0.9685094835376357  1.0000
  H   H36       1.0  0.7269375138943829  0.371896731766096  0.8945373382640082  1.0000
  C   C55       1.0  0.5535270099520306  0.22945838954979655  0.664168218382363  1.0000
  C   C56       1.0  0.5522096604128497  0.26267982955950747  0.6608339643879084  1.0000
  C   C57       1.0  0.523526990914557  0.2642882195208723  0.6381649415434174  1.0000
  C   C58       1.0  0.4963774000521294  0.23305350768058872  0.6177658537980231  1.0000
  C   C59       1.0  0.49818508327834504  0.20008115904647253  0.620075582935802  1.0000
  C   C60       1.0  0.5264794585680009  0.19820795618664125  0.6436040671202478  1.0000
  H   H37       1.0  0.5728224312437487  0.2869169436452966  0.6765856259544233  1.0000
  H   H38       1.0  0.5223013769437376  0.2898813992144827  0.6366148561139447  1.0000
  H   H39       1.0  0.47732614688042924  0.1757832541561799  0.6046955552869796  1.0000
  H   H40       1.0  0.5272965146108619  0.1723879868744485  0.6460782851467293  1.0000
  C   C61       1.0  0.5726461977842816  0.771476843959656  0.329078320963112  1.0000
  C   C62       1.0  0.5586941596573907  0.774167125041373  0.28532323728164066  1.0000
  C   C63       1.0  0.5244236185311061  0.7434668533436071  0.27442927872974016  1.0000
  C   C64       1.0  0.5043029354222712  0.7096831231718246  0.30698730415698655  1.0000
  C   C65       1.0  0.5182006108457572  0.7070696157301988  0.3507427430529259  1.0000
  C   C66       1.0  0.5518639634836074  0.738049410697782  0.36213872871561387  1.0000
  H   H41       1.0  0.5746778735451484  0.7999647261709022  0.25952535194152737  1.0000
  H   H42       1.0  0.5140991250314411  0.7455685942050347  0.24038665196801842  1.0000
  H   H43       1.0  0.5026247609607846  0.6810220777134484  0.376144880596754  1.0000
  H   H44       1.0  0.5618482437602753  0.7358372692332362  0.39630513656470984  1.0000
  C   C67       1.0  0.5495878378709401  0.7612916949739844  0.6112213905965692  1.0000
  C   C68       1.0  0.5498060318096186  0.7274708252526504  0.6178853065931021  1.0000
  C   C69       1.0  0.5191153437436364  0.694936834625163  0.6466994846125  1.0000
  C   C70       1.0  0.48774089167178925  0.6958676484628235  0.6677999926955667  1.0000
  C   C71       1.0  0.48696485581368054  0.7292684237323442  0.659644269619129  1.0000
  C   C72       1.0  0.5180821033762469  0.7620281958138653  0.6321711333166261  1.0000
  H   H45       1.0  0.5741498447653558  0.7267768263067078  0.6021157993180621  1.0000
  H   H46       1.0  0.5199234852657627  0.6691900405442304  0.6529353154791199  1.0000
  H   H47       1.0  0.46276367540607616  0.7302372464611819  0.6752733237938082  1.0000
  H   H48       1.0  0.5176888115933234  0.7880635037814909  0.6270313316203961  1.0000
  C   C73       1.0  0.8201503944390492  0.25489244434151476  0.3431839855679571  1.0000
  C   C74       1.0  0.8224406805796315  0.28725178894093617  0.31871916610912604  1.0000
  C   C75       1.0  0.7912179075310907  0.28425056103632534  0.29731929719881883  1.0000
  C   C76       1.0  0.7576826552735785  0.24871671365592304  0.29965859471959483  1.0000
  C   C77       1.0  0.7555791259419928  0.21634270108023962  0.3237760169139616  1.0000
  C   C78       1.0  0.7866016485745974  0.21941621808156656  0.3456686775926157  1.0000
  H   H49       1.0  0.8482897102413889  0.31481742802692925  0.316598473605356  1.0000
  H   H50       1.0  0.7931411837304038  0.3093968451728632  0.27888156264657005  1.0000
  H   H51       1.0  0.7298219573200119  0.18874278220446325  0.32545043181497996  1.0000
  H   H52       1.0  0.7846882739543426  0.19419753465878203  0.36381907113737677  1.0000
  C   C79       1.0  0.7786205480588164  0.228693736375503  0.6140011737964787  1.0000
  C   C80       1.0  0.7482866818279581  0.2245279056967908  0.6455980761116157  1.0000
  C   C81       1.0  0.747497436820233  0.2565610135522353  0.6571776378533686  1.0000
  C   C82       1.0  0.7773741052431669  0.2931518336976735  0.6378107861151757  1.0000
  C   C83       1.0  0.8077895766145501  0.29742732940475536  0.60612840486607  1.0000
  C   C84       1.0  0.8084215027493069  0.2652996379943574  0.5941776141470454  1.0000
  H   H53       1.0  0.725158632485475  0.19631358042429134  0.6610766356724843  1.0000
  H   H54       1.0  0.7239324999525961  0.25288088424558897  0.6815154053557965  1.0000
  H   H55       1.0  0.8311427312640897  0.325658944067896  0.5912486034412907  1.0000
  H   H56       1.0  0.8321488057535917  0.2688365443162995  0.5702297487674854  1.0000
  C   C85       1.0  0.991292279120607  0.23669265996788866  0.5040741408468553  1.0000
  C   C86       1.0  0.9967902854349469  0.2731194109737889  0.4960021872990441  1.0000
  C   C87       1.0  0.03396542973668796  0.30553436840413967  0.4900415485731344  1.0000
  C   C88       1.0  0.0659729578638193  0.30193744387337895  0.4928909108025029  1.0000
  C   C89       1.0  0.060418959484889324  0.26555596177759416  0.5020363378747681  1.0000
  C   C90       1.0  0.02326729922910764  0.23313974563159529  0.5073810409943385  1.0000
  H   H57       1.0  0.9723620172141194  0.27621043258246136  0.49450775038561506  1.0000
  H   H58       1.0  0.037944849685853856  0.33358336969350766  0.48331903229043266  1.0000
  H   H59       1.0  0.08471513431869994  0.26230806672695406  0.5043433381700401  1.0000
  H   H60       1.0  0.019268236199557753  0.2050536742157239  0.513809120485803  1.0000
  C   C91       1.0  0.7667755059197693  0.028183669149597676  0.45548972066953386  1.0000
  C   C92       1.0  0.795337324450933  0.024858570843298376  0.4753975043801744  1.0000
  C   C93       1.0  0.7938774278549466  0.9898698418270432  0.47889278999581375  1.0000
  C   C94       1.0  0.7638312048075416  0.9579295215595126  0.4627896492631246  1.0000
  C   C95       1.0  0.735509779878611  0.9614004832213029  0.44250399929048506  1.0000
  C   C96       1.0  0.7369685117596145  0.9963150928305179  0.43896504774978135  1.0000
  H   H61       1.0  0.8184455542466225  0.04916986504034244  0.4882146662322472  1.0000
  H   H62       1.0  0.8160248003254558  0.9874960355940056  0.49442924228009  1.0000
  H   H63       1.0  0.7126836755705653  0.9373010976284185  0.42905884372532477  1.0000
  H   H64       1.0  0.7149443525304194  0.9987386834801519  0.4231368851694644  1.0000
  C   C97       1.0  0.004705089846341881  0.6972433866711315  0.4282985621910861  1.0000
  C   C98       1.0  0.04007444003320515  0.7021777804277145  0.4108649868933892  1.0000
  C   C99       1.0  0.07361686008901785  0.7271572018633443  0.4300179476879768  1.0000
  C   C100      1.0  0.07212805675669086  0.747895653180808  0.46631853061989365  1.0000
  C   C101      1.0  0.03683122259793164  0.7431374692844964  0.4834399120357585  1.0000
  C   C102      1.0  0.003253251140888924  0.717721538385374  0.4649148524784349  1.0000
  H   H65       1.0  0.041529246320210156  0.6865108009005735  0.3825135740884244  1.0000
  H   H66       1.0  0.10058525317030897  0.7306232306458579  0.4163428361740224  1.0000
  H   H67       1.0  0.03537149809552138  0.7591181267811251  0.5113887707643144  1.0000
  H   H68       1.0  0.9763427565128043  0.714401922288374  0.47852306692946733  1.0000
  C   C103      1.0  0.785014435257285  0.5171411711122076  0.3498324307451307  1.0000
  C   C104      1.0  0.7639882897724621  0.4987608088473014  0.31291653306471917  1.0000
  C   C105      1.0  0.7664223746046646  0.4690999106024943  0.2952525362589945  1.0000
  C   C106      1.0  0.7904500719442843  0.45809000186513366  0.3138987554876463  1.0000
  C   C107      1.0  0.810937925778494  0.4759818631614377  0.3514725037663533  1.0000
  C   C108      1.0  0.8077177040673368  0.5049517179804163  0.369988654835118  1.0000
  H   H69       1.0  0.7461798211068223  0.5078870919316556  0.2973432705456414  1.0000
  H   H70       1.0  0.7505730096713282  0.4555024218778489  0.2662689488581116  1.0000
  H   H71       1.0  0.8294344049556814  0.46740900270709296  0.36611922782608497  1.0000
  H   H72       1.0  0.8233355032523886  0.5182923069207154  0.3991632128104563  1.0000
  C   C109      1.0  0.7894066640377904  0.5270157813426908  0.620042249586703  1.0000
  C   C110      1.0  0.7871342514019309  0.504628196188496  0.6623020637358974  1.0000
  C   C111      1.0  0.7534401286010353  0.4696987225598591  0.6793355621789348  1.0000
  C   C112      1.0  0.721498619185916  0.4576027666346996  0.654945699165146  1.0000
  C   C113      1.0  0.7236250929084126  0.48021438891543977  0.6129945435085147  1.0000
  C   C114      1.0  0.7577090585315217  0.5145469520323731  0.5950655075623704  1.0000
  H   H73       1.0  0.8116160910097325  0.5141546347884005  0.6817334510920504  1.0000
  H   H74       1.0  0.7518763662746654  0.4525435896167564  0.7119541415452201  1.0000
  H   H75       1.0  0.6989389665689789  0.47085399894519486  0.5940005028662854  1.0000
  H   H76       1.0  0.7592952544599321  0.5313402791606036  0.5621278593030812  1.0000
  C   C115      1.0  0.789912120493505  0.7151675362610918  0.47258050943371704  1.0000
  C   C116      1.0  0.7559480141743163  0.6837925546039333  0.46309437723467956  1.0000
  C   C117      1.0  0.7228494501313679  0.6858022532997073  0.46211868773391507  1.0000
  C   C118      1.0  0.7234217645282959  0.7192648868822793  0.4699850849943927  1.0000
  C   C119      1.0  0.7574844724971449  0.7507608993986479  0.4788867012927415  1.0000
  C   C120      1.0  0.790458419969362  0.7485980761901734  0.4804280863032271  1.0000
  H   H77       1.0  0.7551188092915989  0.6579439476214223  0.45674101800684425  1.0000
  H   H78       1.0  0.6966428037767087  0.6612693116363381  0.45520425373847434  1.0000
  H   H79       1.0  0.7583829983550872  0.7766891306423259  0.48502332808042503  1.0000
  H   H80       1.0  0.8165858917378502  0.7730456727378077  0.4877591461207191  1.0000
  N   N1        1.0  0.34187414098502483  0.9182790546190356  0.5695092385663441  1.0000
  C   C121      1.0  0.3552085078131007  0.9073475227632802  0.6122946003257205  1.0000
  C   C122      1.0  0.359943436968547  0.9140344719524286  0.5247576618428077  1.0000
  C   C123      1.0  0.35213049593315593  0.9583303931553847  0.5678356591724742  1.0000
  C   C124      1.0  0.30003489483973195  0.8932533657847423  0.573043326793976  1.0000
  H   H81       1.0  0.3419647244145959  0.9101473047910752  0.6466271172750271  1.0000
  H   H82       1.0  0.38672600250739886  0.9254066495721427  0.6108628504157463  1.0000
  H   H83       1.0  0.3475728900426841  0.8771259802286463  0.614793732751885  1.0000
  H   H84       1.0  0.3915451285198893  0.9328375534670779  0.5204667479389373  1.0000
  H   H85       1.0  0.3529862935681474  0.8842074676950833  0.5248848112651612  1.0000
  H   H86       1.0  0.3499678937145286  0.9215482904486982  0.49181651671244425  1.0000
  H   H87       1.0  0.34324424800806863  0.9676853479337119  0.5353211679015214  1.0000
  H   H88       1.0  0.3834688770536775  0.978022295259573  0.5661063394481096  1.0000
  H   H89       1.0  0.33806499912218657  0.9624760234899802  0.6002632379490882  1.0000
  H   H90       1.0  0.2891806527833009  0.8997119094149939  0.5405165139323518  1.0000
  H   H91       1.0  0.2851282417771938  0.8963331797398107  0.6055504495535181  1.0000
  H   H92       1.0  0.2912567377400788  0.8627719623803458  0.5758869860593405  1.0000
  N   N2        1.0  0.27878834067448455  0.5513844567163877  0.1261451182427081  1.0000
  C   C125      1.0  0.2546962492747888  0.5622601652631498  0.1536131895304621  1.0000
  C   C126      1.0  0.30732743529276946  0.5841009727211445  0.09034644583212703  1.0000
  C   C127      1.0  0.25459727455378905  0.5189926113928138  0.10066374946856357  1.0000
  C   C128      1.0  0.29856535442908255  0.5402549074164811  0.15996406223579324  1.0000
  H   H93       1.0  0.23365509025553108  0.538737829560088  0.1822309812493321  1.0000
  H   H94       1.0  0.23883378774915953  0.5702800469847049  0.12946174584507306  1.0000
  H   H95       1.0  0.27215442951156443  0.5870721866593659  0.17258400181900665  1.0000
  H   H96       1.0  0.3265890218842291  0.5774102774486314  0.06931405250446078  1.0000
  H   H97       1.0  0.2935591695306366  0.5932471973752728  0.06393100762455624  1.0000
  H   H98       1.0  0.3258665765761461  0.6091374479536292  0.1083957101150376  1.0000
  H   H99       1.0  0.23276852042868856  0.49385409712110884  0.1267724661084694  1.0000
  H   H100      1.0  0.2719433606140255  0.5101634158726746  0.0794822137762889  1.0000
  H   H101      1.0  0.2393044940774  0.526494323213303  0.07479271315356795  1.0000
  H   H102      1.0  0.3167124017618846  0.5314460997594328  0.1407454274914572  1.0000
  H   H103      1.0  0.27802306415294264  0.5164403772768869  0.18862352456476952  1.0000
  H   H104      1.0  0.3174658698841126  0.5642930813286176  0.17912026537860976  1.0000
  N   N3        1.0  0.10642321058538433  0.3618275988317319  0.62714044779797  1.0000
  C   C129      1.0  0.14430930998713534  0.3909019609723446  0.6008456871886423  1.0000
  C   C130      1.0  0.07652622830240229  0.36473438829846916  0.6043239179003009  1.0000
  C   C131      1.0  0.10470551417021089  0.36822840743218516  0.678325136521607  1.0000
  C   C132      1.0  0.10024384650719212  0.32346334200686955  0.6250217100270434  1.0000
  H   H105      1.0  0.15037166524886295  0.42028364133115254  0.6023506404676291  1.0000
  H   H106      1.0  0.1463371951435504  0.3873454215896268  0.5619109827240112  1.0000
  H   H107      1.0  0.1675576039315196  0.3890571503715355  0.6164034657562693  1.0000
  H   H108      1.0  0.04748880720527187  0.34302157006470846  0.6229498220171907  1.0000
  H   H109      1.0  0.08031573409106724  0.39333503292453725  0.6050591964245481  1.0000
  H   H110      1.0  0.07725797423000628  0.3601008621992372  0.5655957414724898  1.0000
  H   H111      1.0  0.0766126908778276  0.34663839214247644  0.6994606745279844  1.0000
  H   H112      1.0  0.1091460036464443  0.3968909071258165  0.681244938684587  1.0000
  H   H113      1.0  0.12726201802780115  0.36658120214935697  0.6962443386277745  1.0000
  H   H114      1.0  0.12215076882149724  0.3201176972633864  0.6421444901335394  1.0000
  H   H115      1.0  0.10181992250918946  0.31786145708057023  0.5868483018804401  1.0000
  H   H116      1.0  0.07168635666493794  0.3007368757118329  0.6438441987289775  1.0000
  N   N4        1.0  0.48545683009413004  0.7088655519741108  0.8343800897513293  1.0000
  C   C133      1.0  0.500037246126194  0.730111643727257  0.7847420248556167  1.0000
  C   C134      1.0  0.45776827036305506  0.6683060978597795  0.8317724541198913  1.0000
  C   C135      1.0  0.46654403968966845  0.7248556326683687  0.8624244533771153  1.0000
  C   C136      1.0  0.5175910938836324  0.7121400591693536  0.8585887877225948  1.0000
  H   H117      1.0  0.47659041514926753  0.7282319595279827  0.7653742470115968  1.0000
  H   H118      1.0  0.514121226343406  0.7185145509369678  0.762394222405951  1.0000
  H   H119      1.0  0.5211237104647239  0.7608292300648004  0.7850057261058179  1.0000
  H   H120      1.0  0.4328105764944565  0.6646670353558524  0.814358969142848  1.0000
  H   H121      1.0  0.4708148623504894  0.655611762670225  0.8097333448391019  1.0000
  H   H122      1.0  0.44672984351810796  0.651184981477807  0.8684769359979713  1.0000
  H   H123      1.0  0.45657192222283893  0.7105142131056102  0.9006432902113086  1.0000
  H   H124      1.0  0.44106046582823394  0.7213795060821299  0.8465643810782257  1.0000
  H   H125      1.0  0.48612395551423065  0.7557921008440851  0.8635132449401612  1.0000
  H   H126      1.0  0.5075983757607517  0.6963678669279952  0.8961579163335844  1.0000
  H   H127      1.0  0.5390262204977153  0.7423857317538417  0.8612247741884974  1.0000
  H   H128      1.0  0.5324913186344444  0.7003405509747135  0.8383362064110459  1.0000
  N   N5        1.0  0.6701108028965391  0.9210001889256954  0.5782662689453163  1.0000
  C   C137      1.0  0.700471405748537  0.9614717740959382  0.5757513380958357  1.0000
  C   C138      1.0  0.6876037991707774  0.8976766467776406  0.5742539241779628  1.0000
  C   C139      1.0  0.6472932191844104  0.9165625408813394  0.5380036776870858  1.0000
  C   C140      1.0  0.645000808905915  0.9081058190375131  0.6249931826266774  1.0000
  H   H129      1.0  0.7203939168102739  0.971674648264405  0.5413915713528903  1.0000
  H   H130      1.0  0.7179737383174212  0.9660644140241976  0.605946817979543  1.0000
  H   H131      1.0  0.6885569807446262  0.9802418888903236  0.5771680818384212  1.0000
  H   H132      1.0  0.7062421005251774  0.9013053210325382  0.6028419246620733  1.0000
  H   H133      1.0  0.6656229775576972  0.866863149099079  0.5772590387493448  1.0000
  H   H134      1.0  0.7055216692924062  0.9056580077009412  0.538709763178677  1.0000
  H   H135      1.0  0.6653094962562265  0.9259187851045364  0.5021624116960189  1.0000
  H   H136      1.0  0.6337038774930681  0.933810438868507  0.5397466385955917  1.0000
  H   H137      1.0  0.6242421177556469  0.8862723750499181  0.5387125253273739  1.0000
  H   H138      1.0  0.6313848657807848  0.9251602698865368  0.6293344016921684  1.0000
  H   H139      1.0  0.6612009704342356  0.9106601692545273  0.6561695164728392  1.0000
  H   H140      1.0  0.6217240623019671  0.8776451203757042  0.6275843028137721  1.0000
  N   N6        1.0  0.7449841008400315  0.24155360493854827  0.47357856153803946  1.0000
  C   C141      1.0  0.7442304020242592  0.26642532196442226  0.4329047458867641  1.0000
  C   C142      1.0  0.7281079089616217  0.2456369149481141  0.519468977817592  1.0000
  C   C143      1.0  0.7848695457320483  0.25255237341174586  0.4772014720273332  1.0000
  C   C144      1.0  0.7228188501601669  0.2014656891912129  0.4648212370976446  1.0000
  H   H141      1.0  0.7604675473345319  0.296868276666185  0.4383820768154552  1.0000
  H   H142      1.0  0.7145722087053863  0.25849902070123404  0.42812267823751454  1.0000
  H   H143      1.0  0.7572901475069982  0.2642688721192331  0.3979915991350921  1.0000
  H   H144      1.0  0.727020955980471  0.22604710093255428  0.5503760959538939  1.0000
  H   H145      1.0  0.7451228208487393  0.2750574137251363  0.5286962002410349  1.0000
  H   H146      1.0  0.6984241953024468  0.2388218107001204  0.5175834869405694  1.0000
  H   H147      1.0  0.8024635887139693  0.2824356904669203  0.4844837679848552  1.0000
  H   H148      1.0  0.7986118315068125  0.25009232688521776  0.4431420565913716  1.0000
  H   H149      1.0  0.7864197922418057  0.23391956759894658  0.5069523931996761  1.0000
  H   H150      1.0  0.6926282680128694  0.19219527297908756  0.46142457590691693  1.0000
  H   H151      1.0  0.7228244996585808  0.18192391117395973  0.4949348199382562  1.0000
  H   H152      1.0  0.7349679570865596  0.1972139131671651  0.4307486988388222  1.0000
  N   N7        1.0  0.3899232160239809  0.5841635300459682  0.6029489999302317  1.0000
  C   C145      1.0  0.39964835531619486  0.5577290114042646  0.5830648019610484  1.0000
  C   C146      1.0  0.4231462961558135  0.6235334419450222  0.5916881592710389  1.0000
  C   C147      1.0  0.3796262713695959  0.5736168231589461  0.6561288926254193  1.0000
  C   C148      1.0  0.35720065165701603  0.5816289252287128  0.5809999672402926  1.0000
  H   H153      1.0  0.4241493674848643  0.5588012380142544  0.5990163138220361  1.0000
  H   H154      1.0  0.40750226002840634  0.5648134453353099  0.5429542649866335  1.0000
  H   H155      1.0  0.37508715429540784  0.5277441769332014  0.5909558750827868  1.0000
  H   H156      1.0  0.4317477729129252  0.63263486514094  0.5518958711435311  1.0000
  H   H157      1.0  0.41691928937105394  0.6441802066651214  0.6066052536102163  1.0000
  H   H158      1.0  0.4483118144539457  0.626467426723532  0.6079212906966849  1.0000
  H   H159      1.0  0.3708873214939547  0.5921825567935928  0.6721014007710081  1.0000
  H   H160      1.0  0.40410523383009067  0.5766105362724484  0.6741871335062541  1.0000
  H   H161      1.0  0.3554566400689324  0.5436763948809307  0.666043980743887  1.0000
  H   H162      1.0  0.3480592104142295  0.6001281386032578  0.5964628915101299  1.0000
  H   H163      1.0  0.33207259699249636  0.5519883221853923  0.5876405321075006  1.0000
  H   H164      1.0  0.36416195299289505  0.5903629980924525  0.5410220169455915  1.0000
  N   N8        1.0  0.45066292099465394  0.7763447172419093  0.3419922609796165  1.0000
  C   C149      1.0  0.4102315600102166  0.763951899709911  0.3555451769326454  1.0000
  C   C150      1.0  0.45879039878048855  0.7489581868240356  0.3674445660350764  1.0000
  C   C151      1.0  0.47548989581430495  0.8145209866630532  0.3557426924517007  1.0000
  C   C152      1.0  0.4581688372844694  0.7779538466038296  0.28903108851384457  1.0000
  H   H165      1.0  0.4033226522083559  0.784290887023315  0.33730051657192395  1.0000
  H   H166      1.0  0.4031193443038022  0.7617300179803722  0.39531184108059536  1.0000
  H   H167      1.0  0.390718278367748  0.7356580200249598  0.3444162537112398  1.0000
  H   H168      1.0  0.4894277322035814  0.7583412775741111  0.3593802638386742  1.0000
  H   H169      1.0  0.45213846371979755  0.7458699763239307  0.40747274686191487  1.0000
  H   H170      1.0  0.4417906721067232  0.7201698005785686  0.35615010354132365  1.0000
  H   H171      1.0  0.5062356865521438  0.8246591580906173  0.3459494431775344  1.0000
  H   H172      1.0  0.47055553292630936  0.8143886478318404  0.39549964210714117  1.0000
  H   H173      1.0  0.4701541504336735  0.8358670706154179  0.336869520920615  1.0000
  H   H174      1.0  0.4885501462407168  0.7878776337125263  0.27716166155019983  1.0000
  H   H175      1.0  0.45118803256093537  0.7974315869686596  0.2684938505385833  1.0000
  H   H176      1.0  0.4403982938750123  0.7494322005355835  0.2777275630578614  1.0000
  N   N9        1.0  0.7790284787513055  0.6440336346238776  0.6176573263127717  1.0000
  C   C153      1.0  0.7729629394971328  0.6566196122537431  0.6636328228351249  1.0000
  C   C154      1.0  0.7550058006732847  0.6474815952634818  0.5830649924256112  1.0000
  C   C155      1.0  0.7687922411103697  0.6039362314929252  0.6270674955313497  1.0000
  C   C156      1.0  0.8195454207872772  0.6682174958878179  0.5966562141188261  1.0000
  H   H177      1.0  0.7908824254147007  0.6545046660861564  0.6903409287905472  1.0000
  H   H178      1.0  0.7426457478174386  0.6389200451415361  0.6804955203100684  1.0000
  H   H179      1.0  0.780479272322524  0.6867986893464105  0.6576410269125459  1.0000
  H   H180      1.0  0.7591304001551087  0.6383734517666726  0.5478821698742752  1.0000
  H   H181      1.0  0.7241546425343612  0.6297096008508947  0.5974110740873197  1.0000
  H   H182      1.0  0.7623865932394743  0.6775216915217948  0.5746096513425895  1.0000
  H   H183      1.0  0.7730888603817755  0.5936103649763375  0.5930912603373171  1.0000
  H   H184      1.0  0.7384350467452362  0.5846352209146202  0.6430405558321755  1.0000
  H   H185      1.0  0.7868497614608959  0.6003307224585663  0.6523360247058619  1.0000
  H   H186      1.0  0.8246409953448051  0.6599124858588954  0.5614646298710089  1.0000
  H   H187      1.0  0.8387465080096967  0.6657232246224177  0.6208601365916772  1.0000
  H   H188      1.0  0.8285253041673629  0.69878322106793  0.5891264670249791  1.0000
  N   N10       1.0  0.6244162138599182  0.3502965472548937  0.09863071434909937  1.0000
  C   C157      1.0  0.585497981842814  0.34179848014631437  0.11422224819144115  1.0000
  C   C158      1.0  0.6523751453799063  0.3840671259174311  0.11921758260004603  1.0000
  C   C159      1.0  0.632621682369284  0.35793593748265706  0.045084197961112814  1.0000
  C   C160      1.0  0.6273324068077127  0.31731972993115165  0.11633503143580813  1.0000
  H   H189      1.0  0.563658456294836  0.3162863135470392  0.09960936394417459  1.0000
  H   H190      1.0  0.5821977353898661  0.36611237930058854  0.10178563473737187  1.0000
  H   H191      1.0  0.5788052666805723  0.3358926342313184  0.15462865847148852  1.0000
  H   H192      1.0  0.6820921050888341  0.39113273407701343  0.10828619622925327  1.0000
  H   H193      1.0  0.6511116733144079  0.4096030475427007  0.10673119626792137  1.0000
  H   H194      1.0  0.6471289342258134  0.3791620724191234  0.15965034511923196  1.0000
  H   H195      1.0  0.6621874819457076  0.3652162572868425  0.03264797326084168  1.0000
  H   H196      1.0  0.6301297571162887  0.38229071204444276  0.030278277560521084  1.0000
  H   H197      1.0  0.6129154767571794  0.33267719997868944  0.028189538956488076  1.0000
  H   H198      1.0  0.6566615093495005  0.3232166216674178  0.10645702077345504  1.0000
  H   H199      1.0  0.6074626426463884  0.29144145699939994  0.10066187254764168  1.0000
  H   H200      1.0  0.6205414567346106  0.31030086510180127  0.15657959458525467  1.0000
  N   N11       1.0  0.5882908747266112  0.1863665544729798  0.8443490443031932  1.0000
  C   C161      1.0  0.5542540390905797  0.15612892627803493  0.8768497647010111  1.0000
  C   C162      1.0  0.5846785993812269  0.2199757228247298  0.8343552446807634  1.0000
  C   C163      1.0  0.591358673116416  0.17236060280499044  0.7982265064241203  1.0000
  C   C164      1.0  0.622820295275028  0.19708278449516775  0.8679507966434182  1.0000
  H   H201      1.0  0.5559638665893205  0.13027310981873497  0.8851496005318622  1.0000
  H   H202      1.0  0.5277367623431906  0.14755967009956147  0.8600825936009859  1.0000
  H   H203      1.0  0.5511933559812203  0.1658989800623601  0.9119452628841778  1.0000
  H   H204      1.0  0.6100366554358968  0.24329846578716358  0.810424483176678  1.0000
  H   H205      1.0  0.5594228404133857  0.2133554310189804  0.8155796246766726  1.0000
  H   H206      1.0  0.582538921374428  0.2316186639060926  0.8681889940947138  1.0000
  H   H207      1.0  0.5660313473639801  0.16458104592175118  0.7790422185694305  1.0000
  H   H208      1.0  0.5940934939339124  0.14697428392289857  0.8041533226345504  1.0000
  H   H209      1.0  0.6166902283809937  0.19457092238153625  0.7727533708488039  1.0000
  H   H210      1.0  0.6490690820735376  0.21997800176546442  0.8444466887356336  1.0000
  H   H211      1.0  0.6265568077824736  0.17249714216935053  0.8762486120202466  1.0000
  H   H212      1.0  0.6217874835476218  0.2084250152679219  0.9024811602243547  1.0000
  N   N12       1.0  0.9011433740213274  0.6002922873170083  0.28453123185573165  1.0000
  C   C165      1.0  0.9345767700459592  0.6005434081158729  0.2611630827422577  1.0000
  C   C166      1.0  0.9090058211964475  0.6396313710686028  0.280755490288434  1.0000
  C   C167      1.0  0.8935573878234286  0.5843354917007193  0.3362025292360436  1.0000
  C   C168      1.0  0.8673502855343461  0.5766081631609761  0.26051069151475814  1.0000
  H   H213      1.0  0.9294475126420115  0.5712050204674489  0.26354117620069467  1.0000
  H   H214      1.0  0.960376324467723  0.6179820602330051  0.27893673303147815  1.0000
  H   H215      1.0  0.941318695050336  0.6125824767636823  0.2220787125989249  1.0000
  H   H216      1.0  0.8839124580361704  0.6401794200045513  0.29723028548033964  1.0000
  H   H217      1.0  0.9334686308914416  0.6578562332874479  0.3002495822029175  1.0000
  H   H218      1.0  0.9158545337104637  0.6531308024734072  0.2423121472976776  1.0000
  H   H219      1.0  0.868528012557255  0.5839164149739454  0.3546439044904616  1.0000
  H   H220      1.0  0.9182890094364247  0.6014624237219525  0.35574224438637514  1.0000
  H   H221      1.0  0.887495433703598  0.5546667590946271  0.3407113329149739  1.0000
  H   H222      1.0  0.8418221558071105  0.5765005051896444  0.2768561730617169  1.0000
  H   H223      1.0  0.8597238408650218  0.5463491148547379  0.2642402947203049  1.0000
  H   H224      1.0  0.8721913176563265  0.5871985465928613  0.2211455837615858  1.0000
  N   N13       1.0  0.2538278863408076  0.6763050471285206  0.5662010405358611  1.0000
  C   C169      1.0  0.2615282508742155  0.6764463874995464  0.5135943522888762  1.0000
  C   C170      1.0  0.2896917619430951  0.6910680126413755  0.5879229461839247  1.0000
  C   C171      1.0  0.22616447382267138  0.6369916816001828  0.5898071441681444  1.0000
  C   C172      1.0  0.23789800021560759  0.7007030193590728  0.5735233164811824  1.0000
  H   H225      1.0  0.2822813612913557  0.7057514669421854  0.4946864471323473  1.0000
  H   H226      1.0  0.23511817329938553  0.6659599171268106  0.4959082186259656  1.0000
  H   H227      1.0  0.27332589880806313  0.6581694982806678  0.5064127869486124  1.0000
  H   H228      1.0  0.30216700561883675  0.6729568397216846  0.583833154190497  1.0000
  H   H229      1.0  0.31147313758774775  0.7205714303662729  0.5708707767238371  1.0000
  H   H230      1.0  0.2849092711192454  0.6917095656704978  0.627521420101613  1.0000
  H   H231      1.0  0.2198013120976418  0.6360045062597279  0.6295572508726628  1.0000
  H   H232      1.0  0.23744894406517292  0.6178658068476944  0.585393351088112  1.0000
  H   H233      1.0  0.19873111072303587  0.6247638331940204  0.5743336855928878  1.0000
  H   H234      1.0  0.2319574439478332  0.7017225439714085  0.6127399151069363  1.0000
  H   H235      1.0  0.2107179448490067  0.6902776071699084  0.5577489415507815  1.0000
  H   H236      1.0  0.2578991061014167  0.7305076103320735  0.5557643963367717  1.0000
  N   N14       1.0  0.167075018692186  0.8825780287331145  0.39397389939505373  1.0000
  C   C173      1.0  0.16843790544517628  0.8791342477552526  0.44681000139276095  1.0000
  C   C174      1.0  0.20614965455421952  0.900424665266278  0.36801992284137436  1.0000
  C   C175      1.0  0.15103160363624205  0.9064529716632557  0.3811619905016218  1.0000
  C   C176      1.0  0.14262383369775478  0.8442909081770481  0.3801517211073598  1.0000
  H   H237      1.0  0.13945080191737988  0.8654540291971247  0.46779205373311533  1.0000
  H   H238      1.0  0.186933668613955  0.9073001771912061  0.4587722022634914  1.0000
  H   H239      1.0  0.18000777557907105  0.8609604553479828  0.45743251825680276  1.0000
  H   H240      1.0  0.20643527732752975  0.9035898919543248  0.3279843841198662  1.0000
  H   H241      1.0  0.22553184298926165  0.9291262863333892  0.37818893229685047  1.0000
  H   H242      1.0  0.21915968559730248  0.8831952435793702  0.3769844328180384  1.0000
  H   H243      1.0  0.14952838478184113  0.9096106376467384  0.3414980267356988  1.0000
  H   H244      1.0  0.16872538018567054  0.9354897941951444  0.391260115742181  1.0000
  H   H245      1.0  0.12157426861285883  0.893684033002993  0.40032105064527723  1.0000
  H   H246      1.0  0.11305259998537609  0.8298085971788788  0.39969447816325193  1.0000
  H   H247      1.0  0.15362217316715465  0.8253120309167837  0.3896705400550935  1.0000
  H   H248      1.0  0.1407870798251262  0.8455577612622366  0.34053911935000086  1.0000
  N   N15       1.0  0.8063995087773885  0.43766904784534727  0.5617955276989508  1.0000
  C   C177      1.0  0.8320921609034394  0.4240108113656984  0.5738978649932007  1.0000
  C   C178      1.0  0.7711401496300818  0.4171379150261937  0.5969118694959039  1.0000
  C   C179      1.0  0.796627846102342  0.4304917410954836  0.5122443463800211  1.0000
  C   C180      1.0  0.8256708490543372  0.47897056857446774  0.5641531418169236  1.0000
  H   H249      1.0  0.8188284073452536  0.39313941713793044  0.5711059585928951  1.0000
  H   H250      1.0  0.838644611648653  0.4275150970016396  0.6118718219587393  1.0000
  H   H251      1.0  0.8595727055771677  0.43964277297870064  0.5492851333508728  1.0000
  H   H252      1.0  0.7507704857497054  0.4263412638240082  0.588892777686094  1.0000
  H   H253      1.0  0.7562517378870993  0.38583924852133  0.5965600196395296  1.0000
  H   H254      1.0  0.7773219801915009  0.42204342048348753  0.6347387777610849  1.0000
  H   H255      1.0  0.7818692633803376  0.3995598570667257  0.5092138625989551  1.0000
  H   H256      1.0  0.8225609444188372  0.44549837432236056  0.48475931367459035  1.0000
  H   H257      1.0  0.7772849147190737  0.4405667402654657  0.5020426336849574  1.0000
  H   H258      1.0  0.8073742835772532  0.4903290194232194  0.5541586256147555  1.0000
  H   H259      1.0  0.8528047597393074  0.4954000912530864  0.5388923251839481  1.0000
  H   H260      1.0  0.8326452659842553  0.48547232237349536  0.6013284435337547  1.0000
  N   N16       1.0  0.5617202757572419  0.26933708356875985  0.47957197716097844  1.0000
  C   C181      1.0  0.5513812120985238  0.2972725436297068  0.49190083052389816  1.0000
  C   C182      1.0  0.5851214045348644  0.282853748701757  0.43140642027674814  1.0000
  C   C183      1.0  0.5265800781290383  0.23229854131003336  0.4783442849682223  1.0000
  C   C184      1.0  0.5835854182529262  0.2648491683423764  0.5166235959093318  1.0000
  H   H261      1.0  0.5338953613277979  0.2880482513771614  0.5281904623385159  1.0000
  H   H262      1.0  0.5341805824021064  0.3007490219160574  0.46515234987996723  1.0000
  H   H263      1.0  0.5771375246036177  0.3257273077289929  0.4927733300164792  1.0000
  H   H264      1.0  0.5698262141115323  0.2876608075045309  0.4029876826867734  1.0000
  H   H265      1.0  0.6124346097912269  0.3102438624450147  0.4311291421097812  1.0000
  H   H266      1.0  0.5920404748158624  0.26170638080286773  0.41986071350820076  1.0000
  H   H267      1.0  0.5329294196889305  0.21031826407726362  0.46886302257812584  1.0000
  H   H268      1.0  0.5095682261692649  0.23476008069449494  0.4506794022053385  1.0000
  H   H269      1.0  0.5080017263598285  0.22132818553851824  0.5139213542657058  1.0000
  H   H270      1.0  0.5915174873851407  0.24369303987105648  0.5086695092931676  1.0000
  H   H271      1.0  0.5666760732966971  0.2547615875215481  0.5533361524431955  1.0000
  H   H272      1.0  0.6102275767706455  0.29228553185911904  0.5187955527847462  1.0000
  N   N17       1.0  0.9668224242907238  0.27016896903640886  0.35133097573394534  1.0000
  C   C185      1.0  0.9543355756872843  0.2866099749428003  0.38808480688029817  1.0000
  C   C186      1.0  0.9361752100473539  0.2505569374586379  0.320914800812047  1.0000
  C   C187      1.0  0.9752853998125616  0.24270332710550618  0.3759074666956271  1.0000
  C   C188      1.0  0.0015468321885609927  0.30098234851688926  0.32043177285504165  1.0000
  H   H273      1.0  0.9771540451219994  0.30278615849885837  0.41064315951712854  1.0000
  H   H274      1.0  0.9289002803967772  0.263963743220139  0.412914252747662  1.0000
  H   H275      1.0  0.9460791744066794  0.30622278259990643  0.37098139876305214  1.0000
  H   H276      1.0  0.9443301187552716  0.23758903600453243  0.2927831962741688  1.0000
  H   H277      1.0  0.9094122670390371  0.22741278471612153  0.3430881001520664  1.0000
  H   H278      1.0  0.9288051899742785  0.27041334979929216  0.3022693492769524  1.0000
  H   H279      1.0  0.9501897884345866  0.21978237537460044  0.40107361463625957  1.0000
  H   H280      1.0  0.9990122068502535  0.2567959017669859  0.3980984595454271  1.0000
  H   H281      1.0  0.9835554976827919  0.22868677391337108  0.3494751387398687  1.0000
  H   H282      1.0  0.011725247798506139  0.28958167265047924  0.29220359661108436  1.0000
  H   H283      1.0  0.025244805590658795  0.3163506430299217  0.3423183868215055  1.0000
  H   H284      1.0  0.996153146078806  0.322288097797165  0.30158370426365777  1.0000
  N   N18       1.0  0.6498906556850529  0.7245324302686162  0.32147958859151154  1.0000
  C   C189      1.0  0.637423437633248  0.736127173412971  0.2782797259384489  1.0000
  C   C190      1.0  0.6468122292345124  0.6876338555013264  0.3178171189265657  1.0000
  C   C191      1.0  0.6252912482291993  0.7206783445374978  0.36530231828764015  1.0000
  C   C192      1.0  0.6899277763343845  0.7537701149135307  0.3249022108670302  1.0000
  H   H285      1.0  0.6071923499684213  0.7148588429190826  0.2748134096266176  1.0000
  H   H286      1.0  0.6554237330981357  0.7396300126776395  0.24434360485882442  1.0000
  H   H287      1.0  0.6391660289176774  0.7637971352251806  0.280541382591147  1.0000
  H   H288      1.0  0.6563455340846901  0.6785526934341625  0.35000689438493837  1.0000
  H   H289      1.0  0.6168517270786079  0.664809376758155  0.3159002465934258  1.0000
  H   H290      1.0  0.664818577966809  0.6893264793675056  0.2849440024944736  1.0000
  H   H291      1.0  0.6329626478634436  0.710949818097265  0.3986534605406078  1.0000
  H   H292      1.0  0.5946899458894708  0.6998167549583161  0.3633938938061962  1.0000
  H   H293      1.0  0.6281327642877619  0.7483889259415305  0.3699790413320096  1.0000
  H   H294      1.0  0.6994324218877754  0.7472381506769874  0.3589623369578391  1.0000
  H   H295      1.0  0.693610840323572  0.7823932857019934  0.3249000665499094  1.0000
  H   H296      1.0  0.7097112396536777  0.7560061846187243  0.29381091159136874  1.0000
  N   N19       1.0  0.24223559529204264  0.11960419853833443  0.5052474318080078  1.0000
  C   C193      1.0  0.26270862250103966  0.15075358906147357  0.5342396279120987  1.0000
  C   C194      1.0  0.25915734731883683  0.09556247088230274  0.5062678842350858  1.0000
  C   C195      1.0  0.24567992178422166  0.1359067638005164  0.45456105709530364  1.0000
  C   C196      1.0  0.20157941387263548  0.09635600131558486  0.5259924810437894  1.0000
  H   H297      1.0  0.25044073748733936  0.16927544722020474  0.5349916041402526  1.0000
  H   H298      1.0  0.2932187863355376  0.1692763178508486  0.5187277307327032  1.0000
  H   H299      1.0  0.2618128875164294  0.13970141623922216  0.5724052166267155  1.0000
  H   H300      1.0  0.24469418830345335  0.07169425341485203  0.48474120126414405  1.0000
  H   H301      1.0  0.28989959437764484  0.1123138549509472  0.49099077124147195  1.0000
  H   H302      1.0  0.2575035289743005  0.08300433138123085  0.5439598733045323  1.0000
  H   H303      1.0  0.229203341740608  0.11336228625243398  0.43198201480013215  1.0000
  H   H304      1.0  0.275923677755932  0.15205596877419034  0.4371999106542659  1.0000
  H   H305      1.0  0.23542496813395108  0.1561553644261221  0.4525790681739026  1.0000
  H   H306      1.0  0.18525527276338857  0.0723691052852912  0.5052324319906127  1.0000
  H   H307      1.0  0.18802837752930873  0.11375613936040015  0.5255494979426748  1.0000
  H   H308      1.0  0.19814965208072202  0.08393061329336485  0.5643551323330208  1.0000
  N   N20       1.0  0.3553853886640035  0.38105798368358756  0.41877580217936916  1.0000
  C   C197      1.0  0.3837188897259373  0.3804173224143445  0.3839844417315818  1.0000
  C   C198      1.0  0.31822175509250517  0.36357335751183717  0.39989173809213935  1.0000
  C   C199      1.0  0.36828890655552854  0.4208751596425481  0.42501103325570183  1.0000
  C   C200      1.0  0.35135572067717585  0.3593760507932408  0.46605803797068435  1.0000
  H   H309      1.0  0.3747958201310132  0.3507076805309505  0.37848102990053883  1.0000
  H   H310      1.0  0.41210759486839427  0.39332376367537286  0.39708415425435806  1.0000
  H   H311      1.0  0.3873855686163363  0.39647537173993114  0.3478912155605827  1.0000
  H   H312      1.0  0.29573943302196215  0.36220965624846474  0.42601131791146496  1.0000
  H   H313      1.0  0.3197641805394491  0.38031345527710364  0.3654216896221705  1.0000
  H   H314      1.0  0.30832809818906  0.33407578438488  0.3927662037293735  1.0000
  H   H315      1.0  0.3474422135720163  0.42237031902250477  0.45085849414655216  1.0000
  H   H316      1.0  0.3711905545494918  0.4379632850090853  0.39010572879914135  1.0000
  H   H317      1.0  0.3962881141590382  0.4351484588717123  0.43903127317941826  1.0000
  H   H318      1.0  0.37819729725473455  0.37302417696696016  0.48281790857890033  1.0000
  H   H319      1.0  0.34415167272979114  0.32996048039921927  0.46208510190139246  1.0000
  H   H320      1.0  0.3282789448151091  0.35688514806391586  0.49235533016297933  1.0000
