data_image0
_chemical_formula_structural       FeS2FeS2FeSFeS3FeS2FeS2FeSFeS3FeS2FeS2FeSFeS3FeS2FeS2FeSFeS3FeS2FeS2FeSFeS3FeS2FeS2FeSFeS3FeS2FeS2FeSFeS3FeS2FeS2FeSFeS3FeS2FeS2FeSFeS3FeS2FeS2FeSFeS3FeS2FeS2FeSFeS3FeS2FeS2FeSFeS3FeS2FeS2FeSFeS3FeS2FeS2FeSFeS3FeS2FeS2FeSFeS3FeS2FeS2FeSFeS3FeS2FeS2FeSFeS3FeS2FeS2FeSFeS3FeS2FeS2FeSFeS3FeS2FeS2FeSFeS3FeS2FeS2FeSFeS3FeS2FeS2FeSFeS3FeS2FeS2FeSFeS3FeS2FeS2FeSFeS3FeS2FeS2FeSFeS3FeS2FeS2FeSFeS3FeS2FeS2FeSFeS3FeS2FeS2FeSFeS3FeS2FeS2FeSFeS3FeS2FeS2FeSFeS3FeS2FeS2FeSFeS3FeS2FeS2FeSFeS3C6H4C6H4C6H4C6H4C6H4C6H4C6H4C6H4C6H4C6H4C6H4C6H4C6H4C6H4C6H4C6H4C6H4C6H4C6H4C6H4C6H4C6H4C6H4C6H4C6H4C6H4C6H4C6H4C6H4C6H4C6H4C6H4C6H4C6H4C6H4C6H4C6H4C6H4C6H4C6H4C6H4C6H4C6H4C6H4C6H4C6H4C6H4C6H4C6H4C6H4C6H4C6H4C6H4C6H4C6H4C6H4C6H4C6H4C6H4C6H4C6H4C6H4C6H4C6H4NC4H12NC4H12NC4H12NC4H12NC4H12NC4H12NC4H12NC4H12NC4H12NC4H12NC4H12NC4H12NC4H12NC4H12NC4H12NC4H12NC4H12NC4H12NC4H12NC4H12NC4H12NC4H12NC4H12NC4H12NC4H12NC4H12NC4H12NC4H12NC4H12NC4H12NC4H12NC4H12NC4H12NC4H12NC4H12NC4H12NC4H12NC4H12NC4H12NC4H12NC4H12NC4H12NC4H12NC4H12NC4H12NC4H12NC4H12NC4H12NC4H12NC4H12NC4H12NC4H12NC4H12NC4H12NC4H12NC4H12NC4H12NC4H12NC4H12NC4H12NC4H12NC4H12NC4H12NC4H12
_chemical_formula_sum              "Fe128 S256 C640 H1024 N64"
_cell_length_a       50.78588572663053
_cell_length_b       50.960118995027265
_cell_length_c       72.4791112134696
_cell_angle_alpha    90.18784204621645
_cell_angle_beta     90.33917789729053
_cell_angle_gamma    116.98044872374976

_space_group_name_H-M_alt    "P 1"
_space_group_IT_number       1

loop_
  _space_group_symop_operation_xyz
  'x, y, z'

loop_
  _atom_site_type_symbol
  _atom_site_label
  _atom_site_symmetry_multiplicity
  _atom_site_fract_x
  _atom_site_fract_y
  _atom_site_fract_z
  _atom_site_occupancy
  Fe  Fe1       1.0  0.5136174377955636  0.3502465157887889  0.9639131968484546  1.0000
  S   S1        1.0  0.46776705594572915  0.3325901466448554  0.9753763097787504  1.0000
  S   S2        1.0  0.5283486414596337  0.32378671189717734  0.9452761151496077  1.0000
  Fe  Fe2       1.0  0.5363149510463496  0.40322538232157357  0.9889972921990323  1.0000
  S   S3        1.0  0.4930720864038938  0.39007593296938653  0.0033058589789414228  1.0000
  S   S4        1.0  0.5791288468331599  0.442794724724447  0.9950524951669457  1.0000
  Fe  Fe3       1.0  0.49006428939273633  0.344563668259715  0.0031175284133992953  1.0000
  S   S5        1.0  0.47102734798753126  0.3108477114242888  0.02583898543014329  1.0000
  Fe  Fe4       1.0  0.4741937582626868  0.3793965957598214  0.9745750365852256  1.0000
  S   S6        1.0  0.4369654808797305  0.3892036594298917  0.9647065200345926  1.0000
  S   S7        1.0  0.535260304198545  0.3590715599393559  0.9916732416601598  1.0000
  S   S8        1.0  0.518063498724511  0.3958025096804899  0.9602080704661663  1.0000
  Fe  Fe5       1.0  0.5397851359165724  0.3394314865817834  0.6059556156868817  1.0000
  S   S9        1.0  0.4966273865044116  0.3099170671027449  0.5920400419370282  1.0000
  S   S10       1.0  0.5580694570236391  0.3174956576066199  0.6257460876039698  1.0000
  Fe  Fe6       1.0  0.5443702070440805  0.3934242547266568  0.5858515384785362  1.0000
  S   S11       1.0  0.501646743738993  0.3686056597458272  0.5704267939624732  1.0000
  S   S12       1.0  0.5692452945328494  0.4421681336869238  0.5811148723314056  1.0000
  Fe  Fe7       1.0  0.4849536635488877  0.34691905167848824  0.5976954369808355  1.0000
  S   S13       1.0  0.44192307150745774  0.3361532845349562  0.6118617565320911  1.0000
  Fe  Fe8       1.0  0.5172689560576755  0.3340967710339644  0.5661734717436279  1.0000
  S   S14       1.0  0.5204458641839802  0.31660959598953137  0.5379906116300937  1.0000
  S   S15       1.0  0.5265851883890181  0.3744921516347868  0.6135035759145318  1.0000
  S   S16       1.0  0.5614413964930356  0.360757563950939  0.5795338095878494  1.0000
  Fe  Fe9       1.0  0.7207386228439286  0.17347197732221928  0.6181531210796795  1.0000
  S   S17       1.0  0.7483972149655695  0.16744806855281363  0.5959416364781888  1.0000
  S   S18       1.0  0.7408529624113015  0.197270293420889  0.6448982027549514  1.0000
  Fe  Fe10      1.0  0.6664171366329862  0.1515984071463206  0.593641883971032  1.0000
  S   S19       1.0  0.6895938174910006  0.14515386759915025  0.5692006363167877  1.0000
  S   S20       1.0  0.6184414804454197  0.14037974045742888  0.5914764835710641  1.0000
  Fe  Fe11      1.0  0.7076766467769062  0.12445096780972291  0.589886121409672  1.0000
  S   S21       1.0  0.7052399189393163  0.08077755632076027  0.5803384862261898  1.0000
  Fe  Fe12      1.0  0.7278728634491779  0.18826125244092223  0.577233359684938  1.0000
  S   S22       1.0  0.7523425055825991  0.23040754198748928  0.5610275035146577  1.0000
  S   S23       1.0  0.6821517305530427  0.1286896882627195  0.613955783308956  1.0000
  S   S24       1.0  0.7024336875687552  0.1963897173514271  0.5998231575162192  1.0000
  Fe  Fe13      1.0  0.5019715935355606  0.10990415971679278  0.4926292126023875  1.0000
  S   S25       1.0  0.5464584595212868  0.13734861883584543  0.4802118940173577  1.0000
  S   S26       1.0  0.49108376733232145  0.06143672818867084  0.49490201741125567  1.0000
  Fe  Fe14      1.0  0.49430001836292836  0.16502496645784198  0.5013772961230403  1.0000
  S   S27       1.0  0.5376444433950828  0.1960220873222259  0.4889037880997433  1.0000
  S   S28       1.0  0.46675733185749907  0.1804903706091723  0.5184085356990488  1.0000
  Fe  Fe15      1.0  0.5253539049119684  0.16220609173397618  0.46630245277878096  1.0000
  S   S29       1.0  0.5376341663843371  0.1700253773522135  0.4361647659984126  1.0000
  Fe  Fe16      1.0  0.5549162557632256  0.1685173999966978  0.5036814268422919  1.0000
  S   S30       1.0  0.5997485632388918  0.19273311294264336  0.5168429824930854  1.0000
  S   S31       1.0  0.47982939621725956  0.13296607433557234  0.47733000865620584  1.0000
  S   S32       1.0  0.5124326709938536  0.13932655375557199  0.5175909291857217  1.0000
  Fe  Fe17      1.0  0.49084367412133795  0.1424734849869851  0.086316798311321  1.0000
  S   S33       1.0  0.5230694244660844  0.14442499489000155  0.10831555054252463  1.0000
  S   S34       1.0  0.4522169525711271  0.09914751540457899  0.07703530661821  1.0000
  Fe  Fe18      1.0  0.5290194158691469  0.20761782243942  0.07501536726000377  1.0000
  S   S35       1.0  0.5638453089119781  0.2129782630744133  0.09591883587089951  1.0000
  S   S36       1.0  0.5452087620449592  0.2486398539422658  0.057318576812021044  1.0000
  Fe  Fe19      1.0  0.5574933009122097  0.16852591530228486  0.08699166364641105  1.0000
  S   S37       1.0  0.5970966666758167  0.16002719673720117  0.08314073312676071  1.0000
  Fe  Fe20      1.0  0.5262874373535226  0.18894386727388254  0.11499977035076647  1.0000
  S   S38       1.0  0.5287915671273616  0.21002177575858252  0.14277580431415163  1.0000
  S   S39       1.0  0.5253137839133879  0.16459586205236976  0.06460628281988899  1.0000
  S   S40       1.0  0.49115457726277956  0.18557763363240556  0.09463556940758762  1.0000
  Fe  Fe21      1.0  0.7118701790038358  0.5098604713178999  0.10795747677860168  1.0000
  S   S41       1.0  0.7328581579732657  0.5524820558134279  0.09221516752533969  1.0000
  S   S42       1.0  0.7331406823032456  0.49990161415664686  0.13256078320552364  1.0000
  Fe  Fe22      1.0  0.661063232087372  0.4818361081843368  0.08176036996651195  1.0000
  S   S43       1.0  0.6769364204869364  0.5212893328819103  0.0635235178302887  1.0000
  S   S44       1.0  0.6196185427288176  0.4401650959357675  0.07637642390284204  1.0000
  Fe  Fe23      1.0  0.7218931977888684  0.5236196729424848  0.06709493622346537  1.0000
  S   S45       1.0  0.7481823215008098  0.5333026347027352  0.040712736348311275  1.0000
  Fe  Fe24      1.0  0.6865566103360022  0.5477086179889296  0.08957634081069855  1.0000
  S   S46       1.0  0.6798283294194339  0.588760218986631  0.08701822901837539  1.0000
  S   S47       1.0  0.7048459541861263  0.48143080646754827  0.08290609936469505  1.0000
  S   S48       1.0  0.6666379726181542  0.5078072103282425  0.10782585267729336  1.0000
  Fe  Fe25      1.0  0.6698189221950716  0.29378267979784806  0.1978035477170263  1.0000
  S   S49       1.0  0.6486954586723825  0.32172148621311125  0.20731127260869003  1.0000
  S   S50       1.0  0.6460390449969937  0.24598915846495042  0.18963048567528368  1.0000
  Fe  Fe26      1.0  0.7310809776949819  0.3446188421564672  0.19728518727054556  1.0000
  S   S51       1.0  0.7150219388293426  0.3770188567990963  0.2061982383036825  1.0000
  S   S52       1.0  0.7799233143275551  0.36160167141544336  0.19275095103997744  1.0000
  Fe  Fe27      1.0  0.6875801175564834  0.34261222470296454  0.22679033253748002  1.0000
  S   S53       1.0  0.6872514771206707  0.36267268307554346  0.254932972176012  1.0000
  Fe  Fe28      1.0  0.6778592235159943  0.35368673008929524  0.18615149639682246  1.0000
  S   S54       1.0  0.6567306855828482  0.3736855140237185  0.16696951603960214  1.0000
  S   S55       1.0  0.7063506564758287  0.3116818146824939  0.21915634228122868  1.0000
  S   S56       1.0  0.6963148354477029  0.32432258787918194  0.17536048695059087  1.0000
  Fe  Fe29      1.0  0.6649439076635012  0.31626543254101114  0.398967747428937  1.0000
  S   S57       1.0  0.6771001294059156  0.3499941072966814  0.37651215307443303  1.0000
  S   S58       1.0  0.6213875433835908  0.3021887027093084  0.413542170492268  1.0000
  Fe  Fe30      1.0  0.7254746387371712  0.3168268906790166  0.39873487833945886  1.0000
  S   S59       1.0  0.7425481486606375  0.3503347223333514  0.3760907564993955  1.0000
  S   S60       1.0  0.7490468933446024  0.2943476039884167  0.4134554457978717  1.0000
  Fe  Fe31      1.0  0.7202795902666512  0.37299831982759896  0.391858807312446  1.0000
  S   S61       1.0  0.743194925817227  0.42080160984549164  0.40060031210484  1.0000
  Fe  Fe32      1.0  0.6978772507809848  0.3244613054662341  0.36251264171913994  1.0000
  S   S62       1.0  0.6881267282092405  0.30557027719298896  0.3331200956148148  1.0000
  S   S63       1.0  0.7065784038836695  0.34122266177634464  0.41527027874237765  1.0000
  S   S64       1.0  0.6824559652784363  0.28895307284567184  0.38423680348183603  1.0000
  Fe  Fe33      1.0  0.7340647105691236  0.5392582446234452  0.4948501640344096  1.0000
  S   S65       1.0  0.716566195981214  0.49119956958279526  0.48807802586829657  1.0000
  S   S66       1.0  0.78264294541722  0.5700731716965541  0.49838173182363016  1.0000
  Fe  Fe34      1.0  0.6730846910563222  0.5369422381863821  0.49736048604580935  1.0000
  S   S67       1.0  0.6502899131911583  0.48850571033530116  0.4910108502836874  1.0000
  S   S68       1.0  0.6482952804951209  0.560603275923501  0.5093381671962379  1.0000
  Fe  Fe35      1.0  0.6834013913407224  0.48507659451607343  0.509916689452459  1.0000
  S   S69       1.0  0.6708430846658748  0.4488578061852787  0.5304292155745505  1.0000
  Fe  Fe36      1.0  0.6849477400524743  0.4980997137866973  0.46937009325991863  1.0000
  S   S70       1.0  0.6672203253938327  0.4717021052923425  0.4430767180453317  1.0000
  S   S71       1.0  0.7034711898218993  0.532302547124494  0.5183305459378441  1.0000
  S   S72       1.0  0.7052972867766799  0.5473037057817348  0.47399905105698376  1.0000
  Fe  Fe37      1.0  0.8971286837983349  0.5445772435724319  0.009871455891249825  1.0000
  S   S73       1.0  0.864773624922429  0.5018359699301556  0.9973526503085485  1.0000
  S   S74       1.0  0.8828332508129367  0.5595510460349874  0.03581884526169499  1.0000
  Fe  Fe38      1.0  0.9470172355736712  0.550870763188786  0.9835025095036081  1.0000
  S   S75       1.0  0.9171867396902873  0.5085413861763716  0.968676684652044  1.0000
  S   S76       1.0  0.995098078704299  0.5669686066068016  0.9750561326531343  1.0000
  Fe  Fe39      1.0  0.8821078757989232  0.5234655478139864  0.9702143633381686  1.0000
  S   S77       1.0  0.8466021534590091  0.5148852309139246  0.9487105084224693  1.0000
  Fe  Fe40      1.0  0.9024292149658195  0.49073353658796853  0.9968307883388935  1.0000
  S   S78       1.0  0.8937994785517005  0.4446132386091246  0.003056482528341009  1.0000
  S   S79       1.0  0.9126955103701415  0.5678192323714567  0.9826441948914157  1.0000
  S   S80       1.0  0.9339763821365391  0.5315886283156125  0.011703065288691583  1.0000
  Fe  Fe41      1.0  0.8490472062818357  0.3186463904006884  0.11172219587966434  1.0000
  S   S81       1.0  0.8683876572945406  0.2943802775801526  0.0952011703272403  1.0000
  S   S82       1.0  0.8136892622299526  0.29218755728589546  0.13216325155614883  1.0000
  Fe  Fe42      1.0  0.8850583673629702  0.37562370248178334  0.09158296250041185  1.0000
  S   S83       1.0  0.9078045765560693  0.35627556037547775  0.07361460384344397  1.0000
  S   S84       1.0  0.8938443337224001  0.4225058645876987  0.08843725057001395  1.0000
  Fe  Fe43      1.0  0.8623004669287239  0.3179564959850786  0.07082577283749524  1.0000
  S   S85       1.0  0.8397477895339197  0.2985331235524176  0.0436095016788338  1.0000
  Fe  Fe44      1.0  0.9119288429836004  0.33503266048796215  0.0998072320995416  1.0000
  S   S86       1.0  0.9505471477736022  0.32953198343802004  0.11161708596562737  1.0000
  S   S87       1.0  0.8395429672665552  0.3391663034111527  0.08701482508553453  1.0000
  S   S88       1.0  0.8925691604227102  0.3574233848339277  0.11804406432317713  1.0000
  Fe  Fe45      1.0  0.6581511213308117  0.13296100830133006  0.9958636304797291  1.0000
  S   S89       1.0  0.6782604212027334  0.106001436134023  0.008196886740151621  1.0000
  S   S90       1.0  0.6113843457489739  0.12192210669017259  0.0022950461203157246  1.0000
  Fe  Fe46      1.0  0.710917783109668  0.16909788743952991  0.9718395564077831  1.0000
  S   S91       1.0  0.7348842001798881  0.14375117692211908  0.9816637484439199  1.0000
  S   S92       1.0  0.7363496151384571  0.20895448949753612  0.9537634841153764  1.0000
  Fe  Fe47      1.0  0.6912738337054245  0.10301950019312803  0.9790879240793093  1.0000
  S   S93       1.0  0.6811828899621972  0.060162054558469055  0.9642692300360883  1.0000
  Fe  Fe48      1.0  0.7197120044252786  0.14925477326638018  0.009805691016174567  1.0000
  S   S94       1.0  0.7512931414028251  0.16304621608470662  0.034246590805583565  1.0000
  S   S95       1.0  0.6687868036041609  0.12795711302188578  0.9665633493932398  1.0000
  S   S96       1.0  0.6979493385010398  0.17648626567641484  0.00020987849882314613  1.0000
  Fe  Fe49      1.0  0.6851253081853408  0.3677233904738449  0.6956620237692196  1.0000
  S   S97       1.0  0.7135041289899627  0.3617545362414519  0.6742698152429365  1.0000
  S   S98       1.0  0.6568969288858628  0.3888521151727189  0.6856483593643297  1.0000
  Fe  Fe50      1.0  0.7095951088460656  0.3438307420844623  0.7270558496489743  1.0000
  S   S99       1.0  0.7403408430932862  0.3367531441606221  0.7074978199224786  1.0000
  S   S100      1.0  0.7064955455735882  0.32363945094799174  0.7556943833027308  1.0000
  Fe  Fe51      1.0  0.7494336796739781  0.3807404465381202  0.6956234019445839  1.0000
  S   S101      1.0  0.7948204869452377  0.41752486338602945  0.6895138240162177  1.0000
  Fe  Fe52      1.0  0.7016734515337335  0.3184877620389598  0.687889730878701  1.0000
  S   S102      1.0  0.6809856610918859  0.27601814630533567  0.671551207373433  1.0000
  S   S103      1.0  0.7218260585365629  0.38955340439910885  0.7166038394868804  1.0000
  S   S104      1.0  0.6702735517678906  0.3229057102844959  0.7078743387715032  1.0000
  Fe  Fe53      1.0  0.6837320172356924  0.36701000806262934  0.9036641309067359  1.0000
  S   S105      1.0  0.7097752283256071  0.347954141684868  0.9188202158777792  1.0000
  S   S106      1.0  0.6599750852995666  0.3910200428547697  0.9162379043649059  1.0000
  Fe  Fe54      1.0  0.7015462235637876  0.3548696901228508  0.8651478884595643  1.0000
  S   S107      1.0  0.7280917779505758  0.33357859061538203  0.8771938803267086  1.0000
  S   S108      1.0  0.69910143352508  0.3717309622445846  0.8362674600191204  1.0000
  Fe  Fe55      1.0  0.69089966329381  0.3120628981809687  0.8973688779493942  1.0000
  S   S109      1.0  0.6687965030919844  0.2642590111006607  0.9057828758215837  1.0000
  Fe  Fe56      1.0  0.7450739120604619  0.3710006477302166  0.8977614147189873  1.0000
  S   S110      1.0  0.7943796091347164  0.3950865875869288  0.9030557110530458  1.0000
  S   S111      1.0  0.6624551468587018  0.3298498999386831  0.8834722437973063  1.0000
  S   S112      1.0  0.721041159297975  0.3934774263832497  0.8846841092714725  1.0000
  Fe  Fe57      1.0  0.8712788455874505  0.5597644404618383  0.5814300626138824  1.0000
  S   S113      1.0  0.8514336084038654  0.5142269619051022  0.5697659338196841  1.0000
  S   S114      1.0  0.8454586983475418  0.5854203492668835  0.5764882403453359  1.0000
  Fe  Fe58      1.0  0.9248384490844984  0.5550736465702258  0.5973700727078195  1.0000
  S   S115      1.0  0.9079205130919015  0.5084291968137818  0.587184802389839  1.0000
  S   S116      1.0  0.969517956983053  0.5716016606090205  0.6119367905414617  1.0000
  Fe  Fe59      1.0  0.8973593403771382  0.5253501575477671  0.5611889143923406  1.0000
  S   S117      1.0  0.9078066257558982  0.5140089310019238  0.5330662553301638  1.0000
  Fe  Fe60      1.0  0.8632638950808601  0.5011827915338877  0.5969519939223075  1.0000
  S   S118      1.0  0.8273768412449891  0.45697713126171874  0.6063073875994368  1.0000
  S   S119      1.0  0.9168506612377616  0.5723629329189333  0.5705252921246005  1.0000
  S   S120      1.0  0.8805325831308376  0.5464698259067583  0.6094942598043133  1.0000
  Fe  Fe61      1.0  0.8762392128040617  0.30241409242729694  0.4935595203536352  1.0000
  S   S121      1.0  0.8577396140823996  0.33450347323259977  0.4904061607670703  1.0000
  S   S122      1.0  0.8489535519656075  0.2540196747860944  0.49965575503841975  1.0000
  Fe  Fe62      1.0  0.9405039108238407  0.34979252512724424  0.49071236652476585  1.0000
  S   S123      1.0  0.9275926754310438  0.38638532456598973  0.4877671903381628  1.0000
  S   S124      1.0  0.9854969354372151  0.35178002941846137  0.49642068265290695  1.0000
  Fe  Fe63      1.0  0.8940529307050477  0.3631791628232275  0.5096698494841019  1.0000
  S   S125      1.0  0.8819103551567259  0.38080548216204485  0.5347869345809234  1.0000
  Fe  Fe64      1.0  0.8919744984195321  0.35495388738236333  0.4685403077782908  1.0000
  S   S126      1.0  0.8794735911216461  0.37255489814018494  0.44324987263814714  1.0000
  S   S127      1.0  0.9099275498562  0.3295597501805039  0.5145551254100581  1.0000
  S   S128      1.0  0.9074959622078274  0.31999531026938455  0.4696767696041031  1.0000
  Fe  Fe65      1.0  0.5846231919678909  0.8976875020313917  0.9948567706293827  1.0000
  S   S129      1.0  0.5564063366936185  0.8972098325135017  0.970688385133346  1.0000
  S   S130      1.0  0.6277363986194718  0.9358067304159334  0.004180885056380701  1.0000
  Fe  Fe66      1.0  0.5365889080950298  0.8396520039822011  0.010629195324532992  1.0000
  S   S131      1.0  0.5046353601990952  0.8352973533172884  0.9879676350780816  1.0000
  S   S132      1.0  0.5176833004372118  0.8063898893196109  0.03359844371245302  1.0000
  Fe  Fe67      1.0  0.5434521437332038  0.8485411903904034  0.9692885341263452  1.0000
  S   S133      1.0  0.5375241990739622  0.8192800142899648  0.9444836533922654  1.0000
  Fe  Fe68      1.0  0.5202054678089728  0.8836998718933474  0.9915964247903556  1.0000
  S   S134      1.0  0.4899179798223621  0.9042399757415143  0.9962630536476611  1.0000
  S   S135      1.0  0.5748760319032655  0.8499046645042564  0.9918420079537237  1.0000
  S   S136      1.0  0.5490433837065968  0.8871573161389604  0.015800492676904643  1.0000
  Fe  Fe69      1.0  0.4004827251914472  0.9278095748862512  0.10299592900244484  1.0000
  S   S137      1.0  0.4187681568941259  0.9002492189033846  0.11725256379931258  1.0000
  S   S138      1.0  0.4191361478554296  0.9749225465967435  0.11402173253091047  1.0000
  Fe  Fe70      1.0  0.357778730097937  0.8752708541900084  0.07933459308553206  1.0000
  S   S139      1.0  0.373413451463124  0.844508550241191  0.09155984237556633  1.0000
  S   S140      1.0  0.3229157451271629  0.8602961148621883  0.05667195975237506  1.0000
  Fe  Fe71      1.0  0.37195847014134326  0.8650195280495061  0.1186157595884451  1.0000
  S   S141      1.0  0.34995670559088815  0.836592651185876  0.1432157020034556  1.0000
  Fe  Fe72      1.0  0.418537699656201  0.8823382740730917  0.08899429340954484  1.0000
  S   S142      1.0  0.4540777531535692  0.8713132254147762  0.07916050417662747  1.0000
  S   S143      1.0  0.3531447946465764  0.8936590694312071  0.10668610747064172  1.0000
  S   S144      1.0  0.4034698888915642  0.9120283043420346  0.07443679426862378  1.0000
  Fe  Fe73      1.0  0.3817499726513899  0.5061553982136828  0.9900143047808841  1.0000
  S   S145      1.0  0.3927549175588603  0.5470829242517722  0.9736434567976743  1.0000
  S   S146      1.0  0.42038279371619797  0.4970007776299126  0.9971470215237119  1.0000
  Fe  Fe74      1.0  0.3175533026709699  0.4942211660820057  0.9946683854006731  1.0000
  S   S147      1.0  0.3231316560790716  0.5336656610484102  0.9782831010597213  1.0000
  S   S148      1.0  0.2729519376595959  0.4637878953890183  0.006422310934653508  1.0000
  Fe  Fe75      1.0  0.3496961752765153  0.5206673623525798  0.9590768719344412  1.0000
  S   S149      1.0  0.34367463860804  0.5221601286219596  0.9283217914939749  1.0000
  Fe  Fe76      1.0  0.3655766818851752  0.5568045833190157  0.9940498365478091  1.0000
  S   S150      1.0  0.3827212587905568  0.6034812903429186  0.003771229297408807  1.0000
  S   S151      1.0  0.34032505534007035  0.47861863918997843  0.9738458142620934  1.0000
  S   S152      1.0  0.35831665797288537  0.5184188050859455  0.012099815949567994  1.0000
  Fe  Fe77      1.0  0.5366448647146536  0.6736902373861139  0.07148761530078594  1.0000
  S   S153      1.0  0.4988696030357006  0.6709368011822971  0.08862694217061969  1.0000
  S   S154      1.0  0.5578961088344795  0.7071424040331576  0.04872393415415164  1.0000
  Fe  Fe78      1.0  0.5393924515675966  0.6212653100257999  0.09061368495773794  1.0000
  S   S155      1.0  0.5020359425616875  0.615073994608951  0.10959067059999356  1.0000
  S   S156      1.0  0.5524681858267916  0.5838550821122509  0.09181059655196412  1.0000
  Fe  Fe79      1.0  0.4803835070592508  0.622365540564899  0.08464481086716026  1.0000
  S   S157      1.0  0.4318167755370354  0.592951859041883  0.0816102780207487  1.0000
  Fe  Fe80      1.0  0.523448907839749  0.6641300968380146  0.11239078688935394  1.0000
  S   S158      1.0  0.5228616716891786  0.6886596609614669  0.1382768797448143  1.0000
  S   S159      1.0  0.5156129226502368  0.6250191078804146  0.0652107980776223  1.0000
  S   S160      1.0  0.5632517579883859  0.6703984968041252  0.0956606767173039  1.0000
  Fe  Fe81      1.0  0.41384635098246725  0.4951299149462561  0.5676831013504857  1.0000
  S   S161      1.0  0.3711685655192318  0.4536167996570985  0.5686471018932702  1.0000
  S   S162      1.0  0.4477363865930339  0.5034679311504558  0.5458917759655054  1.0000
  Fe  Fe82      1.0  0.4027697070375826  0.520774727490547  0.6025020565902262  1.0000
  S   S163      1.0  0.3596714444573455  0.48115424738512147  0.6072904246287288  1.0000
  S   S164      1.0  0.4234236583152223  0.5621919862002788  0.6199108394719847  1.0000
  Fe  Fe83      1.0  0.3824648198295818  0.45424671467369604  0.5986155419783179  1.0000
  S   S165      1.0  0.36978753531894526  0.4106762853626467  0.6124118908345817  1.0000
  Fe  Fe84      1.0  0.3512573476569677  0.4831311132835548  0.5769778171350439  1.0000
  S   S166      1.0  0.3047334596757857  0.47586395508602186  0.5709990555258792  1.0000
  S   S167      1.0  0.4267379443978959  0.49361382728623593  0.5971170103688697  1.0000
  S   S168      1.0  0.39294162882171324  0.5250048042319925  0.572745867948067  1.0000
  Fe  Fe85      1.0  0.11611246639370382  0.45600796214117517  0.09374047425277006  1.0000
  S   S169      1.0  0.10434320854447535  0.4908345703899127  0.10394816416040233  1.0000
  S   S170      1.0  0.08961551651467306  0.409070516835621  0.10353577633535772  1.0000
  Fe  Fe86      1.0  0.17298368020117466  0.5009796698676174  0.0748302304860591  1.0000
  S   S171      1.0  0.16442785815088623  0.5383083544003734  0.08443968151364745  1.0000
  S   S172      1.0  0.21655201889501402  0.5227520490159332  0.05967470136493268  1.0000
  Fe  Fe87      1.0  0.15257714121320717  0.5156590652083282  0.11158258180039145  1.0000
  S   S173      1.0  0.1679524706155903  0.5355594574174903  0.1400532221099429  1.0000
  Fe  Fe88      1.0  0.11777652812776479  0.5095908536313523  0.0756304801962669  1.0000
  S   S174      1.0  0.09583146422076891  0.5301085728153079  0.05773884330375369  1.0000
  S   S175      1.0  0.1639994954049523  0.4800236668145486  0.10276580437880156  1.0000
  S   S176      1.0  0.12638681203708152  0.47293905081863447  0.06465168011935261  1.0000
  Fe  Fe89      1.0  0.58000322356634  0.6647486440084532  0.48904226689178065  1.0000
  S   S177      1.0  0.5369642430827216  0.6287993422576218  0.4985870241696034  1.0000
  S   S178      1.0  0.6099222481178319  0.6515233016775331  0.47245824342152015  1.0000
  Fe  Fe90      1.0  0.5656303646766125  0.7130429510243333  0.5041013923790626  1.0000
  S   S179      1.0  0.5218640690982053  0.6803509482140263  0.5149816995177998  1.0000
  S   S180      1.0  0.5752601821871386  0.7608506581147452  0.5054306378859261  1.0000
  Fe  Fe91      1.0  0.546552900853599  0.6558656283755873  0.5244537186826517  1.0000
  S   S181      1.0  0.537410451895084  0.6368554413678857  0.5529342894952018  1.0000
  Fe  Fe92      1.0  0.5164437890222715  0.6566669784265098  0.4881062782630226  1.0000
  S   S182      1.0  0.4718291153497402  0.6333267308227837  0.473867499819114  1.0000
  S   S183      1.0  0.5911646932862369  0.6904244230032774  0.515752094885414  1.0000
  S   S184      1.0  0.5587516266082191  0.6908904363596488  0.4763029698868312  1.0000
  Fe  Fe93      1.0  0.40599330806110157  0.6796265543635017  0.3895516420573361  1.0000
  S   S185      1.0  0.36396545637130456  0.6689383187733798  0.40468633362578926  1.0000
  S   S186      1.0  0.4505010782764882  0.6955637630498673  0.4036794753436113  1.0000
  Fe  Fe94      1.0  0.37728162693595035  0.6736475275520407  0.35102717418833534  1.0000
  S   S187      1.0  0.33277394320434944  0.6617743917396097  0.3633104440741038  1.0000
  S   S188      1.0  0.3923066739068813  0.6850607859917482  0.32105659745004883  1.0000
  Fe  Fe95      1.0  0.3570600141044746  0.6978306174170513  0.38398048884267255  1.0000
  S   S189      1.0  0.3372170418831676  0.7283470861438808  0.39075789977781256  1.0000
  Fe  Fe96      1.0  0.34299289716588804  0.6336183255351293  0.38310552360864364  1.0000
  S   S190      1.0  0.30704774712444505  0.5879126953573361  0.3896230699824718  1.0000
  S   S191      1.0  0.4008314996366331  0.7117999416843209  0.37059003675321495  1.0000
  S   S192      1.0  0.38580173064556417  0.6422504043346893  0.3691409063810275  1.0000
  Fe  Fe97      1.0  0.3788305550521284  0.714969306956875  0.18573351265932106  1.0000
  S   S193      1.0  0.3908736874732917  0.6924345760390911  0.20862127750816295  1.0000
  S   S194      1.0  0.40919122445956346  0.7609562798259965  0.17619715069300118  1.0000
  Fe  Fe98      1.0  0.32452955022473856  0.6590418323723202  0.17337896403844166  1.0000
  S   S195      1.0  0.33172635988388877  0.6319251912023847  0.19532378919599228  1.0000
  S   S196      1.0  0.295663096748634  0.6447355575811077  0.14749892242629678  1.0000
  Fe  Fe99      1.0  0.3422415072700173  0.670444452992618  0.2146066954250473  1.0000
  S   S197      1.0  0.3232855696426111  0.6602322167749515  0.2437749913782278  1.0000
  Fe  Fe100     1.0  0.3797723097855855  0.6558732767336579  0.1880617446705018  1.0000
  S   S198      1.0  0.4046994026238494  0.629192159087693  0.1844141848352528  1.0000
  S   S199      1.0  0.33076478143776195  0.6959275971504478  0.1930195087080601  1.0000
  S   S200      1.0  0.37204980157708645  0.6800505056119247  0.16480969554230565  1.0000
  Fe  Fe101     1.0  0.3725886583442354  0.9001460555078127  0.4759818718672482  1.0000
  S   S201      1.0  0.4093853079620355  0.8888984131491323  0.48269618573063094  1.0000
  S   S202      1.0  0.3802416297713008  0.9454620418825301  0.4662801072727116  1.0000
  Fe  Fe102     1.0  0.325222988230047  0.8403650892714046  0.4894795831509336  1.0000
  S   S203      1.0  0.35854668462730194  0.824996294078415  0.4974756653369536  1.0000
  S   S204      1.0  0.276857875082238  0.810646977191566  0.4946657297397489  1.0000
  Fe  Fe103     1.0  0.3844497742150619  0.8705904988092388  0.5087434341898227  1.0000
  S   S205      1.0  0.40423887216455473  0.8779716059758144  0.537128420266242  1.0000
  Fe  Fe104     1.0  0.3800298676981685  0.8442279955946651  0.4705294402087025  1.0000
  S   S206      1.0  0.40181261925626666  0.8203947469085888  0.4553493057169581  1.0000
  S   S207      1.0  0.34943578896803384  0.8845684399512881  0.5030021660029194  1.0000
  S   S208      1.0  0.3447981579006236  0.8567396262444367  0.46143999931852536  1.0000
  Fe  Fe105     1.0  0.5837041835597612  0.9180200919729754  0.5985604645713875  1.0000
  S   S209      1.0  0.5386251616405738  0.9102912542778588  0.5891108198919017  1.0000
  S   S210      1.0  0.6129423560783914  0.9591832640350011  0.6149821300871176  1.0000
  Fe  Fe106     1.0  0.5750922684872835  0.8585360282616779  0.5838550687813563  1.0000
  S   S211      1.0  0.5298775335352347  0.846384008575205  0.572748750144543  1.0000
  S   S212      1.0  0.5929956555472359  0.825400207386357  0.5829246585772573  1.0000
  Fe  Fe107     1.0  0.5496028309732386  0.893175836314983  0.5633043268369906  1.0000
  S   S213      1.0  0.5383078878546018  0.9054327637318988  0.535808266322291  1.0000
  Fe  Fe108     1.0  0.522550430379018  0.8640828871619219  0.5995391054917368  1.0000
  S   S214      1.0  0.4769769609185206  0.8385379701289305  0.6115983415164253  1.0000
  S   S215      1.0  0.5959875814742612  0.9040659284348541  0.5718564075485401  1.0000
  S   S216      1.0  0.5666470892966314  0.8730684781436718  0.6115490969695604  1.0000
  Fe  Fe109     1.0  0.1491157627213198  0.4626221317929766  0.47431856728762817  1.0000
  S   S217      1.0  0.1587457722691446  0.5078913700740663  0.484221117626418  1.0000
  S   S218      1.0  0.10598379804777244  0.4394765828115631  0.45822505096073746  1.0000
  Fe  Fe110     1.0  0.20723791988748538  0.46807089499663573  0.49016289446865574  1.0000
  S   S219      1.0  0.22049045489742308  0.5131590666923262  0.5016372949779468  1.0000
  S   S220      1.0  0.24112711727124486  0.4509389991320377  0.4927469658792289  1.0000
  Fe  Fe111     1.0  0.17338782371987685  0.494926407317217  0.5103004998241786  1.0000
  S   S221      1.0  0.1597199723980164  0.5064610292069078  0.5373199894562767  1.0000
  Fe  Fe112     1.0  0.20505005434382148  0.5222422963283109  0.4744740819272131  1.0000
  S   S222      1.0  0.23383040769247612  0.5677532326504747  0.46327171422060287  1.0000
  S   S223      1.0  0.16083602540491257  0.4485544376723935  0.5012632129650125  1.0000
  S   S224      1.0  0.19467820677634656  0.478183206211594  0.4621517927537922  1.0000
  Fe  Fe113     1.0  0.13877739619370505  0.6733124569161595  0.5844255105224296  1.0000
  S   S225      1.0  0.14691954351635325  0.6335221861279203  0.582976347049885  1.0000
  S   S226      1.0  0.09309162197204178  0.6714720450109868  0.5835398583262063  1.0000
  Fe  Fe114     1.0  0.2042984330851215  0.7162888569226976  0.5786513158228792  1.0000
  S   S227      1.0  0.21683525101665035  0.6796478953174403  0.5767167032811296  1.0000
  S   S228      1.0  0.24386620067396245  0.7610171827694064  0.5759563933908429  1.0000
  Fe  Fe115     1.0  0.17635460314062337  0.6567478888256235  0.5592959164939946  1.0000
  S   S229      1.0  0.1820082093834788  0.6381910057844717  0.5323896961898066  1.0000
  Fe  Fe116     1.0  0.18699631077631518  0.6601478678007364  0.6007269844320012  1.0000
  S   S230      1.0  0.20441779915569558  0.6378418257349854  0.620893208849255  1.0000
  S   S231      1.0  0.1659100924870026  0.6948070783946884  0.5592355020730295  1.0000
  S   S232      1.0  0.17689762600140452  0.6985577576113263  0.604231305286527  1.0000
  Fe  Fe117     1.0  0.19488998454423695  0.6425509238022296  0.99683936148459  1.0000
  S   S233      1.0  0.17934918098806996  0.6611085167382428  0.019993793255135506  1.0000
  S   S234      1.0  0.19214374893909522  0.5975832045898458  0.9982794818632755  1.0000
  Fe  Fe118     1.0  0.21595071731596668  0.6973390145375254  0.9741961405654141  1.0000
  S   S235      1.0  0.202091641620096  0.7210632382981558  0.9953441411701659  1.0000
  S   S236      1.0  0.2379731697868828  0.7186620621347939  0.9476581163879839  1.0000
  Fe  Fe119     1.0  0.22191940924547915  0.7023365884314324  0.01605984922126158  1.0000
  S   S237      1.0  0.2504602897864321  0.7225254651355894  0.04146213924539355  1.0000
  Fe  Fe120     1.0  0.16059284514408373  0.677779113914644  0.9974192975365282  1.0000
  S   S238      1.0  0.11541719102653716  0.67657026418873  0.9996512485596891  1.0000
  S   S239      1.0  0.23894585893391232  0.6819567141293954  0.9947130402008226  1.0000
  S   S240      1.0  0.17302728896612898  0.6559392967360216  0.9744906085394022  1.0000
  Fe  Fe121     1.0  0.40439410799281733  0.7123694178191894  0.6815521536752379  1.0000
  S   S241      1.0  0.39604022912456976  0.6686299694808733  0.6937332891186611  1.0000
  S   S242      1.0  0.4515815591416187  0.7440682915329551  0.6745441978579105  1.0000
  Fe  Fe122     1.0  0.3400126368755988  0.6985307202627847  0.6829225355882032  1.0000
  S   S243      1.0  0.32677065896075935  0.6540312883893923  0.6948491407296057  1.0000
  S   S244      1.0  0.30530432644237704  0.7141062076555602  0.6784012532482439  1.0000
  Fe  Fe123     1.0  0.366171986050888  0.6760787058793587  0.7136526058504503  1.0000
  S   S245      1.0  0.35771040886639094  0.6565000668065708  0.7426436786638095  1.0000
  Fe  Fe124     1.0  0.3574687551711621  0.6501668580671123  0.6741756045208275  1.0000
  S   S246      1.0  0.33945967878747707  0.6062606666442619  0.6594012947201704  1.0000
  S   S247      1.0  0.3776621381581574  0.7214534531231285  0.7030763235745063  1.0000
  S   S248      1.0  0.36763006033490775  0.693163533547033  0.6605458070681621  1.0000
  Fe  Fe125     1.0  0.3930300680482186  0.6707328733341985  0.8816621254908719  1.0000
  S   S249      1.0  0.3766753837049447  0.6890355863679885  0.9044493679051532  1.0000
  S   S250      1.0  0.4181486042279585  0.6462596383029032  0.8909179147426783  1.0000
  Fe  Fe126     1.0  0.371995259983814  0.6986759924103982  0.8512467190318569  1.0000
  S   S251      1.0  0.35240859628982224  0.7175818595767142  0.8722350585189423  1.0000
  S   S252      1.0  0.3764832752055706  0.7177419731644222  0.8221231675678096  1.0000
  Fe  Fe127     1.0  0.3945560191286551  0.7304462372367987  0.8881541412134322  1.0000
  S   S253      1.0  0.41597378775890415  0.7757269679464378  0.9011085687540923  1.0000
  Fe  Fe128     1.0  0.3360519048502614  0.6744191435161614  0.8868832892305948  1.0000
  S   S254      1.0  0.29386442941135393  0.6489676427836363  0.902847894885393  1.0000
  S   S255      1.0  0.41506883884983864  0.7138691804452891  0.8668033172324333  1.0000
  S   S256      1.0  0.35143314994360314  0.6536056089340044  0.8645379367719391  1.0000
  C   C1        1.0  0.3643937762711068  0.6742322274232302  0.7646020196824674  1.0000
  C   C2        1.0  0.3756439765304366  0.7047711137907843  0.7665002985975881  1.0000
  C   C3        1.0  0.37918982310640104  0.7176256593828289  0.7842016672646257  1.0000
  C   C4        1.0  0.3719092515598938  0.700236919931358  0.8002212283149885  1.0000
  C   C5        1.0  0.36084966863354884  0.6697372304320478  0.7983158118288962  1.0000
  C   C6        1.0  0.35699890218538444  0.65684449753088  0.7806051703688165  1.0000
  H   H1        1.0  0.3817545191496414  0.7185295877976619  0.7543820524474791  1.0000
  H   H2        1.0  0.3878392483474264  0.7412459108616718  0.7855093181719917  1.0000
  H   H3        1.0  0.35508680554113875  0.6560616040168478  0.8104842123710289  1.0000
  H   H4        1.0  0.3482099175378878  0.6332003460830254  0.77933680859012  1.0000
  C   C7        1.0  0.2544298646280701  0.6995894848783274  0.9357881918118333  1.0000
  C   C8        1.0  0.24597675064371474  0.6698780730488199  0.9393925763393801  1.0000
  C   C9        1.0  0.25821446854145585  0.6546049404768225  0.9291963337532662  1.0000
  C   C10       1.0  0.2795053978259621  0.6690721936912322  0.9156496019938138  1.0000
  C   C11       1.0  0.2885581212129032  0.6989777283297579  0.9123908826134336  1.0000
  C   C12       1.0  0.27576011313433163  0.7140789314312086  0.9222694418806701  1.0000
  H   H5        1.0  0.22949170430729143  0.6584777918996781  0.9497409761232856  1.0000
  H   H6        1.0  0.2509527261065348  0.6314544266929325  0.9317185583438198  1.0000
  H   H7        1.0  0.30494190151090406  0.7103391952931951  0.9019888900148274  1.0000
  H   H8        1.0  0.282445020408106  0.7370585902605745  0.9194382696686432  1.0000
  C   C13       1.0  0.23225712704235696  0.659402996735666  0.636883529040101  1.0000
  C   C14       1.0  0.25281745106373055  0.6497595118729176  0.6426858232204218  1.0000
  C   C15       1.0  0.2754140301364748  0.6665289515375384  0.6552872761796704  1.0000
  C   C16       1.0  0.27697200126241434  0.692555162451259  0.6626915006969964  1.0000
  C   C17       1.0  0.25589394321414916  0.7017778565393233  0.6573420495406923  1.0000
  C   C18       1.0  0.23386977269603829  0.6855229068061477  0.6442239855728714  1.0000
  H   H9        1.0  0.2513983893605392  0.62928912156707  0.6374214937602607  1.0000
  H   H10       1.0  0.29142805842502884  0.6591026797943385  0.6594060644302618  1.0000
  H   H11       1.0  0.2566381371225047  0.7215632221939153  0.6633484487859983  1.0000
  H   H12       1.0  0.21769479308982592  0.6927605274305733  0.6401294263746576  1.0000
  C   C19       1.0  0.16496763747403498  0.5427050545775519  0.5357599180482169  1.0000
  C   C20       1.0  0.1522463821508469  0.5537410879510365  0.5487627706385245  1.0000
  C   C21       1.0  0.15713128375868293  0.583074837126508  0.5477128890860503  1.0000
  C   C22       1.0  0.17454324878264713  0.6012229208464409  0.5336083574112065  1.0000
  C   C23       1.0  0.18679175344511326  0.5899634093906022  0.5204534159984057  1.0000
  C   C24       1.0  0.18220001548780326  0.5608086888130516  0.5216129001565006  1.0000
  H   H13       1.0  0.13867081223633773  0.5396739365763947  0.5596238269295153  1.0000
  H   H14       1.0  0.1471135472812625  0.5914871302552323  0.5576539089384881  1.0000
  H   H15       1.0  0.2002219467358862  0.6038675591310619  0.5094867190670713  1.0000
  H   H16       1.0  0.19245417875305476  0.5526008784722339  0.5116674054109149  1.0000
  C   C25       1.0  0.47038928587675066  0.8135147243651534  0.6297835490926891  1.0000
  C   C26       1.0  0.44114689252772316  0.7934899048670571  0.6339439130662679  1.0000
  C   C27       1.0  0.435088405928065  0.7722820795482135  0.6477754096096591  1.0000
  C   C28       1.0  0.4582886742587131  0.77105449452515  0.6575823697147551  1.0000
  C   C29       1.0  0.48753714110325946  0.7913169480432677  0.6535732572185501  1.0000
  C   C30       1.0  0.4936023686009349  0.8125263956113328  0.6397164230964437  1.0000
  H   H17       1.0  0.4231223222461131  0.7942532804733271  0.6263358103084156  1.0000
  H   H18       1.0  0.41249978508228763  0.7568902507507946  0.6508391327098966  1.0000
  H   H19       1.0  0.5055324367870733  0.7906447641040234  0.6612791719292808  1.0000
  H   H20       1.0  0.5161645735279159  0.8281580521524093  0.6367850030600558  1.0000
  C   C31       1.0  0.26764593817977345  0.798823966651372  0.5176458716781632  1.0000
  C   C32       1.0  0.2894829116176169  0.8065754288483992  0.5313337139942111  1.0000
  C   C33       1.0  0.2818800342492515  0.7953432970405471  0.5492768042511397  1.0000
  C   C34       1.0  0.25250360878765576  0.7759021239821319  0.5535704570698037  1.0000
  C   C35       1.0  0.23064326490937226  0.7683594850617498  0.5399257671032583  1.0000
  C   C36       1.0  0.23818047913020252  0.7799212119967454  0.5220534210455059  1.0000
  H   H21       1.0  0.3122562052277888  0.8212008190056981  0.5280940274174994  1.0000
  H   H22       1.0  0.2989200887251787  0.8015090653213595  0.5597509676323095  1.0000
  H   H23       1.0  0.20785659559369485  0.7538748341417063  0.543182890181413  1.0000
  H   H24       1.0  0.22112872925645957  0.7740877309647488  0.5115867696284598  1.0000
  C   C37       1.0  0.44178741075178696  0.8867849140209922  0.5369126885920397  1.0000
  C   C38       1.0  0.4598430614523172  0.9026035254602336  0.5223003007877298  1.0000
  C   C39       1.0  0.48968613822959867  0.9087616234547035  0.5220941610691833  1.0000
  C   C40       1.0  0.5014572770189987  0.8990742321598112  0.5365020365805825  1.0000
  C   C41       1.0  0.48346465064251004  0.8835595812839641  0.5511928681788856  1.0000
  C   C42       1.0  0.4537375450617383  0.8776655751161652  0.5514804749733824  1.0000
  H   H25       1.0  0.45103971027509143  0.9104469389268897  0.5112647659273536  1.0000
  H   H26       1.0  0.5036443569562785  0.9210238372919385  0.5108029599860526  1.0000
  H   H27       1.0  0.4922574648000884  0.8757828357611125  0.5623162241129313  1.0000
  H   H28       1.0  0.43991064593906587  0.8655597210797982  0.5628715825897377  1.0000
  C   C43       1.0  0.28746514099635145  0.5818656766894487  0.41045322765485404  1.0000
  C   C44       1.0  0.2616491740244089  0.5553822943523162  0.4129756993900399  1.0000
  C   C45       1.0  0.2451057324480519  0.5505267263764667  0.4292426140681178  1.0000
  C   C46       1.0  0.2543042543028854  0.5722180572016776  0.4430131642943914  1.0000
  C   C47       1.0  0.2802185510064372  0.5985037482440101  0.44056199955078107  1.0000
  C   C48       1.0  0.2968472535881979  0.603227034937471  0.42441566866704017  1.0000
  H   H29       1.0  0.2541934586453283  0.5387599422605206  0.40219797059671786  1.0000
  H   H30       1.0  0.22490086608743326  0.5303214662392204  0.4309339042239484  1.0000
  H   H31       1.0  0.2875581211775502  0.6152502919136659  0.45125467383085865  1.0000
  H   H32       1.0  0.3168886200535115  0.6234203493647013  0.4228168308999213  1.0000
  C   C49       1.0  0.35477420905067225  0.7533955415579162  0.40902790494020047  1.0000
  C   C50       1.0  0.38157152866519456  0.7566226192205124  0.4164238886763705  1.0000
  C   C51       1.0  0.39565200561809377  0.7771899189377753  0.4306467211926043  1.0000
  C   C52       1.0  0.38289874059425644  0.7944043490165937  0.4377584484604514  1.0000
  C   C53       1.0  0.35583349881045023  0.7908493164422714  0.430564273888182  1.0000
  C   C54       1.0  0.34190892711941595  0.770514131756484  0.4161462473337907  1.0000
  H   H33       1.0  0.39171456498324986  0.7435677407151646  0.4110465676681401  1.0000
  H   H34       1.0  0.4165857705274182  0.7798185957430954  0.4361054986150242  1.0000
  H   H35       1.0  0.3458974659601864  0.8041074068773392  0.435900342448333  1.0000
  H   H36       1.0  0.3212250325935502  0.7682120955927682  0.4104618238147044  1.0000
  C   C55       1.0  0.3724433064967018  0.6779298864958456  0.29981474698381416  1.0000
  C   C56       1.0  0.3880701024091593  0.6904875138099313  0.2835596473096781  1.0000
  C   C57       1.0  0.37340345060923535  0.6854476946431869  0.2663369056475004  1.0000
  C   C58       1.0  0.3428445351964367  0.6677195711240299  0.2651613190634195  1.0000
  C   C59       1.0  0.32718344222553114  0.6554445558306818  0.2814542877936577  1.0000
  C   C60       1.0  0.34185004359585125  0.6604747325307143  0.2986872709843726  1.0000
  H   H37       1.0  0.411714511627451  0.704229082403332  0.2842863921600261  1.0000
  H   H38       1.0  0.38567795651187814  0.69547138921921  0.25400035283727135  1.0000
  H   H39       1.0  0.3035273381543299  0.641755285642705  0.28070796504768314  1.0000
  H   H40       1.0  0.3295003302324023  0.6506297080809288  0.31103677746053343  1.0000
  C   C61       1.0  0.5794855434471373  0.7778888403174904  0.5272217944448925  1.0000
  C   C62       1.0  0.5761172842467547  0.8036683841401673  0.5286841704939  1.0000
  C   C63       1.0  0.5799327489037998  0.8181541212483563  0.5457577157986699  1.0000
  C   C64       1.0  0.5879428166943574  0.8073725216347591  0.5614028741820747  1.0000
  C   C65       1.0  0.591459447562911  0.7816633163790212  0.559967511576858  1.0000
  C   C66       1.0  0.5868137177109393  0.7666927560169013  0.5429713166600155  1.0000
  H   H41       1.0  0.5706197562123434  0.8125021358988135  0.5165292174762062  1.0000
  H   H42       1.0  0.5772747552822605  0.8380096943297646  0.5466883338744604  1.0000
  H   H43       1.0  0.5977277548803249  0.7732306681901743  0.572002065054831  1.0000
  H   H44       1.0  0.5896442622817192  0.7469323214851769  0.5419306928973773  1.0000
  C   C67       1.0  0.46511211404272124  0.6513548673377426  0.4550157621308106  1.0000
  C   C68       1.0  0.4856787130720222  0.6797838567135166  0.45010302382345646  1.0000
  C   C69       1.0  0.4807568738883724  0.6931260710132683  0.4344102115526162  1.0000
  C   C70       1.0  0.4549352931506849  0.6784528392314825  0.42375674015469694  1.0000
  C   C71       1.0  0.43393378453458287  0.6502841755229791  0.4289409542596506  1.0000
  C   C72       1.0  0.43911922930257846  0.6367097182553392  0.4444857077044601  1.0000
  H   H45       1.0  0.5054789438223296  0.6915158781927854  0.4583187216234893  1.0000
  H   H46       1.0  0.49697824812073443  0.7149990931555403  0.4305321698886141  1.0000
  H   H47       1.0  0.41400464311535773  0.6388081781133961  0.4207682093689738  1.0000
  H   H48       1.0  0.42306557568498204  0.6147342900470844  0.4482437871030162  1.0000
  C   C73       1.0  0.20405384649558186  0.5650264190456173  0.14217875178431408  1.0000
  C   C74       1.0  0.22113322524235907  0.5777193912434377  0.12658584897799377  1.0000
  C   C75       1.0  0.24925263776176584  0.6019336831168872  0.1284938090120366  1.0000
  C   C76       1.0  0.26089050038123074  0.6132408931104432  0.1460240099404675  1.0000
  C   C77       1.0  0.24415220645309635  0.6001488854931194  0.16168115081718126  1.0000
  C   C78       1.0  0.21570855778403092  0.576266403826495  0.15973540728893207  1.0000
  H   H49       1.0  0.21261271822001443  0.5688900304052622  0.11306318580044207  1.0000
  H   H50       1.0  0.26216037471645837  0.6117618158940085  0.11633962047200733  1.0000
  H   H51       1.0  0.2528375201431319  0.6087680608380199  0.175248348811765  1.0000
  H   H52       1.0  0.202660160355943  0.5665747331405308  0.17187367902668646  1.0000
  C   C79       1.0  0.12010415120199225  0.5465681752253276  0.039421859009795515  1.0000
  C   C80       1.0  0.11757473210086922  0.5678780440111145  0.028429855068550496  1.0000
  C   C81       1.0  0.13893184140992615  0.5827523981901593  0.014973439615205697  1.0000
  C   C82       1.0  0.16258327235348302  0.5760933044309412  0.012489014850017188  1.0000
  C   C83       1.0  0.16433361342057384  0.5540273017347992  0.022929309481610982  1.0000
  C   C84       1.0  0.14334136078454893  0.5395384223810726  0.03644563107648224  1.0000
  H   H53       1.0  0.09989113263461366  0.5737372588153199  0.030740632547831215  1.0000
  H   H54       1.0  0.13744639991799198  0.5998050624049401  0.006839514166832705  1.0000
  H   H55       1.0  0.18292819643011063  0.5493646314070793  0.021432748978362778  1.0000
  H   H56       1.0  0.1458214047811423  0.5235219977285978  0.04489080990204671  1.0000
  C   C85       1.0  0.2886908072571939  0.4702946813032936  0.5487932093278639  1.0000
  C   C86       1.0  0.2621859171889799  0.472243534627029  0.5466105602402955  1.0000
  C   C87       1.0  0.24781748085285368  0.46677117377963173  0.5293980770291387  1.0000
  C   C88       1.0  0.25953628546890034  0.4586866506740649  0.5142847996250884  1.0000
  C   C89       1.0  0.2860524265577046  0.45660749423538555  0.516419818054036  1.0000
  C   C90       1.0  0.3007988299697656  0.4626866122277514  0.5336189521021609  1.0000
  H   H57       1.0  0.25261553645070484  0.47791801128758066  0.5583220128825405  1.0000
  H   H58       1.0  0.22727646022985482  0.4681679400923015  0.5279492550118805  1.0000
  H   H59       1.0  0.29512533302048494  0.45018034081967506  0.5047922386013689  1.0000
  H   H60       1.0  0.321157584613546  0.4609826322190698  0.5352103502437723  1.0000
  C   C91       1.0  0.39980625591659313  0.5750064627066096  0.629921517370561  1.0000
  C   C92       1.0  0.3691831139058645  0.5575725736458257  0.6299599026590684  1.0000
  C   C93       1.0  0.3509068158922481  0.5677233759844785  0.6387354785156161  1.0000
  C   C94       1.0  0.36305342718041655  0.5955048775956656  0.647302100878568  1.0000
  C   C95       1.0  0.3936169734682091  0.6133178425777721  0.64685788232411  1.0000
  C   C96       1.0  0.4119575760729132  0.602931259419071  0.6383542947464995  1.0000
  H   H61       1.0  0.359602101762445  0.5360892612377555  0.6234569179778364  1.0000
  H   H62       1.0  0.3272750843542642  0.5538723645072259  0.6389858172536576  1.0000
  H   H63       1.0  0.40317532923793814  0.6348866630141762  0.6532899525755552  1.0000
  H   H64       1.0  0.4356414371785805  0.6165430927650959  0.6382975619803635  1.0000
  C   C97       1.0  0.47635895575804016  0.53894845276037  0.5494411532259597  1.0000
  C   C98       1.0  0.4982503926307237  0.5519535526651911  0.536114787419404  1.0000
  C   C99       1.0  0.5186768205216841  0.5817770045622392  0.5377741930522624  1.0000
  C   C100      1.0  0.517116090358143  0.5984720335570186  0.5527084603902807  1.0000
  C   C101      1.0  0.4968829140142496  0.584757443025874  0.5667845320680589  1.0000
  C   C102      1.0  0.47635409159180436  0.5550672603137379  0.5650799608742642  1.0000
  H   H65       1.0  0.4986555071339039  0.5394196965709557  0.5241318497730328  1.0000
  H   H66       1.0  0.5353038674341618  0.5919491994767648  0.5273638520843047  1.0000
  H   H67       1.0  0.4959092177886153  0.5975032745975906  0.5785148853522774  1.0000
  H   H68       1.0  0.45979815868114116  0.5451978786534015  0.5755615496652932  1.0000
  C   C103      1.0  0.49044848797058815  0.6720820862253913  0.15150291772712088  1.0000
  C   C104      1.0  0.4748479920020105  0.641447867902045  0.15293335655518348  1.0000
  C   C105      1.0  0.44919933964249964  0.6285818145163723  0.16367144663162214  1.0000
  C   C106      1.0  0.4383529017983749  0.6461942890589213  0.1724647007550776  1.0000
  C   C107      1.0  0.4539202465185873  0.676858418752953  0.17109789374470233  1.0000
  C   C108      1.0  0.4801439506406921  0.6897595861304441  0.16083414149509448  1.0000
  H   H69       1.0  0.4829481660309212  0.6276886901884412  0.1460975699124116  1.0000
  H   H70       1.0  0.4374250014326743  0.6048659418896972  0.16482991473276054  1.0000
  H   H71       1.0  0.4457927054633894  0.6906590826622875  0.1778974675422222  1.0000
  H   H72       1.0  0.4922485598375947  0.7134877993995269  0.15986745322711435  1.0000
  C   C109      1.0  0.2588575342182406  0.47928555110258825  0.02305029437589101  1.0000
  C   C110      1.0  0.27398026446832247  0.5092318454908682  0.027483285755612652  1.0000
  C   C111      1.0  0.2610492378788232  0.5219444442061192  0.03927966692507229  1.0000
  C   C112      1.0  0.23312869147675647  0.5047863963653971  0.04692714712186294  1.0000
  C   C113      1.0  0.21834232650003615  0.47463158848743076  0.04297350332513892  1.0000
  C   C114      1.0  0.2311512832086359  0.46195175399898697  0.030956972644457625  1.0000
  H   H73       1.0  0.29535774704959483  0.5227500209340391  0.021487894441232887  1.0000
  H   H74       1.0  0.27260203822697393  0.5452877648573434  0.04230231345012917  1.0000
  H   H75       1.0  0.19678666583701418  0.46126301050261403  0.048790159166673466  1.0000
  H   H76       1.0  0.21941087166450682  0.43873546929450036  0.02758704466288253  1.0000
  C   C115      1.0  0.3953236373031348  0.6034974389665869  0.026280111377058768  1.0000
  C   C116      1.0  0.37759449063584466  0.5813151122716028  0.0384055640682044  1.0000
  C   C117      1.0  0.3886973474926561  0.578812569480318  0.05565507482909049  1.0000
  C   C118      1.0  0.4176764376045304  0.5982892499822783  0.060716812670836943  1.0000
  C   C119      1.0  0.435233650997356  0.6210957548766364  0.048874238420560906  1.0000
  C   C120      1.0  0.4239426069246267  0.6238165165097951  0.031649957647029714  1.0000
  H   H77       1.0  0.35533612526797675  0.5658257628107566  0.034386279875638366  1.0000
  H   H78       1.0  0.3750287144443137  0.561263480911864  0.06484598015930848  1.0000
  H   H79       1.0  0.4576601353305315  0.6362646022743954  0.05279296270100446  1.0000
  H   H80       1.0  0.4377564438760594  0.6408649217441199  0.022221697034452648  1.0000
  C   C121      1.0  0.36431436039439413  0.5567894967881214  0.9180599495856745  1.0000
  C   C122      1.0  0.39154233702098856  0.5768933211353588  0.9255135715791911  1.0000
  C   C123      1.0  0.40804379989619927  0.6041291987978303  0.9169451055725168  1.0000
  C   C124      1.0  0.39701213583260403  0.6118556893317814  0.901219684420401  1.0000
  C   C125      1.0  0.36957003178587017  0.591962372566868  0.8938841258678824  1.0000
  C   C126      1.0  0.353528574141198  0.5642415693948495  0.9020905695903058  1.0000
  H   H81       1.0  0.4003176516174791  0.5713059391683787  0.9376177654514849  1.0000
  H   H82       1.0  0.4293285306524307  0.6193931486937267  0.9225990757779952  1.0000
  H   H83       1.0  0.36101620648067706  0.597717618970688  0.8816702487809602  1.0000
  H   H84       1.0  0.33253258177363926  0.5487539069544138  0.8961994977546613  1.0000
  C   C127      1.0  0.30184266018978273  0.8219633373767466  0.05277441209349957  1.0000
  C   C128      1.0  0.3037254726422434  0.8015070754530469  0.06482482062598695  1.0000
  C   C129      1.0  0.28780926678789837  0.7711944777171026  0.06113213814663639  1.0000
  C   C130      1.0  0.2697381208916302  0.760931041752202  0.045377626044132535  1.0000
  C   C131      1.0  0.2675894597247845  0.7812971092058499  0.03332563408919964  1.0000
  C   C132      1.0  0.28349122471816757  0.8117311766981619  0.037085176499804015  1.0000
  H   H85       1.0  0.3170121425111398  0.8089364301264931  0.07718668965907212  1.0000
  H   H86       1.0  0.28937849032462676  0.7555981326374508  0.07059817827282393  1.0000
  H   H87       1.0  0.2535754707771407  0.7736115456239381  0.02119318744319232  1.0000
  H   H88       1.0  0.28168676522824193  0.8273693894698458  0.027747011540602884  1.0000
  C   C133      1.0  0.36786763408018736  0.8173640146743825  0.15305361547769247  1.0000
  C   C134      1.0  0.3934139143265902  0.8184308803555631  0.1451999807937268  1.0000
  C   C135      1.0  0.40633450149641265  0.8015452087863904  0.15268624194322775  1.0000
  C   C136      1.0  0.3934993484198459  0.7831458931428106  0.16782681477932251  1.0000
  C   C137      1.0  0.3682182786719458  0.7824300880767158  0.1758513754212315  1.0000
  C   C138      1.0  0.35545332444618155  0.7995278450671335  0.16848077210186538  1.0000
  H   H89       1.0  0.4031801801580235  0.832202617254064  0.1333367928817546  1.0000
  H   H90       1.0  0.42608460615437665  0.802401774754855  0.14656190232387487  1.0000
  H   H91       1.0  0.3585124706576985  0.7686765527399682  0.18772746655303577  1.0000
  H   H92       1.0  0.3358118860577812  0.7988090700342424  0.17468142208466778  1.0000
  C   C139      1.0  0.5298327698496955  0.7796177672199062  0.03801343811786562  1.0000
  C   C140      1.0  0.5561017190109274  0.7817463906242892  0.030660727278157895  1.0000
  C   C141      1.0  0.56467438516094  0.7595339390048399  0.034185966417819916  1.0000
  C   C142      1.0  0.5472295825077641  0.7353025739135013  0.04525832597304923  1.0000
  C   C143      1.0  0.5211905862214979  0.7335114097508576  0.0527964786501277  1.0000
  C   C144      1.0  0.5125765821318332  0.7556120385142259  0.049216978159804636  1.0000
  H   H93       1.0  0.5699479126756614  0.800617276523987  0.022435138957465958  1.0000
  H   H94       1.0  0.5849859786877295  0.7611871108752698  0.028437132271713017  1.0000
  H   H95       1.0  0.507439598463065  0.7148768575124814  0.06116047300235529  1.0000
  H   H96       1.0  0.4922526854234632  0.7538593733012267  0.054989770360651224  1.0000
  C   C145      1.0  0.4780739748709995  0.8948143448022152  0.018998194909234378  1.0000
  C   C146      1.0  0.4703927946881223  0.9129629363371593  0.029911537426966506  1.0000
  C   C147      1.0  0.4628685438165811  0.9058919649548929  0.048497252953613006  1.0000
  C   C148      1.0  0.4625981384341425  0.8804640423274668  0.05598282367559709  1.0000
  C   C149      1.0  0.46931939357619645  0.8619451863318655  0.044861239658904976  1.0000
  C   C150      1.0  0.4770747648805629  0.8691324306376429  0.02645677362221543  1.0000
  H   H97       1.0  0.4712310261855529  0.9329059633874992  0.024189637231605055  1.0000
  H   H98       1.0  0.4581572066994858  0.92053461553115  0.057132195228176634  1.0000
  H   H99       1.0  0.46860305484476167  0.8419772858428682  0.05041979667773876  1.0000
  H   H100      1.0  0.4823610094224617  0.8546910474286781  0.018062235331805176  1.0000
  C   C151      1.0  0.5032915434043442  0.8066560840531855  0.9328806648565399  1.0000
  C   C152      1.0  0.4852415967413181  0.8204000552287735  0.9356129005217302  1.0000
  C   C153      1.0  0.4583959365669709  0.8105640366080704  0.9258762677721568  1.0000
  C   C154      1.0  0.44905485888842894  0.7864598269041717  0.9137413164585669  1.0000
  C   C155      1.0  0.4667991412030383  0.772286482776815  0.9112693685549756  1.0000
  C   C156      1.0  0.4940618761255248  0.7826454885358776  0.9206347639318677  1.0000
  H   H101      1.0  0.49226623890254895  0.8390498680031773  0.9449185284041277  1.0000
  H   H102      1.0  0.44481347616041383  0.8216813606671803  0.9277755558517701  1.0000
  H   H103      1.0  0.4598055705328187  0.7537259426764021  0.9018951678697218  1.0000
  H   H104      1.0  0.5080458463553692  0.7720825153169447  0.9183317839339787  1.0000
  C   C157      1.0  0.01848511505788264  0.3755170643193981  0.4850665308511475  1.0000
  C   C158      1.0  0.04544750083770088  0.3776862634218173  0.49171857136427655  1.0000
  C   C159      1.0  0.07233069159080538  0.39683664594063267  0.4834416697385925  1.0000
  C   C160      1.0  0.07249058404812785  0.41394518066770974  0.46835706120110415  1.0000
  C   C161      1.0  0.045457124288752745  0.41117546622078704  0.46137213477754785  1.0000
  C   C162      1.0  0.01855415483565137  0.3923068118601262  0.46982335305336265  1.0000
  H   H105      1.0  0.045569501603311746  0.36456542152480076  0.5033902259609794  1.0000
  H   H106      1.0  0.092954697807698  0.398363302720946  0.488719290756889  1.0000
  H   H107      1.0  0.045345372191742804  0.4240502000100222  0.44955212164322766  1.0000
  H   H108      1.0  0.9979009946798018  0.39062050471267706  0.4644627121135866  1.0000
  C   C163      1.0  0.003641859284394533  0.5991202098799163  0.6035826643255792  1.0000
  C   C164      1.0  0.005036455812296392  0.6217414933573936  0.5921383093605125  1.0000
  C   C165      1.0  0.032605021828938006  0.6436238806696144  0.5861280038618529  1.0000
  C   C166      1.0  0.059063353994767975  0.6430010535142681  0.5913032114219341  1.0000
  C   C167      1.0  0.057668152428335846  0.6201504068227253  0.6025563600260372  1.0000
  C   C168      1.0  0.030091487470481848  0.5985095530418824  0.6088112969827695  1.0000
  H   H109      1.0  0.9849299523319976  0.6228535372234222  0.5883475177565299  1.0000
  H   H110      1.0  0.033482816005547804  0.6613863550059058  0.5775966007398258  1.0000
  H   H111      1.0  0.07784493284774757  0.6195413510733757  0.6067828726531427  1.0000
  H   H112      1.0  0.02924706677931921  0.5812736213726674  0.6178328697378923  1.0000
  C   C169      1.0  0.8880463470842341  0.4174527082348274  0.5334219103747843  1.0000
  C   C170      1.0  0.902383098330774  0.435088093698533  0.5183036510589917  1.0000
  C   C171      1.0  0.9080827377739104  0.46475794780226787  0.5180058389822456  1.0000
  C   C172      1.0  0.8992701202373339  0.4766287680246366  0.5327766071076926  1.0000
  C   C173      1.0  0.8840623648874936  0.4587085516903761  0.5475348114717727  1.0000
  C   C174      1.0  0.8786769970881853  0.42925385442864317  0.5479260351877728  1.0000
  H   H113      1.0  0.9093140578076566  0.425972316372173  0.5069569453467554  1.0000
  H   H114      1.0  0.9195375364691702  0.4784704635269746  0.5064426148679964  1.0000
  H   H115      1.0  0.8763653917957801  0.4673906591716608  0.5587286178490667  1.0000
  H   H116      1.0  0.8673280219654226  0.4156158102752552  0.5595570544306994  1.0000
  C   C175      1.0  0.8045258660503  0.42802579172343674  0.6663683237808996  1.0000
  C   C176      1.0  0.7885991960644413  0.4095313671245939  0.6517666122338581  1.0000
  C   C177      1.0  0.7961507309431748  0.4186636231017597  0.6334489428847623  1.0000
  C   C178      1.0  0.8195938931909151  0.44637747591634286  0.6295623630436903  1.0000
  C   C179      1.0  0.8355814348150278  0.4649075298536825  0.6441443342901743  1.0000
  C   C180      1.0  0.8281168040000065  0.4556649604219287  0.6625047470289631  1.0000
  H   H117      1.0  0.7707246197912982  0.3880405337863859  0.6545758290669429  1.0000
  H   H118      1.0  0.7837990753338901  0.40421412217547914  0.6222085480236249  1.0000
  H   H119      1.0  0.8537139255767743  0.4862851511752107  0.6412776929391794  1.0000
  H   H120      1.0  0.8405795317006493  0.4700588776289156  0.6737453947179634  1.0000
  C   C181      1.0  0.7053478213503203  0.33797328146595124  0.7779750097759767  1.0000
  C   C182      1.0  0.7035101607520466  0.3643369610453617  0.780425231714032  1.0000
  C   C183      1.0  0.701717899825568  0.3742997164197298  0.7983549181132967  1.0000
  C   C184      1.0  0.7018860111307994  0.35817593466449366  0.8140576564500375  1.0000
  C   C185      1.0  0.7041683798228778  0.33204674251720745  0.8116473185882833  1.0000
  C   C186      1.0  0.7057682180015432  0.321988568370906  0.7937072686657083  1.0000
  H   H121      1.0  0.7031539566548309  0.37687823375894297  0.7684922518102087  1.0000
  H   H122      1.0  0.7000213870970483  0.3945768376547131  0.8000201080674277  1.0000
  H   H123      1.0  0.7042863614552592  0.3193448756671327  0.8235506756094945  1.0000
  H   H124      1.0  0.7071921739302542  0.30157596971416417  0.7920014188954848  1.0000
  C   C187      1.0  0.6667653116805583  0.02587266697646161  0.975679511555474  1.0000
  C   C188      1.0  0.6709384985845905  0.023885945717591107  0.9946214416143666  1.0000
  C   C189      1.0  0.6589133317571862  0.9961372999570988  0.0031958357478303334  1.0000
  C   C190      1.0  0.6418622516198467  0.9702999677563449  0.9930457800928696  1.0000
  C   C191      1.0  0.637394510098614  0.9723601445349962  0.9741596624132398  1.0000
  C   C192      1.0  0.6503604519035905  0.9999765407410424  0.9654596711890684  1.0000
  H   H125      1.0  0.6838653583670649  0.043644961080028834  0.0025905092026414778  1.0000
  H   H126      1.0  0.6627833745642103  0.9946700650287125  0.017764853681128345  1.0000
  H   H127      1.0  0.6247724238041856  0.9525654607380493  0.9661505013582796  1.0000
  H   H128      1.0  0.6473954108442861  0.0013035195882522548  0.9507562668120229  1.0000
  C   C193      1.0  0.7170923137753619  0.22462601502773508  0.9411570955078901  1.0000
  C   C194      1.0  0.6864218484574744  0.20972134271877624  0.9387907918240785  1.0000
  C   C195      1.0  0.6718907280849424  0.22219113456285414  0.927994816197482  1.0000
  C   C196      1.0  0.687785636123365  0.24986314584405797  0.9197743622826728  1.0000
  C   C197      1.0  0.718405171507921  0.26508132539549195  0.9224705822219473  1.0000
  C   C198      1.0  0.7330179752937639  0.25236117144913495  0.9329878775983046  1.0000
  H   H129      1.0  0.6739420013311286  0.1883339888954884  0.9449757349299166  1.0000
  H   H130      1.0  0.6482249864856388  0.21027846964401795  0.9259466563060952  1.0000
  H   H131      1.0  0.7308583434670378  0.2863219690513696  0.9161143135208986  1.0000
  H   H132      1.0  0.7567466057523853  0.26395841882290333  0.9346875604342648  1.0000
  C   C199      1.0  0.9887668124985888  0.35344768863647574  0.10865535736938876  1.0000
  C   C200      1.0  0.00878723423652672  0.3438889664283255  0.11543990372948944  1.0000
  C   C201      1.0  0.03929987104761689  0.36133899036390205  0.11366285140231154  1.0000
  C   C202      1.0  0.05058045732797185  0.38892604085951377  0.10522911017256978  1.0000
  C   C203      1.0  0.030747160980755698  0.3990691586515473  0.09862099298563246  1.0000
  C   C204      1.0  0.9997856552512171  0.38123840627171895  0.10025385965820463  1.0000
  H   H133      1.0  0.000641176534097232  0.3225243849243249  0.12186848254821248  1.0000
  H   H134      1.0  0.054286361694771634  0.3531688509296385  0.11869525042056818  1.0000
  H   H135      1.0  0.03918429992082781  0.4203377649109766  0.09204487546353911  1.0000
  H   H136      1.0  0.9845431965461555  0.3889167247794443  0.0949883931773729  1.0000
  C   C205      1.0  0.8141228689629394  0.2610328121254125  0.04239712501198709  1.0000
  C   C206      1.0  0.7902003304238977  0.25212710950566625  0.030084990276037376  1.0000
  C   C207      1.0  0.7705613847002656  0.2221628448073847  0.027697801728251648  1.0000
  C   C208      1.0  0.7747089456282964  0.20085852829018427  0.03764136096013693  1.0000
  C   C209      1.0  0.798143082756534  0.2098182944185589  0.05039335827275788  1.0000
  C   C210      1.0  0.8178118864969344  0.23986302765071485  0.05280200783704654  1.0000
  H   H137      1.0  0.7869452952914389  0.26848790868690353  0.02226128652220405  1.0000
  H   H138      1.0  0.7523588946351539  0.21558159841147587  0.018063356309052425  1.0000
  H   H139      1.0  0.80146122381822  0.19341345083143777  0.05813400100436894  1.0000
  H   H140      1.0  0.8363396327091234  0.24655063316962356  0.06225620732058938  1.0000
  C   C211      1.0  0.027921004939925442  0.5967172896743845  0.983491094107355  1.0000
  C   C212      1.0  0.05505260192029038  0.596420493647263  0.9802029318979499  1.0000
  C   C213      1.0  0.08191680377071583  0.6201011551145786  0.9858545540620802  1.0000
  C   C214      1.0  0.08197752492698313  0.644817468491409  0.9943349359885274  1.0000
  C   C215      1.0  0.0548442464876825  0.6449968960920486  0.9978245079193138  1.0000
  C   C216      1.0  0.027876820275803738  0.6208956349899396  0.9926376396579646  1.0000
  H   H141      1.0  0.05528153022543081  0.5777774567306216  0.973149045874017  1.0000
  H   H142      1.0  0.10257624471792358  0.6194736228368294  0.9832672322969228  1.0000
  H   H143      1.0  0.05466565760276218  0.6639940769965854  0.004424150450346387  1.0000
  H   H144      1.0  0.0071582066425424085  0.6214414125200163  0.9951913568477925  1.0000
  C   C217      1.0  0.8941563705543244  0.43874460527538417  0.02678438573359121  1.0000
  C   C218      1.0  0.883537398165267  0.4100368089745064  0.03335536857560539  1.0000
  C   C219      1.0  0.8832291688458651  0.4050331845682768  0.052339357550264476  1.0000
  C   C220      1.0  0.8942583285599296  0.42876243063847824  0.06474148234542829  1.0000
  C   C221      1.0  0.9049967718629626  0.4574914572000233  0.058179021535587974  1.0000
  C   C222      1.0  0.9045845709098198  0.46242023716955105  0.039220362196930696  1.0000
  H   H145      1.0  0.8753621076093283  0.39159114776945175  0.023830640272002768  1.0000
  H   H146      1.0  0.8742373115963804  0.38272836844815616  0.05730615757019695  1.0000
  H   H147      1.0  0.9136005691234365  0.47585206884871595  0.06776166754668037  1.0000
  H   H148      1.0  0.912364818580299  0.4845167883954512  0.03432258257939497  1.0000
  C   C223      1.0  0.8323522339256773  0.4815727833265531  0.9360720321723701  1.0000
  C   C224      1.0  0.8026468978484762  0.46835570239075436  0.9303306339579909  1.0000
  C   C225      1.0  0.7907115235749056  0.4417849852825672  0.9202358393001057  1.0000
  C   C226      1.0  0.8086776235622375  0.42870302714616626  0.9153919717862761  1.0000
  C   C227      1.0  0.8384871179549938  0.442116077734733  0.9208997688376505  1.0000
  C   C228      1.0  0.8502190556019165  0.4682831447345791  0.9313895223048674  1.0000
  H   H149      1.0  0.7887667112431751  0.47862158595142457  0.9338497813085332  1.0000
  H   H150      1.0  0.7676810301718358  0.4315919976618343  0.9161302662298272  1.0000
  H   H151      1.0  0.8525542721864664  0.4321885646629264  0.9171268847708027  1.0000
  H   H152      1.0  0.8732409955634352  0.4785409944538827  0.9355249888972884  1.0000
  C   C229      1.0  0.6377038496134553  0.5854509520513347  0.4984249336964537  1.0000
  C   C230      1.0  0.6207250134798301  0.5958778940544508  0.5084418916571866  1.0000
  C   C231      1.0  0.6120850240808505  0.6160157440188918  0.500588980927529  1.0000
  C   C232      1.0  0.6205398616969124  0.6261383862161349  0.4826315163274511  1.0000
  C   C233      1.0  0.637722478185863  0.6158902566444797  0.47261061111839453  1.0000
  C   C234      1.0  0.6462616774891975  0.5955662335813127  0.4804565911275524  1.0000
  H   H153      1.0  0.6141196900526188  0.5882930975793554  0.5223763690974412  1.0000
  H   H154      1.0  0.5989703423018677  0.6237985290862487  0.5084848798540963  1.0000
  H   H155      1.0  0.6443910340837792  0.6236460466961975  0.45871771712485165  1.0000
  H   H156      1.0  0.6593748133999453  0.587741266220192  0.47260766515482017  1.0000
  C   C235      1.0  0.7993135435268813  0.5735798346598545  0.5202987912086137  1.0000
  C   C236      1.0  0.7839124522790151  0.5560124399732749  0.5352150731656123  1.0000
  C   C237      1.0  0.7981789991734318  0.5592664347772709  0.5524250852193054  1.0000
  C   C238      1.0  0.8279387016488862  0.5798933113571257  0.554735859310966  1.0000
  C   C239      1.0  0.8432174367751197  0.5973988083333562  0.5398036349674173  1.0000
  C   C240      1.0  0.8289625773041011  0.5942566356607949  0.5226807909708336  1.0000
  H   H157      1.0  0.7610971756224573  0.5398520416342354  0.5335390979267883  1.0000
  H   H158      1.0  0.7861596416219605  0.5458917874899697  0.563984880030094  1.0000
  H   H159      1.0  0.8660361239779255  0.6136490133392192  0.5415541702295654  1.0000
  H   H160      1.0  0.8410100196973145  0.6079564352929855  0.511241536982738  1.0000
  C   C241      1.0  0.7857386823823589  0.31647253920980584  0.42085616399471176  1.0000
  C   C242      1.0  0.7991512120974433  0.34711278371294124  0.41903988386894364  1.0000
  C   C243      1.0  0.8280926775403631  0.3642092033240975  0.4257342589088117  1.0000
  C   C244      1.0  0.8435092142605247  0.35080910093162143  0.43455425787923874  1.0000
  C   C245      1.0  0.8301771829152186  0.32017444784892335  0.43620211433851724  1.0000
  C   C246      1.0  0.8014493446388311  0.3030495953947601  0.42926918904649647  1.0000
  H   H161      1.0  0.7872603219522025  0.3576621399828841  0.412505636504506  1.0000
  H   H162      1.0  0.8384299991844835  0.38790083241857926  0.42427212418155064  1.0000
  H   H163      1.0  0.8423106237633882  0.30970457846630084  0.4425130108848468  1.0000
  H   H164      1.0  0.7913657723076853  0.27933024106197374  0.43039310167127026  1.0000
  C   C247      1.0  0.7221760172010685  0.435391261893882  0.4120461776439165  1.0000
  C   C248      1.0  0.7356423178958384  0.45739463835883515  0.42555108483571147  1.0000
  C   C249      1.0  0.719113012439187  0.4689112373121797  0.4351285622318937  1.0000
  C   C250      1.0  0.6892058976317497  0.4590486432933166  0.43083877436450707  1.0000
  C   C251      1.0  0.6760488290946205  0.4378053881133023  0.4168871551232119  1.0000
  C   C252      1.0  0.692273856687147  0.4255240341515476  0.4077984190629854  1.0000
  H   H165      1.0  0.758863623949824  0.4653225090436059  0.42873503372924093  1.0000
  H   H166      1.0  0.7295733173488239  0.4855844124473474  0.44567344845290074  1.0000
  H   H167      1.0  0.6530782316074814  0.43052748426992116  0.4132648326642417  1.0000
  H   H168      1.0  0.6818746017596139  0.4089621385525742  0.3971832285260593  1.0000
  C   C253      1.0  0.7885231601889249  0.34263577537922707  0.1752867913797676  1.0000
  C   C254      1.0  0.7695256903325779  0.3130879503795286  0.1713006225445895  1.0000
  C   C255      1.0  0.7774256973311975  0.29781958409925674  0.15801644024485545  1.0000
  C   C256      1.0  0.8038915734188542  0.31223521934539344  0.148244285210712  1.0000
  C   C257      1.0  0.8225542745538841  0.3419903475332164  0.15189301819384782  1.0000
  C   C258      1.0  0.8151143405902349  0.3569960310198334  0.16561449995588803  1.0000
  H   H169      1.0  0.7489964606274687  0.3018086703197391  0.17872331705298  1.0000
  H   H170      1.0  0.7628981321791649  0.27480265931952946  0.15530982405349406  1.0000
  H   H171      1.0  0.8428484070536172  0.3534246035127014  0.14430647175702946  1.0000
  H   H172      1.0  0.8297813645979311  0.3799043059853128  0.16856239728034877  1.0000
  C   C259      1.0  0.687413159995701  0.34647585083755095  0.27656846575410976  1.0000
  C   C260      1.0  0.681818236611393  0.317051517476796  0.2780108110948986  1.0000
  C   C261      1.0  0.6823216861044666  0.30505567769448083  0.2954310959494867  1.0000
  C   C262      1.0  0.6884435042958776  0.322264768014121  0.31159812774274676  1.0000
  C   C263      1.0  0.6939927453585383  0.3516869430672511  0.31017278730231607  1.0000
  C   C264      1.0  0.6934095838885898  0.3636786727748224  0.2927361527116319  1.0000
  H   H173      1.0  0.6769039319777497  0.3034520844615903  0.26572868230611235  1.0000
  H   H174      1.0  0.6778964106793356  0.28223238486404034  0.296387651055417  1.0000
  H   H175      1.0  0.698725748754386  0.3651965103558198  0.32248481584883043  1.0000
  H   H176      1.0  0.6977146589725827  0.38646047559421076  0.29179098096137623  1.0000
  C   C265      1.0  0.6449702525449967  0.5883355792290997  0.0900452072815015  1.0000
  C   C266      1.0  0.64077111024006  0.6123186871331278  0.0838697175200962  1.0000
  C   C267      1.0  0.6128754986488367  0.6119341140679928  0.08506448703662507  1.0000
  C   C268      1.0  0.5888803559500416  0.5874571868600906  0.09241005509784458  1.0000
  C   C269      1.0  0.593294784119152  0.5638080488745443  0.0990051396268143  1.0000
  C   C270      1.0  0.6212266433011167  0.5643378218367654  0.09798964954134991  1.0000
  H   H177      1.0  0.6590607317538962  0.6311594576402056  0.07790076797242525  1.0000
  H   H178      1.0  0.6097844050648127  0.6302707013540232  0.07992138238078919  1.0000
  H   H179      1.0  0.5749355761018105  0.5448967072243209  0.104867834823649  1.0000
  H   H180      1.0  0.6243394983938664  0.5461071482136466  0.10328809455109694  1.0000
  C   C271      1.0  0.7855130850744603  0.5401931192498107  0.039911216974498544  1.0000
  C   C272      1.0  0.8041520432083218  0.5502400665188794  0.055373924119587116  1.0000
  C   C273      1.0  0.8341904053214733  0.5569171630510632  0.05386119227847791  1.0000
  C   C274      1.0  0.8455441364636023  0.5528185842597844  0.037049918557019446  1.0000
  C   C275      1.0  0.8268220976921237  0.5426610839105478  0.021664071486196423  1.0000
  C   C276      1.0  0.7970421179902812  0.5367145471802882  0.02305350107621451  1.0000
  H   H181      1.0  0.79554576718775  0.5531644092229081  0.06841851693358401  1.0000
  H   H182      1.0  0.8486167470474485  0.5650411519015177  0.0657894968579289  1.0000
  H   H183      1.0  0.8353720094296715  0.5398233943126968  0.008574210383708536  1.0000
  H   H184      1.0  0.7828651073969757  0.5293080513205655  0.0109696187342192  1.0000
  C   C277      1.0  0.7123790422372875  0.4641076746094715  0.14130207448212692  1.0000
  C   C278      1.0  0.7256059292873682  0.4521383012672242  0.15347839757306714  1.0000
  C   C279      1.0  0.7090974312857466  0.42384629190541  0.16084726843036473  1.0000
  C   C280      1.0  0.679045362863368  0.40777015786118664  0.1564782311906378  1.0000
  C   C281      1.0  0.665909420780993  0.41964564855086095  0.1442083578537544  1.0000
  C   C282      1.0  0.6825763949931183  0.4475816158109472  0.13649355833726443  1.0000
  H   H185      1.0  0.7487245866953719  0.4647229504895875  0.15710104376760287  1.0000
  H   H186      1.0  0.7195854879840161  0.4146806495921417  0.17004025012425877  1.0000
  H   H187      1.0  0.6427148226052345  0.4073289685824299  0.14070210723942062  1.0000
  H   H188      1.0  0.6722067075607019  0.45653212881780886  0.12705023266962046  1.0000
  C   C283      1.0  0.4445308313529002  0.06474846430628645  0.08706863933031778  1.0000
  C   C284      1.0  0.4297251080523141  0.03872466588719237  0.07661158361320813  1.0000
  C   C285      1.0  0.42296953053749764  0.011009687621454933  0.084304933263017  1.0000
  C   C286      1.0  0.43036874193985086  0.009088155857421176  0.10271114461887287  1.0000
  C   C287      1.0  0.4453043972373054  0.0351252488530871  0.11309686924268478  1.0000
  C   C288      1.0  0.4526392185566406  0.06281672075132232  0.1052831937897986  1.0000
  H   H189      1.0  0.4235023826771744  0.0400648910813565  0.062468399163382704  1.0000
  H   H190      1.0  0.4115915266112767  0.9912049751913141  0.07609541345758017  1.0000
  H   H191      1.0  0.450870389613373  0.033862439146210344  0.12739967055703075  1.0000
  H   H192      1.0  0.46379418114685766  0.0826378417804317  0.11353271243086238  1.0000
  C   C289      1.0  0.6015816535547793  0.1501763207562558  0.06049380107128159  1.0000
  C   C290      1.0  0.6280832644043151  0.1499783729909309  0.055423189506992945  1.0000
  C   C291      1.0  0.6315020202363112  0.1415535663587762  0.03745420902968934  1.0000
  C   C292      1.0  0.6081675856915844  0.13281818765642195  0.024707079702256607  1.0000
  C   C293      1.0  0.581611703310418  0.1324434468598059  0.02989379698202632  1.0000
  C   C294      1.0  0.5784626540263251  0.14130397506618575  0.04764856393639645  1.0000
  H   H193      1.0  0.6460288322658441  0.1565619342684097  0.06530536622463726  1.0000
  H   H194      1.0  0.6520766600132887  0.14171318703358293  0.033500441123654794  1.0000
  H   H195      1.0  0.563568615522867  0.1257271817504098  0.020058322250841476  1.0000
  H   H196      1.0  0.5579356413209979  0.14091723763871045  0.05125380280674084  1.0000
  C   C295      1.0  0.5611820933187184  0.2192952455163522  0.15584105253302152  1.0000
  C   C296      1.0  0.568673226686912  0.2403454757386542  0.16999539329585656  1.0000
  C   C297      1.0  0.595124272744097  0.24926740691303048  0.18002274165781915  1.0000
  C   C298      1.0  0.6137190102833143  0.23638487309280323  0.1764004068144209  1.0000
  C   C299      1.0  0.6060650020216419  0.21506586877879955  0.162381635584591  1.0000
  C   C300      1.0  0.58009559201727  0.206890824269021  0.15189424986954905  1.0000
  H   H197      1.0  0.554020100805736  0.24984759118697158  0.17318408300800728  1.0000
  H   H198      1.0  0.6006348812158804  0.2653769007629227  0.19097673252768682  1.0000
  H   H199      1.0  0.620346654056728  0.2049891881679642  0.15956299649687158  1.0000
  H   H200      1.0  0.574504532754307  0.19069496692504012  0.14095620904353126  1.0000
  C   C301      1.0  0.4601141031345416  0.029896349753649017  0.48636665585086425  1.0000
  C   C302      1.0  0.4354297519514372  0.031198569024281447  0.4786417026585759  1.0000
  C   C303      1.0  0.41129436296319893  0.0052316619630619066  0.4721955480720379  1.0000
  C   C304      1.0  0.41148245735884503  0.9777981800247789  0.4736512379651387  1.0000
  C   C305      1.0  0.4363248170556001  0.9766398962396614  0.48118131503176503  1.0000
  C   C306      1.0  0.4605437163672169  0.0025832006647534826  0.4874089030191953  1.0000
  H   H201      1.0  0.4347061531447602  0.05206147386155697  0.4778613759411777  1.0000
  H   H202      1.0  0.3921149754682144  0.006289658327843339  0.4663854022417216  1.0000
  H   H203      1.0  0.4369428340315359  0.9557624307675425  0.4821247650556438  1.0000
  H   H204      1.0  0.4797363119833228  0.0014543618336728679  0.493134532370543  1.0000
  C   C307      1.0  0.5623687860964515  0.2068032123915602  0.43071227005127616  1.0000
  C   C308      1.0  0.5831465019564152  0.2127233011587391  0.4166192581295743  1.0000
  C   C309      1.0  0.6023069598888992  0.24195626652729357  0.4117147245351245  1.0000
  C   C310      1.0  0.6000228550111169  0.26535684508565877  0.4204602197402696  1.0000
  C   C311      1.0  0.579170785823429  0.25940292933640824  0.4344713713996168  1.0000
  C   C312      1.0  0.560734066608883  0.23027585089167182  0.4397834380038589  1.0000
  H   H205      1.0  0.5845766805986914  0.1946642734837338  0.4095891939671842  1.0000
  H   H206      1.0  0.6184178503722298  0.24628830165432317  0.40098224314720116  1.0000
  H   H207      1.0  0.5770832228952465  0.27734024557528214  0.44118498996144867  1.0000
  H   H208      1.0  0.5445560448937252  0.22593233921697933  0.4504883069023003  1.0000
  C   C313      1.0  0.6793413653906193  0.04714101275286615  0.5900462298679324  1.0000
  C   C314      1.0  0.6676672324231183  0.021381122345977  0.5791896808512293  1.0000
  C   C315      1.0  0.6463290791670675  0.9945006126770743  0.5863644278685746  1.0000
  C   C316      1.0  0.6374404482300026  0.9929355790709365  0.6047419509493219  1.0000
  C   C317      1.0  0.6493639710197894  0.018620747307916297  0.6156350991161071  1.0000
  C   C318      1.0  0.6699081785561206  0.04567952896480258  0.608270173067154  1.0000
  H   H209      1.0  0.6748673798130088  0.022346554483766393  0.5650731156331681  1.0000
  H   H210      1.0  0.6371980861388449  0.9749632734621765  0.5777565102352472  1.0000
  H   H211      1.0  0.6427177478126518  0.01760820894098858  0.6298829958585266  1.0000
  H   H212      1.0  0.678897141700991  0.06530322174127601  0.6168193688542443  1.0000
  C   C319      1.0  0.7801536958319014  0.23603414748143062  0.5448336971496346  1.0000
  C   C320      1.0  0.7987724980649213  0.26493620151099617  0.5393250597269293  1.0000
  C   C321      1.0  0.8204889123039597  0.2705310479978638  0.5259377581175982  1.0000
  C   C322      1.0  0.823294914986731  0.2472011243544378  0.5175648226864734  1.0000
  C   C323      1.0  0.8047687587138886  0.21823122718254204  0.5230736489653391  1.0000
  C   C324      1.0  0.7833640622070999  0.21264296864453866  0.5368102124101398  1.0000
  H   H213      1.0  0.7964759227431779  0.28316559170723893  0.5454561179152276  1.0000
  H   H214      1.0  0.8348891915569371  0.2929692179110905  0.5220150006186466  1.0000
  H   H215      1.0  0.8067623357431164  0.20005059227864722  0.5166163048739905  1.0000
  H   H216      1.0  0.7689747523756001  0.19026392660713215  0.5409075999287547  1.0000
  C   C325      1.0  0.7246434964021674  0.2194485065059732  0.6525131039116114  1.0000
  C   C326      1.0  0.7404880244895435  0.2439090223824981  0.664044365855159  1.0000
  C   C327      1.0  0.7277748636468517  0.26207887075459607  0.6697387615148541  1.0000
  C   C328      1.0  0.6989649196883386  0.2553935280958527  0.6641682691028933  1.0000
  C   C329      1.0  0.6831903273403237  0.23085375573330974  0.6527904350700096  1.0000
  C   C330      1.0  0.6959912565959486  0.2130447406258291  0.6469177882022918  1.0000
  H   H217      1.0  0.7626699652232919  0.24890063326589487  0.6684500709617212  1.0000
  H   H218      1.0  0.7400967505593667  0.2809918951960086  0.6785319831661543  1.0000
  H   H219      1.0  0.6608431017519396  0.22547213858754972  0.6485169649953746  1.0000
  H   H220      1.0  0.6833695369629161  0.19393976067765417  0.6383465178019196  1.0000
  C   C331      1.0  0.6130888147508787  0.15500567642507695  0.5708687860364573  1.0000
  C   C332      1.0  0.5850176129299764  0.14317404930927052  0.5627110465375111  1.0000
  C   C333      1.0  0.5809575862446446  0.15393713038833834  0.5457328597785424  1.0000
  C   C334      1.0  0.6047781606727075  0.17703928811760825  0.5371646003752392  1.0000
  C   C335      1.0  0.6328093290075676  0.18892883761105347  0.5454058992531384  1.0000
  C   C336      1.0  0.6370392762730196  0.17769290696095105  0.5621485368598546  1.0000
  H   H221      1.0  0.5665311153322248  0.1254244470997892  0.5693721277310057  1.0000
  H   H222      1.0  0.5593975661857746  0.14438829962735542  0.5393852554585994  1.0000
  H   H223      1.0  0.6513128499349327  0.2067993749055633  0.5388269157304406  1.0000
  H   H224      1.0  0.6588118459898971  0.18684588933067323  0.5683745713336913  1.0000
  C   C337      1.0  0.4235185482719456  0.35846804847301345  0.6111516585535175  1.0000
  C   C338      1.0  0.4342972607328864  0.38531290659759654  0.6016312627481184  1.0000
  C   C339      1.0  0.41824709004978605  0.4019548543150571  0.6017947880191762  1.0000
  C   C340      1.0  0.3915355740920958  0.3916740541149429  0.6115034400719399  1.0000
  C   C341      1.0  0.38110715732659056  0.3649615573237093  0.6209055175841092  1.0000
  C   C342      1.0  0.39693556925254053  0.3485405430157328  0.620736851041629  1.0000
  H   H225      1.0  0.45480517547826843  0.3931016334109169  0.5941624127518116  1.0000
  H   H226      1.0  0.4264109875879454  0.42255413928180313  0.5944479931300513  1.0000
  H   H227      1.0  0.36060167480319816  0.35686005930322745  0.6284345560551964  1.0000
  H   H228      1.0  0.38841834861562025  0.32789846459779914  0.6280858620254154  1.0000
  C   C343      1.0  0.6024208414644684  0.4494169891559693  0.5701281273861954  1.0000
  C   C344      1.0  0.615842949845132  0.4312412367009722  0.5734027312095327  1.0000
  C   C345      1.0  0.6381796324059285  0.43229197990946355  0.5617654579732964  1.0000
  C   C346      1.0  0.6475399631392796  0.4519949116461757  0.5470539350386006  1.0000
  C   C347      1.0  0.6359016246334607  0.47199345126105796  0.5447218517217812  1.0000
  C   C348      1.0  0.6132055412629852  0.47062267178343126  0.5562357201990585  1.0000
  H   H229      1.0  0.6086597867474102  0.4159870137276581  0.584751752933776  1.0000
  H   H230      1.0  0.6475549550097685  0.41721520331308  0.563837781211447  1.0000
  H   H231      1.0  0.6432829889507432  0.4875378882605533  0.5334953874242534  1.0000
  H   H232      1.0  0.603043554342674  0.4849098089039441  0.5537202778216992  1.0000
  C   C349      1.0  0.5053499453926771  0.27862474308713797  0.5331045587455161  1.0000
  C   C350      1.0  0.4840275414013481  0.2575035816338226  0.544366047335157  1.0000
  C   C351      1.0  0.472076306083377  0.22742841709394915  0.5396490485255343  1.0000
  C   C352      1.0  0.48174949726904476  0.21833765416627185  0.5238712500269562  1.0000
  C   C353      1.0  0.503236726674756  0.2395110204093635  0.5127441154588526  1.0000
  C   C354      1.0  0.5148018149689855  0.26953647673566966  0.5172665130040651  1.0000
  H   H233      1.0  0.47636101820795024  0.2643265397818321  0.5564964880707364  1.0000
  H   H234      1.0  0.45528065420639285  0.2111487979726752  0.5482409699408753  1.0000
  H   H235      1.0  0.5103463096428107  0.23282172456122216  0.5003560240685833  1.0000
  H   H236      1.0  0.5310311820040892  0.28576780900875054  0.5083804133068563  1.0000
  C   C355      1.0  0.586922661424157  0.3384155726618315  0.6413727274383234  1.0000
  C   C356      1.0  0.6007377866426464  0.3243632362969753  0.6512307069689618  1.0000
  C   C357      1.0  0.6227102150177404  0.33986475227198076  0.6644999007051807  1.0000
  C   C358      1.0  0.6305343069314554  0.36940268007820126  0.6683282566068988  1.0000
  C   C359      1.0  0.6168270397658394  0.383561082759731  0.6584199188231492  1.0000
  C   C360      1.0  0.5953015700159674  0.36821374961044173  0.6448231673829861  1.0000
  H   H237      1.0  0.5944284631993927  0.3013447441635616  0.6486206235531804  1.0000
  H   H238      1.0  0.633202002964161  0.3287659576456756  0.6719983307742688  1.0000
  H   H239      1.0  0.6228456871864224  0.40643956997619796  0.661285287728847  1.0000
  H   H240      1.0  0.5849304122301568  0.37931887224614214  0.6372302082606882  1.0000
  C   C361      1.0  0.43208674551977716  0.4184880451740795  0.9746239319664873  1.0000
  C   C362      1.0  0.4546408062228491  0.4408973837006879  0.9847931886944788  1.0000
  C   C363      1.0  0.4506387926380767  0.4646914286895156  0.9917078056750535  1.0000
  C   C364      1.0  0.42403010499284993  0.46621892540356497  0.9886311235017844  1.0000
  C   C365      1.0  0.40125053790065596  0.44355462560747977  0.9787752877089521  1.0000
  C   C366      1.0  0.4053596616851902  0.41989445153917765  0.9716902024325478  1.0000
  H   H241      1.0  0.47532933926517384  0.4400886561548337  0.9870783720823697  1.0000
  H   H242      1.0  0.46837008434633487  0.4820972825451728  0.9993291941314423  1.0000
  H   H243      1.0  0.3803942265289753  0.444090601945548  0.9768028159486093  1.0000
  H   H244      1.0  0.38769298579974815  0.40243996317598885  0.9640351098155723  1.0000
  C   C367      1.0  0.5912864370488918  0.43894447677574744  0.016916448084450808  1.0000
  C   C368      1.0  0.6206756889414669  0.45659914183889594  0.022080268874154818  1.0000
  C   C369      1.0  0.6300011835207286  0.4553566043826372  0.04010813668074074  1.0000
  C   C370      1.0  0.6097690106535507  0.4370877708740646  0.05306168855133788  1.0000
  C   C371      1.0  0.5808051742547782  0.4181574924211106  0.04758916032391314  1.0000
  C   C372      1.0  0.5716027601304378  0.4188946925481233  0.029425321625270673  1.0000
  H   H245      1.0  0.636100852888394  0.4716400382270337  0.01227448762416028  1.0000
  H   H246      1.0  0.6527647347207317  0.4687918322273981  0.04403512128209995  1.0000
  H   H247      1.0  0.56518225426254  0.40374078588633106  0.05756059859067664  1.0000
  H   H248      1.0  0.548921921931311  0.4049040732361247  0.025416194322905428  1.0000
  C   C373      1.0  0.49206606244751805  0.2946770062229976  0.03560972103630844  1.0000
  C   C374      1.0  0.5225629380064885  0.30687464890574234  0.03295578778924724  1.0000
  C   C375      1.0  0.538589374451198  0.2928473777119298  0.04018765682088022  1.0000
  C   C376      1.0  0.5242650691437248  0.26642483133246586  0.05000052295037993  1.0000
  C   C377      1.0  0.4938459118705557  0.25443219717032506  0.052953258044757624  1.0000
  C   C378      1.0  0.47781810188069324  0.26860641773110355  0.04579949693278418  1.0000
  H   H249      1.0  0.5338445814927909  0.32724457521454803  0.025505621192178474  1.0000
  H   H250      1.0  0.5621741634118792  0.30234502066503627  0.038019981547694745  1.0000
  H   H251      1.0  0.4826419883809635  0.23412154493488696  0.060549463356393794  1.0000
  H   H252      1.0  0.45423328985619327  0.2591634689398173  0.047997621224015186  1.0000
  C   C379      1.0  0.56481324173367  0.3424608689251007  0.9370224886788325  1.0000
  C   C380      1.0  0.5788229258412394  0.3263654449566825  0.9299525197575028  1.0000
  C   C381      1.0  0.6081192938032074  0.3409158323875325  0.9236229318814054  1.0000
  C   C382      1.0  0.6233448518411877  0.37168438014070754  0.9240736265098064  1.0000
  C   C383      1.0  0.6091349238803522  0.3877357603932453  0.9308349377932266  1.0000
  C   C384      1.0  0.5801197711801204  0.37320282052044074  0.9375077182024865  1.0000
  H   H253      1.0  0.5670931382055534  0.3025617342324926  0.9295190792703008  1.0000
  H   H254      1.0  0.6188814577941588  0.32831411418742606  0.9184296493886919  1.0000
  H   H255      1.0  0.6206437833193202  0.41155893676987504  0.9309579719481665  1.0000
  H   H256      1.0  0.5694353154081907  0.38581518828897593  0.9427806266688903  1.0000
  N   N1        1.0  0.37863691562124513  0.8353756767661166  0.019839060340715697  1.0000
  C   C385      1.0  0.3469617582564281  0.819408533043496  0.014814978091702624  1.0000
  C   C386      1.0  0.3949215876848275  0.8562097230196807  0.005015225686678448  1.0000
  C   C387      1.0  0.3906774580132404  0.814094558286529  0.02233967328789377  1.0000
  C   C388      1.0  0.3819719861046059  0.851806796189416  0.03724517603596955  1.0000
  H   H257      1.0  0.3341786980154089  0.8029405014396895  0.025502166083036792  1.0000
  H   H258      1.0  0.3435050327491916  0.8073638450241146  0.0014743962082626183  1.0000
  H   H259      1.0  0.336932808976062  0.8347604740528809  0.013514460269792528  1.0000
  H   H260      1.0  0.3864064908095953  0.8725986868298269  0.0027569733810561825  1.0000
  H   H261      1.0  0.41887723612350913  0.8687290149938458  0.008414796843986272  1.0000
  H   H262      1.0  0.39312550597062146  0.8445857034796702  0.9916809936678102  1.0000
  H   H263      1.0  0.38828855097341314  0.8011002134678041  0.00951278786209464  1.0000
  H   H264      1.0  0.37917079040132895  0.7983467969689225  0.03363211359656226  1.0000
  H   H265      1.0  0.4146257259348139  0.8255047057037936  0.0259655714348892  1.0000
  H   H266      1.0  0.40538433169907045  0.8631598093997267  0.04190094951584444  1.0000
  H   H267      1.0  0.3689365934185995  0.8369593358959386  0.048560811872266685  1.0000
  H   H268      1.0  0.37421575406636814  0.8689102023752697  0.035674882494866944  1.0000
  N   N2        1.0  0.40062540935434815  0.6372062487135782  0.1168892477028138  1.0000
  C   C389      1.0  0.40794973566000003  0.6135455400174326  0.12281952586162592  1.0000
  C   C390      1.0  0.36921723439532395  0.6284771959463135  0.12087606110783568  1.0000
  C   C391      1.0  0.40589591588164203  0.6421368763329522  0.09687754896229236  1.0000
  C   C392      1.0  0.4194996327911067  0.6646335470437034  0.12704293801713112  1.0000
  H   H269      1.0  0.3948927365210894  0.592763492787359  0.11496388330228274  1.0000
  H   H270      1.0  0.4034314673564025  0.6086565788446187  0.13775055102404613  1.0000
  H   H271      1.0  0.43173008860225043  0.6197134244270918  0.1205073281320566  1.0000
  H   H272      1.0  0.3629189194792891  0.6459144830244171  0.11679150789081794  1.0000
  H   H273      1.0  0.35433697844871165  0.6078603395810918  0.11339498224265607  1.0000
  H   H274      1.0  0.3645476148990675  0.624432736436646  0.13589885637249205  1.0000
  H   H275      1.0  0.4008497322808794  0.6599673217296109  0.09186960459633542  1.0000
  H   H276      1.0  0.39203056535688063  0.6218367188476119  0.08878127442227038  1.0000
  H   H277      1.0  0.42936769398719293  0.6484040223429882  0.09346562142863601  1.0000
  H   H278      1.0  0.4155055523417979  0.6833344380784625  0.12246228491758793  1.0000
  H   H279      1.0  0.4434364865546395  0.6711009976267465  0.1251242533199317  1.0000
  H   H280      1.0  0.4150482885118361  0.6619722175902356  0.14208511826017586  1.0000
  N   N3        1.0  0.3363874653372587  0.6278272923590235  0.947007379230756  1.0000
  C   C393      1.0  0.30418889279006217  0.6094099184785452  0.9488677273102563  1.0000
  C   C394      1.0  0.35215178604248787  0.6209838368717833  0.9620069149564975  1.0000
  C   C395      1.0  0.34320312941054615  0.6592537862591199  0.9479927896581878  1.0000
  C   C396      1.0  0.3459400530184728  0.6215614131201164  0.9290275288174271  1.0000
  H   H281      1.0  0.2918669549986268  0.6140010039204786  0.9375608378522771  1.0000
  H   H282      1.0  0.29605779535546517  0.6137381898867473  0.9621932647703896  1.0000
  H   H283      1.0  0.298290226827791  0.5855546524332746  0.9481577529351444  1.0000
  H   H284      1.0  0.3765219928530904  0.6345750737627951  0.9610188132655164  1.0000
  H   H285      1.0  0.34542424871250227  0.6250979640350832  0.9758817263141537  1.0000
  H   H286      1.0  0.34781416961570394  0.5975172444240195  0.9615104070522569  1.0000
  H   H287      1.0  0.336301944045291  0.6647985494076297  0.9613878771817318  1.0000
  H   H288      1.0  0.33151136094326344  0.6650123509294201  0.9368517560677659  1.0000
  H   H289      1.0  0.3672816290090533  0.6738417477024917  0.9463771730537642  1.0000
  H   H290      1.0  0.3701275620337542  0.6350911835868699  0.9270174280435223  1.0000
  H   H291      1.0  0.3344334145597645  0.6262563290893539  0.9173129439931152  1.0000
  H   H292      1.0  0.34107417502707016  0.5980431231892097  0.9278616294877362  1.0000
  N   N4        1.0  0.5204660721228668  0.7480195571600304  0.9787487825095692  1.0000
  C   C397      1.0  0.5148542662049037  0.7238291838758462  0.9917995166351925  1.0000
  C   C398      1.0  0.5524940390870439  0.7681616802284692  0.9782297503005748  1.0000
  C   C399      1.0  0.5044129211764784  0.764460346488491  0.9848347924757406  1.0000
  C   C400      1.0  0.510103232088844  0.7357765532448449  0.9600772571751318  1.0000
  H   H293      1.0  0.4909849076044417  0.7078322377647889  0.9922090686319981  1.0000
  H   H294      1.0  0.5216071172527578  0.7323257541444707  0.006113510784327536  1.0000
  H   H295      1.0  0.5273748682928204  0.7114876383800443  0.9880202240299836  1.0000
  H   H296      1.0  0.565347766102675  0.7566183170199096  0.9735506616059628  1.0000
  H   H297      1.0  0.5574328615236374  0.7868611453933642  0.9686541685287664  1.0000
  H   H298      1.0  0.5611352042173198  0.7778258569135077  0.9920521541121013  1.0000
  H   H299      1.0  0.5073947625197598  0.7822097155478855  0.9749372095214706  1.0000
  H   H300      1.0  0.5124366373773518  0.7750256877913089  0.9985618296686983  1.0000
  H   H301      1.0  0.4802745254957404  0.7498764032127911  0.9859416210763845  1.0000
  H   H302      1.0  0.5144538161475493  0.753659128381555  0.9499344369890794  1.0000
  H   H303      1.0  0.48590099786989704  0.7209673653800708  0.9597994407438446  1.0000
  H   H304      1.0  0.5215195619400792  0.7229795493572863  0.9550578819668422  1.0000
  N   N5        1.0  0.4442737354716946  0.7993172691354512  0.8469535145280842  1.0000
  C   C401      1.0  0.4630276411676451  0.8002749705847758  0.8628926584207934  1.0000
  C   C402      1.0  0.4541671218977975  0.8294078397689648  0.8397858527931431  1.0000
  C   C403      1.0  0.41319174598073094  0.7873645822121568  0.8528593477584961  1.0000
  C   C404      1.0  0.4466113318706188  0.7802428639770262  0.8322894048962981  1.0000
  H   H305      1.0  0.48665433150613113  0.80904510729961  0.8590215760067668  1.0000
  H   H306      1.0  0.45596681264772265  0.7779860773200703  0.8688157549074342  1.0000
  H   H307      1.0  0.4616020514843494  0.8143215596830164  0.8742811736733309  1.0000
  H   H308      1.0  0.4404264671414566  0.8294516096586461  0.8277697908040282  1.0000
  H   H309      1.0  0.4525457238774759  0.8442492737947735  0.8505556005693082  1.0000
  H   H310      1.0  0.477580299412795  0.8391578572450371  0.8352371766019202  1.0000
  H   H311      1.0  0.3982093373972639  0.7858545288523231  0.8411892710566526  1.0000
  H   H312      1.0  0.4104670432718661  0.8009378281486081  0.864062014118337  1.0000
  H   H313      1.0  0.40517858792859646  0.764798499853196  0.8583838826808953  1.0000
  H   H314      1.0  0.46969896861752364  0.7885475736688334  0.827374414830319  1.0000
  H   H315      1.0  0.4322673371455597  0.7785522593013934  0.8201946174247844  1.0000
  H   H316      1.0  0.43926359964384576  0.7573436197703656  0.8372440179532016  1.0000
  N   N6        1.0  0.7767472132707054  0.3636161219784149  0.25641265181991246  1.0000
  C   C405      1.0  0.7875175787449271  0.3518965630398686  0.24109374408850603  1.0000
  C   C406      1.0  0.7628211252545959  0.3812214858551892  0.24880773563931616  1.0000
  C   C407      1.0  0.8018196877306183  0.3824734097578298  0.2685082895695648  1.0000
  C   C408      1.0  0.7547780553504312  0.33893124053982937  0.2672415377262266  1.0000
  H   H317      1.0  0.7984129240300348  0.338677833755695  0.24624081231382097  1.0000
  H   H318      1.0  0.8036669838038906  0.3699028982189475  0.2323612124751081  1.0000
  H   H319      1.0  0.769128087847532  0.33743214119922255  0.23173792190852008  1.0000
  H   H320      1.0  0.7542446049545921  0.3903352409349367  0.25993972736930576  1.0000
  H   H321      1.0  0.7785660709126371  0.3998664050545794  0.24033663280340564  1.0000
  H   H322      1.0  0.7437263785749224  0.3675744846379883  0.2397437686065806  1.0000
  H   H323      1.0  0.7943745991940248  0.39171712545581777  0.28017251957961337  1.0000
  H   H324      1.0  0.8188160466532117  0.4013232596859889  0.26075927824002254  1.0000
  H   H325      1.0  0.8127715692079178  0.36985508113914983  0.2745756523511547  1.0000
  H   H326      1.0  0.7463637565229392  0.34702957192759515  0.2790101421764786  1.0000
  H   H327      1.0  0.7643165597119714  0.32489432498364973  0.2730581344346164  1.0000
  H   H328      1.0  0.7353042112611899  0.3245160198694457  0.25860078224316535  1.0000
  N   N7        1.0  0.4733184503477459  0.8314766494830317  0.49189937468997597  1.0000
  C   C409      1.0  0.5016845148757693  0.8505380444797486  0.501184206241895  1.0000
  C   C410      1.0  0.4771353135534842  0.8342835765979458  0.4716743642909328  1.0000
  C   C411      1.0  0.4506512427902932  0.840496109131869  0.4975242905657977  1.0000
  C   C412      1.0  0.4637637591378317  0.8005230588548166  0.4972197517109771  1.0000
  H   H329      1.0  0.5094425152855726  0.8741593392305569  0.497721698603063  1.0000
  H   H330      1.0  0.5194423318305192  0.844591112786536  0.4972042872744077  1.0000
  H   H331      1.0  0.49968447048783093  0.8487805668708717  0.5164804235854499  1.0000
  H   H332      1.0  0.4835500140000279  0.8572147120071781  0.4671052467155102  1.0000
  H   H333      1.0  0.49444902870527596  0.8281736937075079  0.4669485766768111  1.0000
  H   H334      1.0  0.45625827307572375  0.8197364063502954  0.4642472968239256  1.0000
  H   H335      1.0  0.4286726423071733  0.8258908227180419  0.49132832536005  1.0000
  H   H336      1.0  0.45648754148211873  0.8632912798047305  0.4929636226142581  1.0000
  H   H337      1.0  0.4480395615624941  0.8399108914368996  0.5127901628941434  1.0000
  H   H338      1.0  0.460510816146597  0.7976491110381992  0.5123959041357626  1.0000
  H   H339      1.0  0.48044964266065665  0.7930376738133412  0.49326040805916826  1.0000
  H   H340      1.0  0.4424876233868757  0.785545534906324  0.4903344166942093  1.0000
  N   N8        1.0  0.8160305976597815  0.22641519908756624  0.9795005377558138  1.0000
  C   C413      1.0  0.7981110646353805  0.24225703688063804  0.9821653969089865  1.0000
  C   C414      1.0  0.8473240130641256  0.24796292722431734  0.9770496813935061  1.0000
  C   C415      1.0  0.8053589375066472  0.20739189835782268  0.9629165075085792  1.0000
  C   C416      1.0  0.8133533640474924  0.20814508975212243  0.9958743433543588  1.0000
  H   H341      1.0  0.774782077361492  0.22676097665011685  0.9855174774051838  1.0000
  H   H342      1.0  0.7973625071507454  0.2541601398630784  0.9694728553004188  1.0000
  H   H343      1.0  0.8069996786211212  0.25860554469637886  0.9935949025528448  1.0000
  H   H344      1.0  0.8614419523728492  0.23673471002826507  0.9748801318510832  1.0000
  H   H345      1.0  0.8500548975982304  0.26231136298676594  0.9649281262895486  1.0000
  H   H346      1.0  0.8561012889659966  0.2625284389342428  0.9894145418800947  1.0000
  H   H347      1.0  0.8178733664599852  0.1945673077151584  0.9605917221632642  1.0000
  H   H348      1.0  0.8070679175270344  0.22045181306067319  0.9502929108833474  1.0000
  H   H349      1.0  0.7816401209390933  0.1913993722251417  0.9641371281833149  1.0000
  H   H350      1.0  0.8261041230985345  0.19539700141898342  0.9942712228265058  1.0000
  H   H351      1.0  0.7899310038585631  0.19196414197028155  0.9983842663975073  1.0000
  H   H352      1.0  0.8215491005354618  0.22188561066007684  0.008598893295431731  1.0000
  N   N9        1.0  0.2219741642559059  0.5807804579794554  0.5868296788792194  1.0000
  C   C417      1.0  0.24312566067161587  0.6120267427435312  0.5899977854739028  1.0000
  C   C418      1.0  0.2302206106196175  0.5619050559257002  0.5985273865498635  1.0000
  C   C419      1.0  0.22267286861517183  0.5731746786227025  0.5672022023242399  1.0000
  C   C420      1.0  0.1918683985510744  0.5760308963795022  0.5916072189704271  1.0000
  H   H353      1.0  0.26598896802520927  0.6166366039976562  0.5861767661509129  1.0000
  H   H354      1.0  0.24361499659109132  0.6182777151674538  0.6047552286598504  1.0000
  H   H355      1.0  0.23690688452238978  0.6269337537139444  0.581880776771796  1.0000
  H   H356      1.0  0.21464309264743264  0.5381643341644641  0.596463070906035  1.0000
  H   H357      1.0  0.2528403979024135  0.5649182229546182  0.5953305676168963  1.0000
  H   H358      1.0  0.22992786984705177  0.5671317785487029  0.6134481149501517  1.0000
  H   H359      1.0  0.21655008019393757  0.5870377367632122  0.5580043491265143  1.0000
  H   H360      1.0  0.20691018535076405  0.5497183190485696  0.5642857541336643  1.0000
  H   H361      1.0  0.2449952572015977  0.5763657485351006  0.563095191557309  1.0000
  H   H362      1.0  0.17508598923430463  0.5530198404273297  0.5885988698003567  1.0000
  H   H363      1.0  0.1854711893964525  0.5910353008666261  0.5837499049628878  1.0000
  H   H364      1.0  0.19024771062115084  0.580425308133275  0.6065182743872272  1.0000
  N   N10       1.0  0.6585729858060042  0.42306202461351855  0.21357769693684944  1.0000
  C   C421      1.0  0.6575131152667453  0.4395816160327884  0.23011629556969576  1.0000
  C   C422      1.0  0.6896986942638528  0.4318297323163311  0.2088556685716166  1.0000
  C   C423      1.0  0.6438013810360433  0.4296647600217062  0.19789959243926122  1.0000
  C   C424      1.0  0.6433906956582215  0.3911314802420428  0.21742289020536243  1.0000
  H   H365      1.0  0.6343240869616157  0.43363044124002775  0.23401502235838437  1.0000
  H   H366      1.0  0.6690590854763493  0.46377652894069615  0.22773795928889792  1.0000
  H   H367      1.0  0.6683114549118786  0.43481172415444774  0.24219526026672927  1.0000
  H   H368      1.0  0.6911122751958683  0.4192081591381392  0.1967039522922029  1.0000
  H   H369      1.0  0.7017551046933436  0.45560076908384917  0.2052976018291544  1.0000
  H   H370      1.0  0.7017119826300547  0.42757620302871613  0.22044888800591286  1.0000
  H   H371      1.0  0.6441440570170143  0.4173915771347229  0.18522846780019334  1.0000
  H   H372      1.0  0.6549598170219081  0.45349893223506826  0.19439086178277204  1.0000
  H   H373      1.0  0.6202481123450747  0.4233821847869577  0.20092050374356274  1.0000
  H   H374      1.0  0.6544432147417231  0.3851739227510614  0.2288485619518959  1.0000
  H   H375      1.0  0.6433051045148993  0.37804658125044843  0.20507767993980383  1.0000
  H   H376      1.0  0.6199504541882996  0.3836979671993464  0.22134296971506068  1.0000
  N   N11       1.0  0.5013246102690078  0.07440098464926438  0.43455094569523045  1.0000
  C   C425      1.0  0.5309704245403987  0.08740676100521144  0.44325862513376363  1.0000
  C   C426      1.0  0.48280266737223954  0.08580243769403909  0.4438731114648749  1.0000
  C   C427      1.0  0.4874776956776778  0.041992001141441436  0.4363082465525122  1.0000
  C   C428      1.0  0.5040781864199768  0.08260622709450913  0.4148600488575263  1.0000
  H   H377      1.0  0.5456594408465506  0.07938067979271128  0.43660101401158585  1.0000
  H   H378      1.0  0.5296535560631951  0.08175506084354262  0.4581926154712758  1.0000
  H   H379      1.0  0.5419669500375542  0.11190956090012238  0.4422343018463925  1.0000
  H   H380      1.0  0.4811701341167352  0.08095928164669522  0.458881677608263  1.0000
  H   H381      1.0  0.4922063255872546  0.1101212186523116  0.44237613410770654  1.0000
  H   H382      1.0  0.4599317688785984  0.07583741886562756  0.438133294296695  1.0000
  H   H383      1.0  0.46472353653566184  0.03142935201954475  0.430340302436316  1.0000
  H   H384      1.0  0.4856247079430205  0.035328517910235745  0.45105874360088705  1.0000
  H   H385      1.0  0.5006105548619971  0.03251042909922357  0.42921579671128046  1.0000
  H   H386      1.0  0.5180426349766354  0.07451167276480446  0.40734956228437197  1.0000
  H   H387      1.0  0.5144648404091187  0.10703714489666968  0.41325426634893  1.0000
  H   H388      1.0  0.48208024721739307  0.07332097633698037  0.40789386294346897  1.0000
  N   N12       1.0  0.4535488803079568  0.5338054597828668  0.05150242994174582  1.0000
  C   C429      1.0  0.4612520323000162  0.5112850666066586  0.043836978548166435  1.0000
  C   C430      1.0  0.4617192351789934  0.5582069765164017  0.03824214038787993  1.0000
  C   C431      1.0  0.46978861806174715  0.5452082274065493  0.06908142122963364  1.0000
  C   C432      1.0  0.42137617467121924  0.5204731270975663  0.05479698513116134  1.0000
  H   H389      1.0  0.45553233961532036  0.4926530238389079  0.05355131898890867  1.0000
  H   H390      1.0  0.48525787182660984  0.5207469430823934  0.04082980948469046  1.0000
  H   H391      1.0  0.44907736625342404  0.5018391134301586  0.030726501768217392  1.0000
  H   H392      1.0  0.4858590078903441  0.5690810723945616  0.035477317390782956  1.0000
  H   H393      1.0  0.44992243315671215  0.5502412036660594  0.024787837603136964  1.0000
  H   H394      1.0  0.45590638708398484  0.5754265921343965  0.04358254040684098  1.0000
  H   H395      1.0  0.46463509831265337  0.5622914914711307  0.07528246186029418  1.0000
  H   H396      1.0  0.4941734668263164  0.5555099684860796  0.06712419339633977  1.0000
  H   H397      1.0  0.46400576965192414  0.5274703358968489  0.07947630830976961  1.0000
  H   H398      1.0  0.4085667004302897  0.5118834466935279  0.04171858181486316  1.0000
  H   H399      1.0  0.41484852280134427  0.5368828942243642  0.06065813600008148  1.0000
  H   H400      1.0  0.41420136699141535  0.5018570267004877  0.06465102995581194  1.0000
  N   N13       1.0  0.600874758375514  0.27913319711377305  0.3464693384072067  1.0000
  C   C433      1.0  0.6013534400305304  0.2657456763224106  0.32841623957856314  1.0000
  C   C434      1.0  0.6167573604329226  0.3115674561771444  0.3450100297379085  1.0000
  C   C435      1.0  0.6155045759189491  0.2691576362725592  0.36050363272710656  1.0000
  C   C436      1.0  0.57001011900214  0.2701089422002661  0.3520158791490441  1.0000
  H   H401      1.0  0.5899756990124065  0.2412705595562577  0.32904238086661597  1.0000
  H   H402      1.0  0.6244763116326973  0.27241861439195775  0.3238775951679033  1.0000
  H   H403      1.0  0.5904528241748827  0.27269828785149164  0.3174520198432072  1.0000
  H   H404      1.0  0.6166650644874753  0.3224335859701557  0.3583495343245273  1.0000
  H   H405      1.0  0.6402820511167757  0.3191451715533216  0.3411356817368819  1.0000
  H   H406      1.0  0.6066725402856326  0.3198854056236951  0.3343155518703582  1.0000
  H   H407      1.0  0.6169518561794743  0.2799657310850296  0.3741253644226468  1.0000
  H   H408      1.0  0.6383456359475214  0.2743381050688049  0.3562801044189035  1.0000
  H   H409      1.0  0.6034716258285169  0.24493707089955874  0.36260796588265587  1.0000
  H   H410      1.0  0.5691099338613865  0.27956162648512717  0.3657632287384615  1.0000
  H   H411      1.0  0.5573333838329829  0.24572701637033895  0.35311663344179933  1.0000
  H   H412      1.0  0.5583216435640959  0.2775909359101404  0.34188830865595893  1.0000
  N   N14       1.0  0.5873170192220594  0.5133549956282456  0.05056163707371839  1.0000
  C   C437      1.0  0.5992132432170241  0.5062223434920272  0.06742805109808753  1.0000
  C   C438      1.0  0.60994669678203  0.5228158616321247  0.035986205069154925  1.0000
  C   C439      1.0  0.579557092541255  0.5374558988931328  0.05456819337178218  1.0000
  C   C440      1.0  0.560695249024582  0.48694757952741446  0.044257979640069126  1.0000
  H   H413      1.0  0.5834083304093448  0.5003862578905757  0.07908017246692098  1.0000
  H   H414      1.0  0.6202347770190356  0.5251032231491032  0.07196864131181024  1.0000
  H   H415      1.0  0.6040248443821341  0.48723341158371064  0.0651354710861725  1.0000
  H   H416      1.0  0.6015669629081929  0.5277123228968305  0.02288005401070259  1.0000
  H   H417      1.0  0.63021127351996  0.5429101354049758  0.040247525514651335  1.0000
  H   H418      1.0  0.6167396990960726  0.5054040605952502  0.032911814530615445  1.0000
  H   H419      1.0  0.5702516296183261  0.5432458844459961  0.04220343166452269  1.0000
  H   H420      1.0  0.5992945163879666  0.5578030350886318  0.0591560497276689  1.0000
  H   H421      1.0  0.5629394163607482  0.5314372668085754  0.06577909053626348  1.0000
  H   H422      1.0  0.5512369754827117  0.4912797057125805  0.03140836895647114  1.0000
  H   H423      1.0  0.543214424160737  0.4791543704353824  0.05496913730856363  1.0000
  H   H424      1.0  0.565892239530921  0.46840204002194025  0.04117961167133402  1.0000
  N   N15       1.0  0.2585189716506172  0.6526259938674157  0.4008851459710875  1.0000
  C   C441      1.0  0.26411875105347593  0.6720464996877992  0.3847427430224253  1.0000
  C   C442      1.0  0.2846448921061134  0.6648591781086153  0.4132562570200299  1.0000
  C   C443      1.0  0.25283778187795375  0.6228707106030509  0.39459952078769595  1.0000
  C   C444      1.0  0.23251781644958616  0.6507598127127115  0.41096786299595117  1.0000
  H   H425      1.0  0.24485403441031628  0.6637091629245923  0.3751148440014616  1.0000
  H   H426      1.0  0.2835908460683056  0.6738310870820242  0.37685473035108163  1.0000
  H   H427      1.0  0.26904777281584646  0.6948560175848955  0.38901325486123667  1.0000
  H   H428      1.0  0.2809990468615258  0.6512912526867964  0.4258513086536832  1.0000
  H   H429      1.0  0.30446384707052626  0.6658240704205116  0.40621753135136435  1.0000
  H   H430      1.0  0.29032372794020106  0.6877688359590134  0.41771900870373285  1.0000
  H   H431      1.0  0.24759173318052946  0.6073929114900897  0.4063891026541299  1.0000
  H   H432      1.0  0.27241635964240596  0.6232233502786731  0.3875029379740977  1.0000
  H   H433      1.0  0.23387362330545297  0.6132783807801503  0.3847602193303659  1.0000
  H   H434      1.0  0.23610488804417032  0.6728531038959747  0.4159221968120364  1.0000
  H   H435      1.0  0.22773113918056612  0.6362031803068964  0.4232368556991976  1.0000
  H   H436      1.0  0.21237137182748553  0.6415758681929885  0.40204511721641883  1.0000
  N   N16       1.0  0.8275487575014853  0.5051666743199978  0.5124422665702726  1.0000
  C   C445      1.0  0.8446781988177192  0.5334114798811539  0.5222280339926093  1.0000
  C   C446      1.0  0.8209142284002556  0.48054657273100043  0.5253218387504145  1.0000
  C   C447      1.0  0.8450503570661286  0.502839936375095  0.4968666224605092  1.0000
  C   C448      1.0  0.7996313088631921  0.5039988965913419  0.5054100095565245  1.0000
  H   H437      1.0  0.849566299211408  0.5525282247973163  0.5130751010838981  1.0000
  H   H438      1.0  0.8661353734811265  0.5354746604329892  0.5274838707697054  1.0000
  H   H439      1.0  0.8324312012821544  0.5355016882284698  0.5343337143440697  1.0000
  H   H440      1.0  0.8415634899232265  0.48102412999204036  0.5310133255247037  1.0000
  H   H441      1.0  0.8077266182195643  0.4816141380353556  0.5372702873302122  1.0000
  H   H442      1.0  0.8082422289756025  0.4588321127268871  0.5183997402746995  1.0000
  H   H443      1.0  0.8328309991552217  0.481782199353232  0.4891333493202336  1.0000
  H   H444      1.0  0.8662356301872174  0.5036127525969656  0.5017958741450081  1.0000
  H   H445      1.0  0.850636614556626  0.5212199748939585  0.4869576892502952  1.0000
  H   H446      1.0  0.8038428478890028  0.5225923682479994  0.49587450799709726  1.0000
  H   H447      1.0  0.7859067198482086  0.5056325293873614  0.5168636705632965  1.0000
  H   H448      1.0  0.7861271321213785  0.483132747085492  0.4977793872988653  1.0000
  N   N17       1.0  0.5096605014958084  0.7599209968466362  0.6018459586000963  1.0000
  C   C449      1.0  0.5197529127870921  0.7615841226823584  0.5826008843712666  1.0000
  C   C450      1.0  0.5330269774279313  0.7834709142257105  0.6129323784770287  1.0000
  C   C451      1.0  0.5034607959380027  0.7309464444127468  0.6096671365041316  1.0000
  C   C452      1.0  0.4824931314531415  0.7637347404636343  0.602224264794219  1.0000
  H   H449      1.0  0.5026815457276208  0.7444268210668811  0.5736799729830979  1.0000
  H   H450      1.0  0.540068550463279  0.7585090780498062  0.5818466381288177  1.0000
  H   H451      1.0  0.5252809075791974  0.7834481257739987  0.5764311295052716  1.0000
  H   H452      1.0  0.5266615156776061  0.7823223505077227  0.6276770999638247  1.0000
  H   H453      1.0  0.5542363063748033  0.7820118048304211  0.6123280704464914  1.0000
  H   H454      1.0  0.5375695790130264  0.805661957043436  0.6077711970569407  1.0000
  H   H455      1.0  0.48597006527905456  0.7126142788298996  0.6016289501445332  1.0000
  H   H456      1.0  0.49576033316891716  0.7290107333526671  0.6242100803056764  1.0000
  H   H457      1.0  0.523565595090439  0.7274224384673812  0.60965821403075  1.0000
  H   H458      1.0  0.48665097684396713  0.7859416384267401  0.5972084813702393  1.0000
  H   H459      1.0  0.47367062912442937  0.7614367749109312  0.6164732407630725  1.0000
  H   H460      1.0  0.46470435809694416  0.7470515398897871  0.5934575395267676  1.0000
  N   N18       1.0  0.20330675202504403  0.5089120952005536  0.9884331349233139  1.0000
  C   C453      1.0  0.23330316175734195  0.5109866579679929  0.9882843934145199  1.0000
  C   C454      1.0  0.20514381810354484  0.5381849078140515  0.9846467061610802  1.0000
  C   C455      1.0  0.18988108916226182  0.49873139435322517  0.006719024892076763  1.0000
  C   C456      1.0  0.18488111595337534  0.4876925139643335  0.9741217720277007  1.0000
  H   H461      1.0  0.24775658983631704  0.526682046509213  0.9990069579849084  1.0000
  H   H462      1.0  0.2442100523222949  0.5185636366460025  0.9747224243394557  1.0000
  H   H463      1.0  0.2327591740988121  0.4892592440367092  0.9911246716950769  1.0000
  H   H464      1.0  0.21891569574947153  0.5547504342064418  0.9952106899161165  1.0000
  H   H465      1.0  0.21501908865661912  0.5466318395822083  0.9709369325017796  1.0000
  H   H466      1.0  0.18292073501864095  0.5375522873718572  0.9848156654415512  1.0000
  H   H467      1.0  0.1672111488416727  0.4968876215100396  0.007417611229192378  1.0000
  H   H468      1.0  0.20321310090089395  0.5142503131767721  0.017853009330761616  1.0000
  H   H469      1.0  0.18832092528295383  0.47678151161910365  0.010115642824240823  1.0000
  H   H470      1.0  0.16205949908065237  0.4855476263873564  0.9738933211538762  1.0000
  H   H471      1.0  0.18312539255377963  0.46538926505057143  0.976633121099304  1.0000
  H   H472      1.0  0.19437245008174633  0.49466032574648183  0.9601309207181599  1.0000
  N   N19       1.0  0.2514631607658342  0.7079182188842477  0.5052820506545691  1.0000
  C   C457      1.0  0.2780778315210408  0.7032086934365354  0.5063760423588165  1.0000
  C   C458      1.0  0.25831700721452955  0.7349308608339763  0.4946646479918973  1.0000
  C   C459      1.0  0.2422520275818305  0.7111546203419681  0.5241224620383795  1.0000
  C   C460      1.0  0.22729147896972535  0.682431663542038  0.49598992764270555  1.0000
  H   H473      1.0  0.2857260288251755  0.7008329652955385  0.4923931509329398  1.0000
  H   H474      1.0  0.2736530690394934  0.6829397147072465  0.5142793376237471  1.0000
  H   H475      1.0  0.2966577472862766  0.7220956673932519  0.5133828795091466  1.0000
  H   H476      1.0  0.27701229212716516  0.7544492677443347  0.5010443195614552  1.0000
  H   H477      1.0  0.2647722532765382  0.7332371543291143  0.4802453959770818  1.0000
  H   H478      1.0  0.23906836057977676  0.7398236917087277  0.4940108830899265  1.0000
  H   H479      1.0  0.22156663583188396  0.713651260154774  0.5238862133573071  1.0000
  H   H480      1.0  0.25949281051098194  0.7308327272079472  0.5313331532504498  1.0000
  H   H481      1.0  0.2377306972821387  0.6915382626578592  0.5327183686348729  1.0000
  H   H482      1.0  0.2224630623212407  0.6615077406476216  0.5032066285790765  1.0000
  H   H483      1.0  0.2328746802129842  0.6800311805026235  0.4814792181224333  1.0000
  H   H484      1.0  0.20639790667801639  0.6845640435561212  0.4958552757967049  1.0000
  N   N20       1.0  0.7518023768053997  0.23953940926349093  0.09125945305591933  1.0000
  C   C461      1.0  0.7704347913462893  0.26967447376119646  0.08450894868946274  1.0000
  C   C462      1.0  0.7322520744852832  0.22133283248649238  0.07616455921132786  1.0000
  C   C463      1.0  0.7337369835383625  0.2408243670631795  0.10683874486790303  1.0000
  C   C464      1.0  0.7709155253619026  0.226414661430437  0.09758131324530483  1.0000
  H   H485      1.0  0.7849753322363056  0.2697520196414777  0.0730543316579365  1.0000
  H   H486      1.0  0.7850089692628316  0.2840536335041627  0.0956955268539521  1.0000
  H   H487      1.0  0.7568285533150091  0.28014090284980986  0.07929870113361928  1.0000
  H   H488      1.0  0.7452494002408723  0.2201132793765706  0.0641683081066286  1.0000
  H   H489      1.0  0.7180687137803946  0.19832064678189695  0.08068634778915361  1.0000
  H   H490      1.0  0.7173561029565777  0.230441652144158  0.07108986612419652  1.0000
  H   H491      1.0  0.7193700647975234  0.2184796385908251  0.11232385887243843  1.0000
  H   H492      1.0  0.7191070640930761  0.2507283973401361  0.10260464711830831  1.0000
  H   H493      1.0  0.7479443676860312  0.2544365029891356  0.11845737793119145  1.0000
  H   H494      1.0  0.757626853666026  0.2036250393301168  0.1027322331155458  1.0000
  H   H495      1.0  0.7859866843684823  0.23964890346603807  0.1089525124269859  1.0000
  H   H496      1.0  0.7849767923943779  0.22527273310513465  0.08621348038455719  1.0000
  N   N21       1.0  0.7649342847175631  0.2733684813826848  0.4819638616666383  1.0000
  C   C465      1.0  0.790227228849149  0.2696744767429402  0.47481427206518556  1.0000
  C   C466      1.0  0.7482728542679665  0.277411155497764  0.46633794036859394  1.0000
  C   C467      1.0  0.7759602507927521  0.2995578817367676  0.49417856773911956  1.0000
  C   C468      1.0  0.7454962108018702  0.24691069982983416  0.49253361335097556  1.0000
  H   H497      1.0  0.8028059797557364  0.2657921876622076  0.4861496123253056  1.0000
  H   H498      1.0  0.8059746357871181  0.2896718837547667  0.4674673633600912  1.0000
  H   H499      1.0  0.7830204623626892  0.25075170565370014  0.46503798441495514  1.0000
  H   H500      1.0  0.7284662371834264  0.27937240176123285  0.4711046686857203  1.0000
  H   H501      1.0  0.7621542010603128  0.2977037468403709  0.4584240472179413  1.0000
  H   H502      1.0  0.7406420000351873  0.25867992498454556  0.4563529023732108  1.0000
  H   H503      1.0  0.7574954299149058  0.30294690532935753  0.4999736707468701  1.0000
  H   H504      1.0  0.7907279943985435  0.3199310526778658  0.4866102535916309  1.0000
  H   H505      1.0  0.7889739621261691  0.29741618096171496  0.5059872175873454  1.0000
  H   H506      1.0  0.726158450817677  0.24886041584838078  0.49824822139535374  1.0000
  H   H507      1.0  0.7575537410745564  0.24329992027040698  0.5043992904669629  1.0000
  H   H508      1.0  0.736903223248018  0.22673904210780021  0.4837340931420283  1.0000
  N   N22       1.0  0.5261596948231431  0.8471673158505146  0.08352256361023026  1.0000
  C   C469      1.0  0.5480357636789792  0.8355718203810276  0.08231400434838762  1.0000
  C   C470      1.0  0.4960512075893773  0.8226634103239477  0.08132915854828777  1.0000
  C   C471      1.0  0.5317529072043891  0.86902036273772  0.06877989444362959  1.0000
  C   C472      1.0  0.5287102863045879  0.8614337383196208  0.10168939254645327  1.0000
  H   H509      1.0  0.5710190848604006  0.8533984128637646  0.08400629736903012  1.0000
  H   H510      1.0  0.5467997484569439  0.8249423281813864  0.06866799880068399  1.0000
  H   H511      1.0  0.5442849264367516  0.8187004434569111  0.09305531858097067  1.0000
  H   H512      1.0  0.4912527679663504  0.8055930863226557  0.09207660824950796  1.0000
  H   H513      1.0  0.47898188398420066  0.8305925587425335  0.0823899360043627  1.0000
  H   H514      1.0  0.4931055207776778  0.8116638915288774  0.06764836227311606  1.0000
  H   H515      1.0  0.5166047519628719  0.8793000703636321  0.06985128107842159  1.0000
  H   H516      1.0  0.5284271964484227  0.8587026093467739  0.05483678653339015  1.0000
  H   H517      1.0  0.5547630419597496  0.8870688368930063  0.069402810796775  1.0000
  H   H518      1.0  0.512205249862296  0.8701360277090426  0.10300105923039504  1.0000
  H   H519      1.0  0.5510391024620512  0.8802487464723234  0.10377128849534993  1.0000
  H   H520      1.0  0.5247492415619766  0.8456370261780534  0.11316505198080837  1.0000
  N   N23       1.0  0.6593036317930889  0.3679813232256192  0.4540716792036046  1.0000
  C   C473      1.0  0.656754348016769  0.338080042808621  0.4562632598224908  1.0000
  C   C474      1.0  0.64197495903161  0.3684709302677272  0.4377314416844094  1.0000
  C   C475      1.0  0.6906567676787503  0.3894108630269111  0.4516039502260313  1.0000
  C   C476      1.0  0.6477871053428255  0.37606653802968176  0.47068412183724945  1.0000
  H   H521      1.0  0.6697440308555047  0.3368052786651078  0.46832714836391676  1.0000
  H   H522      1.0  0.6648803021436956  0.33122607608764304  0.4438472999651209  1.0000
  H   H523      1.0  0.6333476284721259  0.3213043797813344  0.45803205799063795  1.0000
  H   H524      1.0  0.6187622893494885  0.35082146563138267  0.43829793586157506  1.0000
  H   H525      1.0  0.6412952897646146  0.3898891110249556  0.4365293045529055  1.0000
  H   H526      1.0  0.6516149497066399  0.36493832775300233  0.4247403258848011  1.0000
  H   H527      1.0  0.7047052082724982  0.38893035916243685  0.4632921303437469  1.0000
  H   H528      1.0  0.6933538841198973  0.41226208742944076  0.45060512298661115  1.0000
  H   H529      1.0  0.6998685913184639  0.3850263330897157  0.43871292641011556  1.0000
  H   H530      1.0  0.6495912430540384  0.39864692674919167  0.46942316551981456  1.0000
  H   H531      1.0  0.6604323335388347  0.3759862103523043  0.48327057427506787  1.0000
  H   H532      1.0  0.6241275828159222  0.3604629383196299  0.47288374509751857  1.0000
  N   N24       1.0  0.5939956024202472  0.29851093189957084  0.12320574066705535  1.0000
  C   C477      1.0  0.607245373819411  0.27827918590080025  0.12596890936166846  1.0000
  C   C478      1.0  0.5762203436274271  0.29750275418029715  0.13950848731023513  1.0000
  C   C479      1.0  0.5747170879121068  0.2893146815890261  0.10660845993534088  1.0000
  C   C480      1.0  0.6177502480830391  0.32884629865651677  0.12083358137011538  1.0000
  H   H533      1.0  0.6213782681040648  0.2788760193417808  0.11415360269506725  1.0000
  H   H534      1.0  0.5898811929464826  0.2551514986453957  0.12727136234497916  1.0000
  H   H535      1.0  0.6210119910905425  0.2837537557411968  0.13878337666955376  1.0000
  H   H536      1.0  0.5662156490638488  0.31280695313416074  0.13805113763791127  1.0000
  H   H537      1.0  0.557810094025559  0.2749781046686779  0.14151366900424128  1.0000
  H   H538      1.0  0.5899307733681601  0.3036765550020184  0.15235709383695248  1.0000
  H   H539      1.0  0.564874956769188  0.304470660224322  0.10378249542930006  1.0000
  H   H540      1.0  0.5560571638345572  0.2668005467515385  0.10824544268723695  1.0000
  H   H541      1.0  0.5870235807788216  0.28871849631095786  0.09406914466323152  1.0000
  H   H542      1.0  0.6315051262300198  0.33049165629525057  0.10858536497438954  1.0000
  H   H543      1.0  0.6327382157742651  0.3362859858421366  0.13312075699706172  1.0000
  H   H544      1.0  0.6086165540850471  0.34482698130734946  0.11894233609337104  1.0000
  N   N25       1.0  0.0731722959785357  0.4692667395778844  0.513469036897265  1.0000
  C   C481      1.0  0.06584364185561076  0.4700113241017892  0.5331017967071878  1.0000
  C   C482      1.0  0.0456902728564903  0.4541208367182297  0.5024460182380083  1.0000
  C   C483      1.0  0.09097677487205202  0.4531938492409755  0.5116053685998426  1.0000
  C   C484      1.0  0.09033353102892416  0.499667119881886  0.5066897765379429  1.0000
  H   H545      1.0  0.052286045035653705  0.4818609183784815  0.535077903611747  1.0000
  H   H546      1.0  0.08627173417252454  0.48136972984681514  0.5417034372233764  1.0000
  H   H547      1.0  0.05310359234897932  0.447343000423608  0.5386224198782689  1.0000
  H   H548      1.0  0.050623746674413495  0.45356942069070105  0.4875391158812844  1.0000
  H   H549      1.0  0.03247853214747898  0.4308249056012192  0.5068468210275939  1.0000
  H   H550      1.0  0.03135459000362917  0.46527080929972614  0.5036809166772115  1.0000
  H   H551      1.0  0.09860758563963445  0.45390768611956134  0.49718948578864913  1.0000
  H   H552      1.0  0.07821958213415381  0.4297132665828452  0.515617185149182  1.0000
  H   H553      1.0  0.11101919181421782  0.462840077094866  0.5204940160993411  1.0000
  H   H554      1.0  0.07785150554308218  0.5126946463928704  0.5081563761714747  1.0000
  H   H555      1.0  0.09590697551466532  0.4997954701499917  0.4918271222943322  1.0000
  H   H556      1.0  0.11157392849138836  0.5114501746408828  0.5144134100810739  1.0000
  N   N26       1.0  0.43821121583213  0.600627861133103  0.5301812644553536  1.0000
  C   C485      1.0  0.4443963208213159  0.604303914340036  0.550241047132611  1.0000
  C   C486      1.0  0.40896371458463526  0.5752868256321781  0.5268539663411232  1.0000
  C   C487      1.0  0.46111457018592417  0.5951775065912998  0.520922948808004  1.0000
  C   C488      1.0  0.43845642000830465  0.6276706084338786  0.5226797920371067  1.0000
  H   H557      1.0  0.428370302715991  0.6097524479348408  0.5576485798802654  1.0000
  H   H558      1.0  0.46708249181992184  0.6221158661904381  0.5532378661800447  1.0000
  H   H559      1.0  0.44293290110559047  0.5837756947745554  0.5564589939263953  1.0000
  H   H560      1.0  0.403579833397202  0.572093317915324  0.511847458321314  1.0000
  H   H561      1.0  0.4083381143190894  0.554473858898249  0.5321349263722026  1.0000
  H   H562      1.0  0.3911298339775796  0.5783223404927288  0.533922517376979  1.0000
  H   H563      1.0  0.4580058720634949  0.5935634007333594  0.5056726956572416  1.0000
  H   H564      1.0  0.4606315855279808  0.5742634440170672  0.525650979113912  1.0000
  H   H565      1.0  0.483654053662717  0.6131622603824237  0.5238538020422763  1.0000
  H   H566      1.0  0.43493725244802667  0.6260699362112813  0.5074356182027197  1.0000
  H   H567      1.0  0.4600440203157934  0.6472053842346783  0.5253824417430719  1.0000
  H   H568      1.0  0.42095782595863435  0.6321223406791785  0.5289695950684341  1.0000
  N   N27       1.0  0.7940686693931457  0.41255558680775145  0.8423665317381885  1.0000
  C   C489      1.0  0.7804820463332657  0.3808759087112672  0.8468160082720366  1.0000
  C   C490      1.0  0.7806403327971455  0.42725388654402263  0.853842693184928  1.0000
  C   C491      1.0  0.7888756004515385  0.4161258386479603  0.8226403972289438  1.0000
  C   C492      1.0  0.8261480647400905  0.4258452345459985  0.8462788362673237  1.0000
  H   H569      1.0  0.7562177656808575  0.37017411092258057  0.8441051076609551  1.0000
  H   H570      1.0  0.7840669066845571  0.3773911937352162  0.8616125209495106  1.0000
  H   H571      1.0  0.7899324612288898  0.3689703594558416  0.8383756308573264  1.0000
  H   H572      1.0  0.7906843527265409  0.45130790631673273  0.851109426796811  1.0000
  H   H573      1.0  0.7564885125892256  0.41803295148879865  0.8510387568258474  1.0000
  H   H574      1.0  0.783652431268183  0.42447085129969786  0.868846888660691  1.0000
  H   H575      1.0  0.7647582708554402  0.4061774585614707  0.8193694824657151  1.0000
  H   H576      1.0  0.7985405940709368  0.40513198303493336  0.8135506275477113  1.0000
  H   H577      1.0  0.7987176596697874  0.43976438101111753  0.8187450990143817  1.0000
  H   H578      1.0  0.8370297869492946  0.4151573228390612  0.8379771625465698  1.0000
  H   H579      1.0  0.830520269506862  0.42345307375860636  0.8611408428597306  1.0000
  H   H580      1.0  0.8371871747976722  0.44979334664062887  0.843107622960765  1.0000
  N   N28       1.0  0.5744302559723645  0.39376124675056734  0.5139808601146766  1.0000
  C   C493      1.0  0.5523115375299014  0.37393284028594453  0.5005206867995967  1.0000
  C   C494      1.0  0.5923809015237405  0.3797693930627287  0.5210234109944197  1.0000
  C   C495      1.0  0.5592083227026253  0.39973179158608774  0.5295484270434424  1.0000
  C   C496      1.0  0.5939083239457476  0.4217372854168525  0.5048622241621517  1.0000
  H   H581      1.0  0.5382949363988168  0.38380969376006197  0.4950820118484291  1.0000
  H   H582      1.0  0.5372279719639685  0.35255070735986654  0.5069106250236016  1.0000
  H   H583      1.0  0.5630201185389303  0.36897198340532067  0.48859048783990594  1.0000
  H   H584      1.0  0.609317376679978  0.394282875523854  0.5311763407691082  1.0000
  H   H585      1.0  0.578450244463801  0.3587280837334364  0.5281764216504358  1.0000
  H   H586      1.0  0.6042808161248523  0.37497898004538993  0.5097297771281274  1.0000
  H   H587      1.0  0.5440691987197905  0.3790637560863291  0.5366233578877063  1.0000
  H   H588      1.0  0.5458858581047905  0.410824653243095  0.5249148248901065  1.0000
  H   H589      1.0  0.5752618992599294  0.4141142526006269  0.5401027569803346  1.0000
  H   H590      1.0  0.6058629944906448  0.41821384194080485  0.49304940029868954  1.0000
  H   H591      1.0  0.6109690772376725  0.43704839730617095  0.5145983959292887  1.0000
  H   H592      1.0  0.5813188380256655  0.4332598326772476  0.49959082784668885  1.0000
  N   N29       1.0  0.5395358337372631  0.638888644210822  0.42799119321691703  1.0000
  C   C497      1.0  0.5318014735343145  0.662933282582727  0.4237786433334313  1.0000
  C   C498      1.0  0.5224557774321065  0.622210167262472  0.4440895844224864  1.0000
  C   C499      1.0  0.5714947273120008  0.651478144120387  0.43220214320336725  1.0000
  C   C500      1.0  0.5323608771286041  0.6188841106493194  0.4118935406722926  1.0000
  H   H593      1.0  0.5439367826551185  0.6757886158333182  0.41155316116341945  1.0000
  H   H594      1.0  0.5373551135576617  0.6786779079116323  0.435555381724115  1.0000
  H   H595      1.0  0.5077089296923823  0.6543160086636394  0.42087945361526385  1.0000
  H   H596      1.0  0.5279705154381318  0.6041041535997721  0.4478533625476622  1.0000
  H   H597      1.0  0.5271726450083104  0.6366170713139885  0.45644091500594575  1.0000
  H   H598      1.0  0.4982024222646956  0.6124969356856196  0.4414962610215727  1.0000
  H   H599      1.0  0.5780942735807385  0.634066982323193  0.4359164637405457  1.0000
  H   H600      1.0  0.5777922587175587  0.6669874305632956  0.44414872641724473  1.0000
  H   H601      1.0  0.585182298281103  0.6639074471182144  0.42032264837658784  1.0000
  H   H602      1.0  0.5379531552270553  0.6004938961683935  0.4146418434076117  1.0000
  H   H603      1.0  0.5448653182248108  0.630738649754842  0.3994812273017473  1.0000
  H   H604      1.0  0.5083849523174201  0.6090490690272157  0.40836388698086296  1.0000
  N   N30       1.0  0.9309999725707804  0.25891786679403167  0.5140029449388086  1.0000
  C   C501      1.0  0.956259303418328  0.2852101881087329  0.5217997125279192  1.0000
  C   C502      1.0  0.904942896278043  0.25055974210771803  0.5259622973923432  1.0000
  C   C503      1.0  0.9386951757860761  0.23426552886589833  0.5128684187034636  1.0000
  C   C504      1.0  0.9240901879367386  0.26565549511276376  0.4953122821969663  1.0000
  H   H605      1.0  0.9760856253710846  0.2927078154915523  0.5128357127475576  1.0000
  H   H606      1.0  0.9624774786109884  0.2809455001703267  0.5357956723737437  1.0000
  H   H607      1.0  0.9510388935590259  0.3041392736538132  0.523010390058032  1.0000
  H   H608      1.0  0.8984550024537665  0.2686612247265985  0.5270543343200229  1.0000
  H   H609      1.0  0.8853048603348935  0.23105125021937728  0.5203362073202161  1.0000
  H   H610      1.0  0.909217175837808  0.2452446745193174  0.5401888953030798  1.0000
  H   H611      1.0  0.9200603267120517  0.2141566212286968  0.5069645946210177  1.0000
  H   H612      1.0  0.9440013427409655  0.2285154586299336  0.526733519911529  1.0000
  H   H613      1.0  0.9582613109140556  0.23991757223904592  0.5039142892352664  1.0000
  H   H614      1.0  0.9181054790004642  0.28401717907422785  0.495748340919854  1.0000
  H   H615      1.0  0.9049213963008637  0.24648369011820642  0.4889900400027907  1.0000
  H   H616      1.0  0.9433134329114968  0.272497297643159  0.48590555469727786  1.0000
  N   N31       1.0  0.5156081741939524  0.4842065633362527  0.5719184954958584  1.0000
  C   C505      1.0  0.5422805253823298  0.49601801648036536  0.5838357849220577  1.0000
  C   C506      1.0  0.5216880102635228  0.502231337813405  0.5550653636067336  1.0000
  C   C507      1.0  0.49081768264283593  0.48519315595664386  0.5819697805370784  1.0000
  C   C508      1.0  0.5076507925279758  0.4533969413368927  0.566772089693405  1.0000
  H   H617      1.0  0.5388176916269538  0.4824580852699275  0.5964563291714747  1.0000
  H   H618      1.0  0.548621662489003  0.5190583352682072  0.5882761923851725  1.0000
  H   H619      1.0  0.5615268307692518  0.4960073113000368  0.5765288223279922  1.0000
  H   H620      1.0  0.5019543647947643  0.49405010621086226  0.5457865309734768  1.0000
  H   H621      1.0  0.5277845431361011  0.5256346461016765  0.5584740294827365  1.0000
  H   H622      1.0  0.5402550328672228  0.5020048352309023  0.5470912731454186  1.0000
  H   H623      1.0  0.47025715653506867  0.4760663942268657  0.5734102421753902  1.0000
  H   H624      1.0  0.49573199456345923  0.5082001149467104  0.5857010515055578  1.0000
  H   H625      1.0  0.4858292734794431  0.4721679288214788  0.5949176215660607  1.0000
  H   H626      1.0  0.48732502078706147  0.4436140710054768  0.5580229408666101  1.0000
  H   H627      1.0  0.5035812717250934  0.43931469438942283  0.5792066818777141  1.0000
  H   H628      1.0  0.5257552319506218  0.4519078142051488  0.5589708308182559  1.0000
  N   N32       1.0  0.8338101058612166  0.4764133643209826  0.06946170458570784  1.0000
  C   C509      1.0  0.832111743105579  0.4497567141995802  0.07855188909045396  1.0000
  C   C510      1.0  0.8609246742334061  0.5024062372708732  0.0756547961591074  1.0000
  C   C511      1.0  0.8076003163978038  0.48031606181926106  0.07443585816550559  1.0000
  C   C512      1.0  0.8346339327168156  0.47322156240685714  0.04921188963807535  1.0000
  H   H629      1.0  0.8121384351678187  0.42961126664623683  0.07407149857386966  1.0000
  H   H630      1.0  0.8314241982896333  0.45141427556597236  0.09384908435277227  1.0000
  H   H631      1.0  0.8516345847201378  0.4462329291774567  0.07529771385898285  1.0000
  H   H632      1.0  0.8628984840959699  0.5229392922414481  0.06910192159309679  1.0000
  H   H633      1.0  0.8612670798291446  0.5055099812179751  0.09087309650688713  1.0000
  H   H634      1.0  0.8811082089403208  0.5003009245493472  0.07191388738554241  1.0000
  H   H635      1.0  0.8077809155839305  0.49979707882747304  0.06748229668845229  1.0000
  H   H636      1.0  0.8066377184569855  0.48357862139142466  0.08957532808256323  1.0000
  H   H637      1.0  0.7867075838172755  0.4608805189040425  0.07027259106610968  1.0000
  H   H638      1.0  0.8144077186177587  0.4540869221241104  0.04394669627186428  1.0000
  H   H639      1.0  0.8539974706731525  0.47000115023902583  0.044986205801376376  1.0000
  H   H640      1.0  0.836445954966734  0.493232285048922  0.04197191264940082  1.0000
  N   N33       1.0  0.8980730548437484  0.3032139507791073  0.160044515290545  1.0000
  C   C513      1.0  0.8992189090257243  0.2837982782864214  0.1747871778781579  1.0000
  C   C514      1.0  0.9272258446799496  0.329295881539653  0.15847843240490025  1.0000
  C   C515      1.0  0.875306490248195  0.31274902874125454  0.16446155687560376  1.0000
  C   C516      1.0  0.8905220047754293  0.2869461109249517  0.14233608484297466  1.0000
  H   H641      1.0  0.8775688842855045  0.26383615879506683  0.17617690358039176  1.0000
  H   H642      1.0  0.9047778169896952  0.29533648342804103  0.18838294437463846  1.0000
  H   H643      1.0  0.9162008149196486  0.27624095262683085  0.17182999810216035  1.0000
  H   H644      1.0  0.9447688886240345  0.32290460135116833  0.15463712732874993  1.0000
  H   H645      1.0  0.9270718839031498  0.3444230177694812  0.14745640990385406  1.0000
  H   H646      1.0  0.9339413519973556  0.3421104496000648  0.17158862288552462  1.0000
  H   H647      1.0  0.8801425991125624  0.32514913994977074  0.17772887722140107  1.0000
  H   H648      1.0  0.8529122012571322  0.29366081519786874  0.16544863147583422  1.0000
  H   H649      1.0  0.8737751014308791  0.3273188317275877  0.1535657440185707  1.0000
  H   H650      1.0  0.8904273442875947  0.30136888871856893  0.13096847261701972  1.0000
  H   H651      1.0  0.868225023960686  0.2676479933051353  0.14262153817143824  1.0000
  H   H652      1.0  0.9070180951246976  0.2791225646681066  0.13853905198837954  1.0000
  N   N34       1.0  0.7754857507762334  0.2850308155024855  0.608591502193767  1.0000
  C   C517      1.0  0.7824364342855484  0.2599620699134991  0.6104951310509733  1.0000
  C   C518      1.0  0.7432502588976908  0.2737889303676333  0.6061306128344792  1.0000
  C   C519      1.0  0.7909080570993569  0.30263332772116813  0.5923348791335078  1.0000
  C   C520      1.0  0.7852609663083108  0.3036171703549518  0.6254016580119801  1.0000
  H   H653      1.0  0.8065936177495084  0.2674787237947831  0.6120511426433198  1.0000
  H   H654      1.0  0.7747048685286536  0.24503128060151733  0.5982614248817876  1.0000
  H   H655      1.0  0.7715342048323376  0.24647394111943663  0.6227684792827838  1.0000
  H   H656      1.0  0.7370374447928473  0.29205409365046464  0.6051823023525588  1.0000
  H   H657      1.0  0.7353113928657163  0.26035688899179465  0.5932594447043368  1.0000
  H   H658      1.0  0.7308662271937555  0.25957771351437353  0.6178911379034739  1.0000
  H   H659      1.0  0.8153041870108592  0.31148813342171633  0.5936956035912789  1.0000
  H   H660      1.0  0.786060778887108  0.3216701534599619  0.5903700389557855  1.0000
  H   H661      1.0  0.7840350463049429  0.289063427688272  0.5794661218634234  1.0000
  H   H662      1.0  0.8094389310589526  0.3122408078040328  0.6278228113331817  1.0000
  H   H663      1.0  0.7737433344948981  0.2909427335819642  0.6378597156122936  1.0000
  H   H664      1.0  0.7805358431383881  0.3228831940820268  0.6244122418144128  1.0000
  N   N35       1.0  0.6058533073886961  0.059969837205018584  0.5699894103478429  1.0000
  C   C521      1.0  0.6188434866670788  0.08317982022976755  0.5558854255448714  1.0000
  C   C522      1.0  0.6236799564290122  0.0695138845760952  0.5871315594237212  1.0000
  C   C523      1.0  0.6056921531537656  0.032559205073693365  0.5630899369206351  1.0000
  C   C524      1.0  0.57532885497292  0.054705145835569624  0.5738917604940639  1.0000
  H   H665      1.0  0.6200536277388705  0.10439300246638128  0.5608224572327851  1.0000
  H   H666      1.0  0.6056021390603116  0.07707043183072737  0.5428875307089577  1.0000
  H   H667      1.0  0.6417810133183514  0.08741841495621894  0.5524327370494712  1.0000
  H   H668      1.0  0.6165762889735906  0.05148951757943965  0.597439228759813  1.0000
  H   H669      1.0  0.6474605381669064  0.07702692902792863  0.584320101015557  1.0000
  H   H670      1.0  0.6219514230730526  0.08827629228125855  0.5938261168083324  1.0000
  H   H671      1.0  0.6284780712500931  0.03614631204489038  0.5598198402149468  1.0000
  H   H672      1.0  0.5920902713666862  0.024372091157814024  0.5503064020096767  1.0000
  H   H673      1.0  0.5966934862000279  0.014677179293099085  0.5735298492384028  1.0000
  H   H674      1.0  0.5650771843559519  0.03757962352185862  0.5846672544107605  1.0000
  H   H675      1.0  0.5611353125530955  0.047313734083269665  0.5612996796873868  1.0000
  H   H676      1.0  0.5749344090568862  0.07521692537150204  0.5789898160799336  1.0000
  N   N36       1.0  0.11480686604076597  0.4452407656223959  0.15660231219757695  1.0000
  C   C525      1.0  0.12493425586204196  0.46046128670877284  0.17456559035016872  1.0000
  C   C526      1.0  0.14074987103515907  0.44908063051524083  0.14566271926927024  1.0000
  C   C527      1.0  0.0980080526377489  0.45806322868039007  0.14659876203883757  1.0000
  C   C528      1.0  0.0956041304343992  0.41348009347770903  0.15945229552347148  1.0000
  H   H677      1.0  0.1059925515394435  0.4581965119810334  0.1832043004677654  1.0000
  H   H678      1.0  0.13946348549527482  0.4845105076838221  0.17261014083610884  1.0000
  H   H679      1.0  0.13788621355934835  0.4515244051351101  0.18247908273414987  1.0000
  H   H680      1.0  0.15407648749048922  0.43981618230916736  0.15280318457991654  1.0000
  H   H681      1.0  0.13393003294660208  0.43776888770543126  0.13202563621052  1.0000
  H   H682      1.0  0.15560928563027135  0.47281469300933054  0.14308317476525603  1.0000
  H   H683      1.0  0.1119600070504826  0.4819408868937445  0.14392545317948277  1.0000
  H   H684      1.0  0.07842896673900335  0.45587608813705816  0.15450200247574608  1.0000
  H   H685      1.0  0.08978031986957785  0.4468974523301815  0.1330454651387181  1.0000
  H   H686      1.0  0.08776664315992841  0.4016776537559847  0.14597593834518158  1.0000
  H   H687      1.0  0.07566347036091456  0.4096780074138807  0.16754768457097577  1.0000
  H   H688      1.0  0.10755373406743841  0.40295522599446615  0.16685971632237226  1.0000
  N   N37       1.0  0.6688228455533367  0.9187523562070109  0.6116794100425084  1.0000
  C   C529      1.0  0.6988570720088036  0.92440952574431  0.6175502541066674  1.0000
  C   C530      1.0  0.6514501378022464  0.9184805867437258  0.6280453222465615  1.0000
  C   C531      1.0  0.6541025285709697  0.8899334307779968  0.6021091578891263  1.0000
  C   C532      1.0  0.6708416075142125  0.9422424672573365  0.5990017030320112  1.0000
  H   H689      1.0  0.7125479013294344  0.9248028741065559  0.6055071116809991  1.0000
  H   H690      1.0  0.6981799408939932  0.9070844173463457  0.6271317773889633  1.0000
  H   H691      1.0  0.7104932591623317  0.946029099149249  0.6248073873795752  1.0000
  H   H692      1.0  0.6284272662569652  0.9134797252219674  0.6241383168869767  1.0000
  H   H693      1.0  0.6500699118105402  0.9015907698236248  0.6381974118304845  1.0000
  H   H694      1.0  0.6611135774140843  0.940304802383353  0.6351620400075797  1.0000
  H   H695      1.0  0.6313364115389768  0.8849595106720411  0.5975930001006211  1.0000
  H   H696      1.0  0.6520753627075718  0.8715513801630145  0.6111930425241391  1.0000
  H   H697      1.0  0.6662801067286107  0.8892904404533077  0.5895308113460647  1.0000
  H   H698      1.0  0.6485781966069644  0.938447598609534  0.5942121155570945  1.0000
  H   H699      1.0  0.6839794940471665  0.9433928281606923  0.5865282081553875  1.0000
  H   H700      1.0  0.681144570003229  0.9642871734367499  0.6058556037191865  1.0000
  N   N38       1.0  0.28748208798434777  0.38536372965632604  0.5824001918235083  1.0000
  C   C533      1.0  0.2980041669663312  0.4083835819112359  0.5968890959553477  1.0000
  C   C534      1.0  0.25818467944834605  0.3617681174858881  0.5875052826738041  1.0000
  C   C535      1.0  0.3086824900250354  0.372999329787257  0.5806329450033201  1.0000
  C   C536      1.0  0.2851067135030862  0.3984257697572037  0.5646531533570142  1.0000
  H   H701      1.0  0.28307903369806153  0.4188821593850241  0.5983925315355191  1.0000
  H   H702      1.0  0.3201449462934392  0.4261414020947678  0.5934802399448689  1.0000
  H   H703      1.0  0.30019870004471794  0.3995223611706252  0.6105280840853597  1.0000
  H   H704      1.0  0.24951982074901888  0.3440273001090861  0.5768371455249272  1.0000
  H   H705      1.0  0.2592606276948214  0.35151074840013485  0.6008530176376776  1.0000
  H   H706      1.0  0.2417793093003474  0.3704943543546598  0.5890327569690699  1.0000
  H   H707      1.0  0.3014950079804493  0.355371393401705  0.5699281054812974  1.0000
  H   H708      1.0  0.31150551474908467  0.36357219838926164  0.5939232421522357  1.0000
  H   H709      1.0  0.33105892657185326  0.3902523311186858  0.5768078549389708  1.0000
  H   H710      1.0  0.26950378421864574  0.4082470253481585  0.5655789626047323  1.0000
  H   H711      1.0  0.2772891988052617  0.3818183078544579  0.5533061586028855  1.0000
  H   H712      1.0  0.3067733793155791  0.4165443355263399  0.5604873973454446  1.0000
  N   N39       1.0  0.6285934327494711  0.3885789592233403  0.9884345052458368  1.0000
  C   C537      1.0  0.6176641462138157  0.38554371299646784  0.0075725802309931645  1.0000
  C   C538      1.0  0.623349674881346  0.41132502700630297  0.9788083465375842  1.0000
  C   C539      1.0  0.6128362578691487  0.36014189252392775  0.9785546271962692  1.0000
  C   C540      1.0  0.6606268260872419  0.3973950958538351  0.9887409957222396  1.0000
  H   H713      1.0  0.6200746721728388  0.36772132056231643  0.01506318989802402  1.0000
  H   H714      1.0  0.593920604209104  0.38039923313660623  0.007902679142034463  1.0000
  H   H715      1.0  0.6299149501505462  0.40626624319891114  0.015634962514278428  1.0000
  H   H716      1.0  0.6329307861264263  0.41551335380545934  0.9647366289735146  1.0000
  H   H717      1.0  0.5993030187552804  0.40463569908209196  0.9772795371216371  1.0000
  H   H718      1.0  0.6333139852862756  0.4326651313724675  0.9864546605817576  1.0000
  H   H719      1.0  0.6210022634257394  0.36158741504160125  0.9641855773864361  1.0000
  H   H720      1.0  0.5886731651879163  0.3531887000314167  0.9775964521603329  1.0000
  H   H721      1.0  0.6158223008701624  0.3422808714456995  0.9855719974242871  1.0000
  H   H722      1.0  0.6654583223477641  0.3808696998623569  0.996046605650576  1.0000
  H   H723      1.0  0.6732029755714866  0.41900512975989185  0.9958699271683613  1.0000
  H   H724      1.0  0.6695133287939454  0.399640874184903  0.9744828994645953  1.0000
  N   N40       1.0  0.29098016669649335  0.688437953080122  0.7400297025143051  1.0000
  C   C541      1.0  0.2709210452630844  0.7021038083915448  0.7381218292246541  1.0000
  C   C542      1.0  0.27965855261107675  0.6612598219713097  0.728720443978386  1.0000
  C   C543      1.0  0.2927986990362697  0.6811587418958615  0.7595875723377324  1.0000
  C   C544      1.0  0.3206902619667732  0.709251894353217  0.7335693152199944  1.0000
  H   H725      1.0  0.2789031293381843  0.7227522109920721  0.7464238652618105  1.0000
  H   H726      1.0  0.248202402425852  0.6869917060382075  0.7427936949460274  1.0000
  H   H727      1.0  0.26925758935215993  0.7078365294071434  0.7234552407089512  1.0000
  H   H728      1.0  0.25707380645528655  0.6451276998788426  0.732992008139232  1.0000
  H   H729      1.0  0.2785859900390025  0.666080105654309  0.7138023293171322  1.0000
  H   H730      1.0  0.29418558993228106  0.6502504956834667  0.7300542620156492  1.0000
  H   H731      1.0  0.30735741577507747  0.6702699750176863  0.7613383125609826  1.0000
  H   H732      1.0  0.2707062643993897  0.6658732992611236  0.7650709479217485  1.0000
  H   H733      1.0  0.30214303213412913  0.7012414506586341  0.7684918120786486  1.0000
  H   H734      1.0  0.33033463701587057  0.7298498389135617  0.7419687102733171  1.0000
  H   H735      1.0  0.32008647902795784  0.7155206113153217  0.718909261573227  1.0000
  H   H736      1.0  0.33618085534957715  0.699372373622197  0.7344913538041931  1.0000
  N   N41       1.0  0.5843145809493704  0.0257500920143736  0.9823721040300188  1.0000
  C   C545      1.0  0.5814872223603946  0.053162639417973  0.9800044939510268  1.0000
  C   C546      1.0  0.6071025748119577  0.030563223778920907  0.9965529005819034  1.0000
  C   C547      1.0  0.5930940570704007  0.017642777534711884  0.9646814294723  1.0000
  C   C548      1.0  0.5557406218465106  0.001677702678357651  0.9882531675132082  1.0000
  H   H737      1.0  0.5647427262537175  0.05065741433569838  0.9692873695712887  1.0000
  H   H738      1.0  0.6028742268918718  0.07181199143515056  0.975801448811025  1.0000
  H   H739      1.0  0.5748974555900294  0.0600051584469213  0.9930855536750726  1.0000
  H   H740      1.0  0.6016247738949577  0.037375707855560374  0.010005957253532927  1.0000
  H   H741      1.0  0.6096637853698379  0.010238089553354701  0.9988541557637898  1.0000
  H   H742      1.0  0.6290465528964609  0.048257755856981686  0.9923613503622  1.0000
  H   H743      1.0  0.5946957361905351  0.9966416754763863  0.9658841654223537  1.0000
  H   H744      1.0  0.6150982664729961  0.034906049846159894  0.9601468174406177  1.0000
  H   H745      1.0  0.5768908192817587  0.01467538852714867  0.953492233712178  1.0000
  H   H746      1.0  0.5484503954769405  0.007037337519255395  0.0015728466076359027  1.0000
  H   H747      1.0  0.5572561110557129  0.980687122300269  0.990208193282091  1.0000
  H   H748      1.0  0.5380295765106979  0.9972937701714611  0.9778273921957349  1.0000
  N   N42       1.0  0.4023660647576129  0.6269798475924814  0.24162475805582842  1.0000
  C   C549      1.0  0.3731489952038425  0.621215714295626  0.2340433917922329  1.0000
  C   C550      1.0  0.42470785210909584  0.656484048056301  0.23582190220482252  1.0000
  C   C551      1.0  0.4106002864110442  0.604468085797651  0.23457074583486867  1.0000
  C   C552      1.0  0.40096541827774385  0.6257556801296804  0.26199411638758724  1.0000
  H   H749      1.0  0.3554876649090147  0.5995455106410184  0.2385386560116258  1.0000
  H   H750      1.0  0.37321181096345823  0.6210860916996603  0.21870578631946216  1.0000
  H   H751      1.0  0.3666098077347441  0.6383195069278537  0.2385344375395525  1.0000
  H   H752      1.0  0.4471020216789247  0.6615466595270417  0.2411588095112293  1.0000
  H   H753      1.0  0.4261896824786379  0.6581642950579025  0.2204893729989019  1.0000
  H   H754      1.0  0.4192236377275467  0.674049205025027  0.2408977116946357  1.0000
  H   H755      1.0  0.43252222938424517  0.6080641988081906  0.2400177642427401  1.0000
  H   H756      1.0  0.4120275598091362  0.6050426327840037  0.21921300742655547  1.0000
  H   H757      1.0  0.3940270424219616  0.5818789389075143  0.2384416456917621  1.0000
  H   H758      1.0  0.38444844740913275  0.6037317952069183  0.2668488257746045  1.0000
  H   H759      1.0  0.394347438611616  0.6421803693090286  0.2676963162201874  1.0000
  H   H760      1.0  0.4227352183295501  0.6304494623475652  0.2682486992721318  1.0000
  N   N43       1.0  0.3069306425649778  0.7282952719623617  0.1320880901802162  1.0000
  C   C553      1.0  0.3277013191241519  0.7285508243207874  0.14652088548149134  1.0000
  C   C554      1.0  0.2762768285311177  0.7095874939974414  0.13809981088963333  1.0000
  C   C555      1.0  0.3125496222506944  0.7163087969200456  0.11479375782568302  1.0000
  C   C556      1.0  0.3112735195873072  0.7586770568493787  0.12899893812723193  1.0000
  H   H761      1.0  0.32618265772698535  0.7063291504698969  0.14862537893495073  1.0000
  H   H762      1.0  0.3229812279436492  0.7358137727559718  0.16003537592257058  1.0000
  H   H763      1.0  0.35102863319364763  0.7435525164385585  0.1429194295968929  1.0000
  H   H764      1.0  0.25993795721433116  0.7087315617730182  0.12752356971733889  1.0000
  H   H765      1.0  0.272385804159276  0.6865650207278104  0.1407230641118919  1.0000
  H   H766      1.0  0.27138459104684176  0.7180286333074904  0.1511629389509797  1.0000
  H   H767      1.0  0.2974507039145983  0.7160181135715803  0.10351358513175891  1.0000
  H   H768      1.0  0.30927061199570927  0.6933167125649108  0.11673945215438378  1.0000
  H   H769      1.0  0.33565502810591036  0.7297808117668393  0.11007760592651838  1.0000
  H   H770      1.0  0.334283424244619  0.7735231048015472  0.12462363729187603  1.0000
  H   H771      1.0  0.30733124451316723  0.7684685648466517  0.14181356144977733  1.0000
  H   H772      1.0  0.296080044956566  0.7595054953005571  0.11815023554138092  1.0000
  N   N44       1.0  0.30003172860264443  0.7647033473668085  0.6179967484328432  1.0000
  C   C557      1.0  0.3162048999566327  0.7884713391299506  0.6046868526784288  1.0000
  C   C558      1.0  0.2890380001520262  0.7358304061407255  0.6085741516687648  1.0000
  C   C559      1.0  0.27474506780572466  0.7682668347984192  0.6253767549664626  1.0000
  C   C560      1.0  0.3201112530948036  0.7662723016619063  0.6332997089277301  1.0000
  H   H773      1.0  0.32471090546657294  0.8105896504042356  0.6112942443832934  1.0000
  H   H774      1.0  0.30163162177419806  0.7879151507010222  0.5929877046255849  1.0000
  H   H775      1.0  0.3353996198563342  0.7865048808069248  0.5987486705871942  1.0000
  H   H776      1.0  0.2770497417081763  0.717370773929318  0.6182549996601263  1.0000
  H   H777      1.0  0.273393782651161  0.7337354541152459  0.5971654445301054  1.0000
  H   H778      1.0  0.3074423999543131  0.7325642516120702  0.6025682207388217  1.0000
  H   H779      1.0  0.2616688124004231  0.7504441683643334  0.6351887223014655  1.0000
  H   H780      1.0  0.25931440610737666  0.7674884058409026  0.6141535379985655  1.0000
  H   H781      1.0  0.2821571924489553  0.7896753057642888  0.6327309150354882  1.0000
  H   H782      1.0  0.3086662723693161  0.7486905002853911  0.6436329476777793  1.0000
  H   H783      1.0  0.3288284167998274  0.7877404501994085  0.6407541741843549  1.0000
  H   H784      1.0  0.3393930809687653  0.7635467849773621  0.6282471200741662  1.0000
  N   N45       1.0  0.5623963957733431  0.2309795460057591  0.5551305192927952  1.0000
  C   C561      1.0  0.5859856152507563  0.2292240693895804  0.566317734977566  1.0000
  C   C562      1.0  0.5470584584926792  0.24409287924222556  0.5663039777703246  1.0000
  C   C563      1.0  0.5409922316162222  0.20109592607229768  0.5490528661967496  1.0000
  C   C564      1.0  0.5755255603230862  0.24942628794067306  0.5387523532223917  1.0000
  H   H785      1.0  0.5768170477303178  0.214780808907244  0.5785275288225253  1.0000
  H   H786      1.0  0.6022990996293386  0.25131948486057487  0.571420136358905  1.0000
  H   H787      1.0  0.5983408730165075  0.21996172380785906  0.5581306654973595  1.0000
  H   H788      1.0  0.5291745937269787  0.2456988125792036  0.5582071383928356  1.0000
  H   H789      1.0  0.5367283656299314  0.2306319412788031  0.5787206954426691  1.0000
  H   H790      1.0  0.562478562952878  0.2667375365038259  0.5711056889082087  1.0000
  H   H791      1.0  0.522765156407657  0.20148309160065717  0.5406351464238622  1.0000
  H   H792      1.0  0.5307900146605712  0.18628284548719815  0.5609554111670947  1.0000
  H   H793      1.0  0.5518623614397978  0.190875050565336  0.5403770366594791  1.0000
  H   H794      1.0  0.5582485826192369  0.2508072255658355  0.5298828214640143  1.0000
  H   H795      1.0  0.5873440664627921  0.2401376950121305  0.5300460512377823  1.0000
  H   H796      1.0  0.5916254947314031  0.27223729471428115  0.5427557014329005  1.0000
  N   N46       1.0  0.015520406827815414  0.520219872986414  0.02984134193571819  1.0000
  C   C565      1.0  0.01836283262205285  0.541885936687567  0.015485601872292198  1.0000
  C   C566      1.0  0.9840129746504546  0.49896967207615595  0.031983820075864866  1.0000
  C   C567      1.0  0.027327878332080058  0.5357138719892144  0.047557146934607664  1.0000
  C   C568      1.0  0.03246028323610961  0.5043502876262836  0.024347660414808292  1.0000
  H   H797      1.0  0.0418128493469776  0.5584366091083063  0.01356494505448258  1.0000
  H   H798      1.0  0.005677271260931649  0.5541879253167786  0.01901322324279886  1.0000
  H   H799      1.0  0.009850736715305564  0.5310428227822673  0.0018618236595919768  1.0000
  H   H800      1.0  0.9810233230778012  0.4819211473810958  0.042466045770938265  1.0000
  H   H801      1.0  0.9707296390147133  0.510179510123183  0.03647086595248661  1.0000
  H   H802      1.0  0.9741379519173265  0.4873148232175197  0.018761767302011068  1.0000
  H   H803      1.0  0.01509633605884142  0.5479327764225124  0.05218837723061798  1.0000
  H   H804      1.0  0.05107599355020276  0.5518932968538983  0.04642237234093294  1.0000
  H   H805      1.0  0.025911377001855973  0.5200586643481654  0.0586573306578515  1.0000
  H   H806      1.0  0.03140944932704648  0.4883085072683255  0.03508510695584244  1.0000
  H   H807      1.0  0.056273810637316624  0.5198122831808353  0.022442972772242387  1.0000
  H   H808      1.0  0.023944416130672108  0.49205916991472703  0.011159907089736354  1.0000
  N   N47       1.0  0.4892430811606827  0.3185430006926269  0.6592989011446875  1.0000
  C   C569      1.0  0.47479235324060654  0.3377841781937615  0.6566700388385072  1.0000
  C   C570      1.0  0.4853981260175517  0.30084187341351154  0.6424064611457626  1.0000
  C   C571      1.0  0.4756471841217298  0.29866450030934094  0.6750141444598728  1.0000
  C   C572      1.0  0.5211432593143543  0.3367961328573038  0.66301276986757  1.0000
  H   H809      1.0  0.4770174741726318  0.3514215432865109  0.6691437830379816  1.0000
  H   H810      1.0  0.4507980318321654  0.32475112578047305  0.6534200036656974  1.0000
  H   H811      1.0  0.48453765824661194  0.35307320521427027  0.6448964111551012  1.0000
  H   H812      1.0  0.4960604427279122  0.28604660248306535  0.6437587795601295  1.0000
  H   H813      1.0  0.46164536750770385  0.2872010758444938  0.638820966119729  1.0000
  H   H814      1.0  0.4958028672045108  0.31527965501844807  0.6304613401285118  1.0000
  H   H815      1.0  0.4860987056565626  0.28385830310627785  0.6772893489020101  1.0000
  H   H816      1.0  0.45159736465917133  0.28451185092807224  0.672574310560643  1.0000
  H   H817      1.0  0.47815060983018187  0.311294657928694  0.6880170481266839  1.0000
  H   H818      1.0  0.5328436536587031  0.32297673672104943  0.6646963653010406  1.0000
  H   H819      1.0  0.5251118092020586  0.35041709351379163  0.6757160436817372  1.0000
  H   H820      1.0  0.5320713856778362  0.35201994367348866  0.6513912009562521  1.0000
  N   N48       1.0  0.7598575179712409  0.6203853861903931  0.05267817155906484  1.0000
  C   C573      1.0  0.731892560801065  0.5954504243318551  0.04652811902462061  1.0000
  C   C574      1.0  0.7553327766264085  0.6313925964262382  0.07069772285787546  1.0000
  C   C575      1.0  0.7691737009763309  0.6441973232713311  0.038919814363682845  1.0000
  C   C576      1.0  0.7829075465615307  0.6103828683702406  0.05452924852641838  1.0000
  H   H821      1.0  0.7343900604044076  0.5862825006894117  0.03304440158608943  1.0000
  H   H822      1.0  0.713767795953359  0.6019235267672787  0.045233402734693944  1.0000
  H   H823      1.0  0.7245210963919214  0.5772028834341776  0.05659332013656334  1.0000
  H   H824      1.0  0.7758979319921628  0.6502801455397692  0.07583844550187084  1.0000
  H   H825      1.0  0.7376968375289846  0.638650928107552  0.06986172245614929  1.0000
  H   H826      1.0  0.7481411029410033  0.6139225468939131  0.08139429533948239  1.0000
  H   H827      1.0  0.790258111827202  0.6633858312045612  0.043117807632532236  1.0000
  H   H828      1.0  0.7522095619975133  0.6521769078389046  0.03717106991573537  1.0000
  H   H829      1.0  0.7726897062204038  0.6365085721341411  0.025170514807647093  1.0000
  H   H830      1.0  0.8044277768063735  0.6285397698343329  0.05911307238283088  1.0000
  H   H831      1.0  0.7865507610846334  0.6015237125288013  0.04122107771652177  1.0000
  H   H832      1.0  0.7765056881737913  0.5922979393564934  0.06473880410303123  1.0000
  N   N49       1.0  0.3346277596098112  0.9675101422659884  0.10829795160013825  1.0000
  C   C577      1.0  0.3043498828582463  0.96398658207332  0.1054528144697867  1.0000
  C   C578      1.0  0.35509907891501746  0.9989422553129177  0.11163276442201478  1.0000
  C   C579      1.0  0.34384777399424515  0.9570075337555444  0.09167181210190473  1.0000
  C   C580      1.0  0.3351913578435555  0.9500811634855758  0.1244415126479525  1.0000
  H   H833      1.0  0.2965342742616505  0.9714645051028724  0.11777632873090471  1.0000
  H   H834      1.0  0.28838249794407056  0.9405215352368858  0.10278701097182565  1.0000
  H   H835      1.0  0.30326960800326846  0.9770385790495925  0.09343321224478804  1.0000
  H   H836      1.0  0.37773401075550683  0.0020984132360344354  0.1149889255218773  1.0000
  H   H837      1.0  0.35689905012925155  0.012665363113977257  0.09932212985867299  1.0000
  H   H838      1.0  0.34795671047971516  0.008039061574941053  0.1234826445867372  1.0000
  H   H839      1.0  0.3662696428254461  0.9586051288460318  0.09351603801357757  1.0000
  H   H840      1.0  0.344566449102177  0.9701885229134019  0.07929988440999801  1.0000
  H   H841      1.0  0.32856004373499176  0.9335097552053225  0.08852178797790959  1.0000
  H   H842      1.0  0.3577320495475047  0.952019017984669  0.12683033992793066  1.0000
  H   H843      1.0  0.31987721181768664  0.9262504218973742  0.1225177371754265  1.0000
  H   H844      1.0  0.32878529657970346  0.9576465635604947  0.137298075898847  1.0000
  N   N50       1.0  0.37721499120372104  0.7583095313808447  0.33071505497479375  1.0000
  C   C581      1.0  0.36987063646204743  0.7757792555369654  0.3172649653744269  1.0000
  C   C582      1.0  0.40580784494709876  0.7591426702640438  0.32579062167137973  1.0000
  C   C583      1.0  0.35384910134786257  0.7274983416550298  0.3302728167480155  1.0000
  C   C584      1.0  0.37926979457619053  0.7707152480815106  0.3494640378725737  1.0000
  H   H845      1.0  0.3483248646977865  0.7754688152014358  0.320496279905202  1.0000
  H   H846      1.0  0.36822362152317595  0.7669499066109524  0.30298017070249306  1.0000
  H   H847      1.0  0.38702753053708666  0.7991928016638971  0.3172167143032368  1.0000
  H   H848      1.0  0.41218821092464053  0.7463446052091334  0.33571842583701045  1.0000
  H   H849      1.0  0.4047593627801879  0.7491931511166635  0.3119128572567983  1.0000
  H   H850      1.0  0.4239887364602655  0.7820442762980138  0.3257007525900692  1.0000
  H   H851      1.0  0.3320756675671385  0.7257787672996272  0.33442555133036717  1.0000
  H   H852      1.0  0.35925634537437673  0.7135742469755696  0.33979777421783514  1.0000
  H   H853      1.0  0.3513102724144385  0.7175823445099154  0.31624842214566395  1.0000
  H   H854      1.0  0.3846837720777168  0.7580041168885682  0.3599816353369879  1.0000
  H   H855      1.0  0.3579948458902532  0.7701660618854883  0.35374131840420225  1.0000
  H   H856      1.0  0.39671418791807456  0.7939472816062061  0.3503745808574519  1.0000
  N   N51       1.0  0.9951796027160756  0.5603238090146139  0.5496903181350419  1.0000
  C   C585      1.0  0.9779194984944345  0.5387639882667243  0.5639277578572272  1.0000
  C   C586      1.0  0.026158482173069597  0.5770848071397581  0.5560342763250758  1.0000
  C   C587      1.0  0.9824093425562372  0.5808570151172749  0.5464942408020066  1.0000
  C   C588      1.0  0.9941133954536838  0.5445726622542546  0.5323258329676329  1.0000
  H   H857      1.0  0.9773932379538302  0.549874017065624  0.5770681672697648  1.0000
  H   H858      1.0  0.9872974243247096  0.5233707667187029  0.5671472738972412  1.0000
  H   H859      1.0  0.9546298639732831  0.5252278121480727  0.5593852075839149  1.0000
  H   H860      1.0  0.03982561464863088  0.5940184687235858  0.5458402603390623  1.0000
  H   H861      1.0  0.02749069762756018  0.5889054437943837  0.569191566287102  1.0000
  H   H862      1.0  0.03661577140643124  0.5624085790691924  0.5585974223233965  1.0000
  H   H863      1.0  0.9952419710708992  0.5979045357134009  0.5361587688565853  1.0000
  H   H864      1.0  0.9821354502082569  0.5925269443173485  0.5594275571424032  1.0000
  H   H865      1.0  0.9591895917939266  0.569030113986389  0.5413981201972095  1.0000
  H   H866      1.0  0.00683677976562258  0.5601620245012163  0.5212480153436344  1.0000
  H   H867      1.0  0.9709224348722659  0.5317787622696669  0.5272359741725008  1.0000
  H   H868      1.0  0.0032748735027525733  0.5286614218630622  0.534278722529261  1.0000
  N   N52       1.0  0.8179452117500317  0.3950345562121099  0.9716121184733517  1.0000
  C   C589      1.0  0.7889580264555626  0.38378217931431147  0.980765918669363  1.0000
  C   C590      1.0  0.8323821084271383  0.4275977702894115  0.9718709068712166  1.0000
  C   C591      1.0  0.813575875682468  0.38431530846139006  0.9523181809642511  1.0000
  C   C592      1.0  0.8367977821130891  0.3844491706746609  0.9815147312034931  1.0000
  H   H869      1.0  0.7914629141223207  0.3914359744214758  0.9953721277532477  1.0000
  H   H870      1.0  0.7773926875743041  0.35926218200076393  0.9807485910563509  1.0000
  H   H871      1.0  0.7742774429222764  0.3915038708152593  0.9736217135122657  1.0000
  H   H872      1.0  0.8544490598834762  0.43695342095086737  0.9651772774599877  1.0000
  H   H873      1.0  0.8188796696224014  0.4364839691535662  0.9644900030821995  1.0000
  H   H874      1.0  0.8361021155163834  0.4364135440552134  0.986229626534779  1.0000
  H   H875      1.0  0.8348567735786395  0.39322620060814284  0.9447367739414093  1.0000
  H   H876      1.0  0.7986288628205737  0.39109376239002575  0.9446529306293757  1.0000
  H   H877      1.0  0.8034358893207686  0.3598617149201076  0.9515346351470416  1.0000
  H   H878      1.0  0.8398640260285959  0.3914925024884869  0.9962646341165986  1.0000
  H   H879      1.0  0.8592895668213454  0.3935471438122923  0.9754084826360626  1.0000
  H   H880      1.0  0.8271050015020281  0.3600135174726537  0.9811952453712853  1.0000
  N   N53       1.0  0.21733868116616814  0.6207377237424918  0.060491470870309226  1.0000
  C   C593      1.0  0.2242488019701488  0.620514000448467  0.0803126582116993  1.0000
  C   C594      1.0  0.22345238108265902  0.5987527067947715  0.050533267580479595  1.0000
  C   C595      1.0  0.23580247726782325  0.6502959762631846  0.05286348840171016  1.0000
  C   C596      1.0  0.18581818056881264  0.613466951644662  0.05820533532039381  1.0000
  H   H881      1.0  0.21076305896059525  0.5984801462432658  0.0864335055844427  1.0000
  H   H882      1.0  0.2196593536308635  0.6366801441955441  0.0882696616512577  1.0000
  H   H883      1.0  0.2478547356469313  0.625897460364221  0.0825593761343321  1.0000
  H   H884      1.0  0.2199247190133116  0.59943548337305  0.03540921315128085  1.0000
  H   H885      1.0  0.24660778820014123  0.6025275163000857  0.05272270049003746  1.0000
  H   H886      1.0  0.20874688281930245  0.5759703484692531  0.05522353145798596  1.0000
  H   H887      1.0  0.2310048470905772  0.6513263232451802  0.037928427827877725  1.0000
  H   H888      1.0  0.25976648601687174  0.6566503567680392  0.05419694832159173  1.0000
  H   H889      1.0  0.2316794690383563  0.6674347389581136  0.06001777492504235  1.0000
  H   H890      1.0  0.18037196848183423  0.6296610805886272  0.06543632961540015  1.0000
  H   H891      1.0  0.17102719812673622  0.5912286948674518  0.06365343178801708  1.0000
  H   H892      1.0  0.17997291733245854  0.6134814726660058  0.04342141508239789  1.0000
  N   N54       1.0  0.3991948696728573  0.4808219868197671  0.927300326096227  1.0000
  C   C597      1.0  0.4093974303501657  0.504151447844687  0.9415914303207099  1.0000
  C   C598      1.0  0.39977162704473945  0.49403062917562235  0.9090748676516308  1.0000
  C   C599      1.0  0.3686499744094488  0.45867955584537357  0.9313836817512221  1.0000
  C   C600      1.0  0.41888087485445313  0.4665623441530904  0.9271897165152101  1.0000
  H   H893      1.0  0.40836880876169257  0.49499235877843695  0.9556577242527656  1.0000
  H   H894      1.0  0.39548821295393605  0.5158392229962153  0.9415562081099138  1.0000
  H   H895      1.0  0.43261781633011237  0.520925256367073  0.9392956577000828  1.0000
  H   H896      1.0  0.39229779134596615  0.4771271173862323  0.8978969664475713  1.0000
  H   H897      1.0  0.38493079053906193  0.504812150748353  0.9087540759488175  1.0000
  H   H898      1.0  0.4223761522757541  0.5112133072166338  0.9056513224035789  1.0000
  H   H899      1.0  0.36006756627226444  0.44081565581965654  0.920812508250408  1.0000
  H   H900      1.0  0.35329240166598175  0.46884153614514695  0.9317377421924232  1.0000
  H   H901      1.0  0.3673532197316095  0.4482093952855916  0.9450203044890574  1.0000
  H   H902      1.0  0.4114790469708446  0.4483263808544783  0.9168798071856761  1.0000
  H   H903      1.0  0.4194300437407585  0.4570022439632697  0.9408952065151839  1.0000
  H   H904      1.0  0.44203132937492184  0.4825642995564786  0.9239084408271503  1.0000
  N   N55       1.0  0.7295396165252809  0.4470390041287245  0.6540211222529636  1.0000
  C   C601      1.0  0.7160585664268109  0.41824061903791343  0.644392406165494  1.0000
  C   C602      1.0  0.7080099447842809  0.4590904603487192  0.654596757626147  1.0000
  C   C603      1.0  0.7563243697112095  0.46752927829666063  0.6440733070623106  1.0000
  C   C604      1.0  0.7377074498565026  0.44319762761577963  0.6730676104607285  1.0000
  H   H905      1.0  0.6958504321062534  0.4021961875937124  0.6516125437904576  1.0000
  H   H906      1.0  0.7317179426336599  0.4085104468192511  0.6436752060342171  1.0000
  H   H907      1.0  0.7095271042966833  0.42028497447203617  0.6299951880133955  1.0000
  H   H908      1.0  0.7173305079322533  0.4807089519908027  0.6619016800573547  1.0000
  H   H909      1.0  0.7013396173811417  0.46230019476954803  0.640457682185151  1.0000
  H   H910      1.0  0.6875457696747224  0.44392199330649884  0.6619959724727379  1.0000
  H   H911      1.0  0.7669964141148288  0.48959650128713383  0.6508285929338018  1.0000
  H   H912      1.0  0.751237400410529  0.47057070208091434  0.629509415144005  1.0000
  H   H913      1.0  0.7731495302070215  0.45921102574977424  0.6437131729600815  1.0000
  H   H914      1.0  0.7180307984213189  0.42839040100846904  0.6811512493422547  1.0000
  H   H915      1.0  0.7487743073828794  0.46454649702760537  0.6806203617724865  1.0000
  H   H916      1.0  0.7531674110298812  0.43328704773781274  0.6731724251161806  1.0000
  N   N56       1.0  0.13092046365988774  0.699035707734405  0.9438483631720658  1.0000
  C   C605      1.0  0.13712023162749754  0.7086161050978089  0.924453379136968  1.0000
  C   C606      1.0  0.157454765800495  0.7163241715374299  0.9552889221086501  1.0000
  C   C607      1.0  0.12320950374502493  0.6674340548040003  0.9450572136983275  1.0000
  C   C608      1.0  0.10595574993726808  0.7036977841553608  0.9506671929406558  1.0000
  H   H917      1.0  0.11768819891471805  0.6957871170484147  0.9153661609474532  1.0000
  H   H918      1.0  0.1561261656354589  0.7056254159017395  0.9190793934660952  1.0000
  H   H919      1.0  0.14286071874487116  0.7323470245357381  0.9230348505668343  1.0000
  H   H920      1.0  0.15322970382596202  0.7101094446357924  0.9700629156094958  1.0000
  H   H921      1.0  0.17659607424867563  0.7127291608147655  0.9509176761810827  1.0000
  H   H922      1.0  0.16437965239625485  0.7403582100829145  0.9544706534098276  1.0000
  H   H923      1.0  0.10292711528681786  0.6535573381393373  0.9369134223963922  1.0000
  H   H924      1.0  0.11887490376623511  0.6597463795894448  0.9595780423867846  1.0000
  H   H925      1.0  0.14143804232361412  0.6629853342922876  0.9399213141770036  1.0000
  H   H926      1.0  0.10072347960671046  0.696470390481125  0.9652781459353998  1.0000
  H   H927      1.0  0.08548285080163964  0.6909090407808174  0.9424136109721605  1.0000
  H   H928      1.0  0.11104519427678672  0.7273423741326573  0.9501917315372669  1.0000
  N   N57       1.0  0.4931854509870409  0.24877248988293676  0.9852016874577695  1.0000
  C   C609      1.0  0.5141650731383796  0.25861757550769504  0.9696763285720202  1.0000
  C   C610      1.0  0.4677838305134327  0.2202483749343831  0.9804902221682575  1.0000
  C   C611      1.0  0.48252572687118517  0.2708943820052577  0.9887534309495973  1.0000
  C   C612      1.0  0.508199358904751  0.24536914750207028  0.0018918359101998128  1.0000
  H   H929      1.0  0.5332074330310532  0.28048757963008464  0.9726222979738882  1.0000
  H   H930      1.0  0.5034579598246085  0.2611419337528704  0.9567940298533474  1.0000
  H   H931      1.0  0.5231254222972571  0.24276739582779625  0.9667509051262106  1.0000
  H   H932      1.0  0.45578855082857744  0.22214032008426945  0.968052643770299  1.0000
  H   H933      1.0  0.4750019826814207  0.20302908869231948  0.9776138233678194  1.0000
  H   H934      1.0  0.451662969086983  0.2122356131972733  0.9920188882453299  1.0000
  H   H935      1.0  0.4660234113073513  0.2639377874154437  7.409801947666494e-05  1.0000
  H   H936      1.0  0.4719113407898332  0.2747531279568278  0.9762718403154893  1.0000
  H   H937      1.0  0.5009191244944216  0.2924805578562244  0.9929423312396756  1.0000
  H   H938      1.0  0.5158832450186137  0.22827654487341495  0.9999689401478316  1.0000
  H   H939      1.0  0.4932753526673748  0.23887709331704124  0.014038174070037934  1.0000
  H   H940      1.0  0.5278932503791004  0.26629886476502646  0.005577929260595749  1.0000
  N   N58       1.0  0.5339885111871308  0.06984754576022656  0.08561197934384543  1.0000
  C   C613      1.0  0.5633593597026477  0.0745537556146615  0.07913966496088387  1.0000
  C   C614      1.0  0.5246916084365096  0.08919885956333783  0.07527646748257845  1.0000
  C   C615      1.0  0.5357128424612145  0.07703032756386224  0.10550613512623064  1.0000
  C   C616      1.0  0.5121907953461466  0.03879682186958106  0.0825170699791432  1.0000
  H   H941      1.0  0.5804484572162024  0.09755389095618502  0.08190301424356491  1.0000
  H   H942      1.0  0.5633166170672482  0.07080279880000206  0.06399166114899314  1.0000
  H   H943      1.0  0.5707339760997103  0.05965602206537165  0.08620102245483988  1.0000
  H   H944      1.0  0.5240610835492783  0.08531792287902525  0.06012850558999069  1.0000
  H   H945      1.0  0.5024219040662673  0.08585455615878482  0.07942935300131694  1.0000
  H   H946      1.0  0.5399404416840365  0.1127282512926817  0.07794984496147978  1.0000
  H   H947      1.0  0.5424919159401912  0.06276510740377063  0.11381601364148264  1.0000
  H   H948      1.0  0.5140116638433713  0.07412115493952195  0.11078579927012942  1.0000
  H   H949      1.0  0.5520865533596628  0.10038061471577515  0.10824745978009824  1.0000
  H   H950      1.0  0.510340948768574  0.03273864192268244  0.06762983207529999  1.0000
  H   H951      1.0  0.4897975722580218  0.03468338450199248  0.08716158037200408  1.0000
  H   H952      1.0  0.5182596130051506  0.02346588314500393  0.09024837233015766  1.0000
  N   N59       1.0  0.6238325958802682  0.3804669831531748  0.8607449691589392  1.0000
  C   C617      1.0  0.6253787041249194  0.36018436858698566  0.8466325463678996  1.0000
  C   C618      1.0  0.6055424552642397  0.36331600040585316  0.8763466850471822  1.0000
  C   C619      1.0  0.6105659019206386  0.39825088842104883  0.8525224614740182  1.0000
  C   C620      1.0  0.6539415102653614  0.40021642506771316  0.8675092006364691  1.0000
  H   H953      1.0  0.6392871443842537  0.3724166461080144  0.8347344242000848  1.0000
  H   H954      1.0  0.603094321219827  0.34483632094338695  0.841203611560696  1.0000
  H   H955      1.0  0.6355061961645704  0.3465738745953228  0.8523265036374462  1.0000
  H   H956      1.0  0.6150991762052136  0.3498640618649564  0.8830013177908855  1.0000
  H   H957      1.0  0.6040647825696229  0.37799132896145815  0.8872883843592835  1.0000
  H   H958      1.0  0.5826491703441445  0.3480101923909113  0.871850254657177  1.0000
  H   H959      1.0  0.6091571393606613  0.41381276678217566  0.8628394479219099  1.0000
  H   H960      1.0  0.5877890161402084  0.3840413845205378  0.8472872252545746  1.0000
  H   H961      1.0  0.6239138135702207  0.4115174655646294  0.8407407177296095  1.0000
  H   H962      1.0  0.6687012638626804  0.41306413216773896  0.8561021925305753  1.0000
  H   H963      1.0  0.6642543823763036  0.3874663650495843  0.8740598621500367  1.0000
  H   H964      1.0  0.6537746555633164  0.41592889118677506  0.8781803082272153  1.0000
  N   N60       1.0  0.7357813796029384  0.6261401960607331  0.5197371014940205  1.0000
  C   C621      1.0  0.7264752848370929  0.6040388614620488  0.534612466198312  1.0000
  C   C622      1.0  0.7319799749074398  0.6112637058643462  0.5016843984855417  1.0000
  C   C623      1.0  0.767248345659262  0.6472859891198972  0.5224381378123137  1.0000
  C   C624      1.0  0.7173784411081559  0.641794443431379  0.5201660340969029  1.0000
  H   H965      1.0  0.7399827755472439  0.5918487328508395  0.5347222763115568  1.0000
  H   H966      1.0  0.7028470414434039  0.5875580188633487  0.5329220448235065  1.0000
  H   H967      1.0  0.7288723358587229  0.6144564885373297  0.5484387250189926  1.0000
  H   H968      1.0  0.7391675199637979  0.6272549984624616  0.49012418418902187  1.0000
  H   H969      1.0  0.7450946855865277  0.5987435009920941  0.5009572392639625  1.0000
  H   H970      1.0  0.7084349392858313  0.595474312196302  0.4990707706137245  1.0000
  H   H971      1.0  0.775048059405297  0.6643562022334936  0.511490118477365  1.0000
  H   H972      1.0  0.7815512922865819  0.6359099711304168  0.5219811094616983  1.0000
  H   H973      1.0  0.7710848737501941  0.6587487111219963  0.5360195530534049  1.0000
  H   H974      1.0  0.723433666131389  0.6583462870430427  0.5089493684625209  1.0000
  H   H975      1.0  0.7197099804433543  0.6534333243728908  0.5335483166415608  1.0000
  H   H976      1.0  0.6934805421319217  0.6261699534905729  0.5182675962412454  1.0000
  N   N61       1.0  0.2947389793779302  0.5142557209611677  0.4566361626332504  1.0000
  C   C625      1.0  0.2851152549639066  0.5273945404613264  0.4717487407636363  1.0000
  C   C626      1.0  0.31134643956138913  0.4993686175201159  0.46445089423970937  1.0000
  C   C627      1.0  0.31387179644085883  0.5376986076718718  0.44391110556185737  1.0000
  C   C628      1.0  0.2685521378623673  0.49250995215365484  0.44646278749689294  1.0000
  H   H977      1.0  0.27134815592000155  0.5104611022023233  0.4818864085696724  1.0000
  H   H978      1.0  0.27156705782347146  0.5378714716997433  0.4664550161001677  1.0000
  H   H979      1.0  0.3042379197633986  0.5445261786372865  0.47941941147838546  1.0000
  H   H980      1.0  0.31902325188546987  0.4892599086817378  0.4534326906321425  1.0000
  H   H981      1.0  0.33103667358014427  0.5149811917939134  0.47244938686975535  1.0000
  H   H982      1.0  0.29733306656017083  0.4813884592635692  0.47399962059707257  1.0000
  H   H983      1.0  0.32091517947781806  0.528575887531832  0.43201463627674713  1.0000
  H   H984      1.0  0.334128825167168  0.5542525965516942  0.4510103881835607  1.0000
  H   H985      1.0  0.30215575539053224  0.549751863101383  0.4381517853098177  1.0000
  H   H986      1.0  0.27491579398458477  0.48219673579090916  0.4349003611605179  1.0000
  H   H987      1.0  0.2553199374515773  0.5028713395887425  0.4405063291764389  1.0000
  H   H988      1.0  0.25367323746414505  0.474449815284884  0.45566381082594426  1.0000
  N   N62       1.0  0.36912752447431035  0.5781249805695469  0.706146229979224  1.0000
  C   C629      1.0  0.39600711503609803  0.5986684303840775  0.6963435656827142  1.0000
  C   C630      1.0  0.3508043689358967  0.5533315684250575  0.6937360545259588  1.0000
  C   C631      1.0  0.3520827393314368  0.5938147634708137  0.7117965225868599  1.0000
  C   C632      1.0  0.37767601367648823  0.5668075433019862  0.7226893465063365  1.0000
  H   H989      1.0  0.3902478340329543  0.608297025602171  0.6841788155480554  1.0000
  H   H990      1.0  0.408949089311229  0.5874561518659991  0.6912013590514332  1.0000
  H   H991      1.0  0.4107568251622718  0.6173491542517234  0.7053887515867571  1.0000
  H   H992      1.0  0.33034593294070175  0.5373023634354533  0.7006571364856357  1.0000
  H   H993      1.0  0.3438318225848807  0.5612052009562098  0.6811937430886639  1.0000
  H   H994      1.0  0.3631256306933251  0.5412964697749756  0.6889033180724261  1.0000
  H   H995      1.0  0.3318402870797056  0.5792336984048243  0.7194969704081745  1.0000
  H   H996      1.0  0.3449321209383008  0.6023231776593464  0.6996201831397582  1.0000
  H   H997      1.0  0.36546079479899396  0.6130265634484394  0.7208802926344644  1.0000
  H   H998      1.0  0.3579083526520698  0.5511324355596313  0.7303908052831966  1.0000
  H   H999      1.0  0.3913100738648139  0.5850519540958833  0.7323783732070803  1.0000
  H   H1000     1.0  0.3908431062194397  0.5551043482696072  0.7189336257562026  1.0000
  N   N63       1.0  0.40631165169165456  0.9612431569115489  0.5355028972553505  1.0000
  C   C633      1.0  0.4215865539831789  0.9868074625754997  0.5479880555998701  1.0000
  C   C634      1.0  0.3842715729132869  0.9361318102062126  0.5460042607615361  1.0000
  C   C635      1.0  0.4281699320330277  0.9529118441334198  0.5274971097911882  1.0000
  C   C636      1.0  0.39134287972686527  0.96914483188909  0.5205348836213958  1.0000
  H   H1001     1.0  0.43837610592983  0.006144975209688486  0.5404396045312937  1.0000
  H   H1002     1.0  0.433250471230262  0.9816260408787758  0.5593816222997195  1.0000
  H   H1003     1.0  0.40574433861387965  0.9936939320462425  0.5542974502311101  1.0000
  H   H1004     1.0  0.39490715801302784  0.9293136019988419  0.5572324594732894  1.0000
  H   H1005     1.0  0.3673372979988629  0.9414590557063187  0.5522949872575017  1.0000
  H   H1006     1.0  0.37249305549976935  0.9164456701697444  0.5370024183225011  1.0000
  H   H1007     1.0  0.4175912460893203  0.934558064722146  0.5173404742718873  1.0000
  H   H1008     1.0  0.43880569808532616  0.9453420517566931  0.5383096487403305  1.0000
  H   H1009     1.0  0.4460154823481225  0.9716950287925787  0.5202788452275233  1.0000
  H   H1010     1.0  0.38060959465679517  0.9508336686467983  0.5103444285188542  1.0000
  H   H1011     1.0  0.40723949699253664  0.9886845661903328  0.5127748894759168  1.0000
  H   H1012     1.0  0.3738899616549479  0.9744867840042264  0.5259662383657966  1.0000
  N   N64       1.0  0.6684605193999384  0.2382322944710513  0.7246534857177372  1.0000
  C   C637      1.0  0.6471728101594976  0.22885074172572648  0.7090589105992475  1.0000
  C   C638      1.0  0.671455821927191  0.21260259611915996  0.7318276214100857  1.0000
  C   C639      1.0  0.6578922798350408  0.25105615956773963  0.73946114111084  1.0000
  C   C640      1.0  0.6974886707151738  0.2606077551850875  0.7181978673946557  1.0000
  H   H1013     1.0  0.6439430985272746  0.24764112187022128  0.7036193756918253  1.0000
  H   H1014     1.0  0.6251682189656419  0.21132548554416292  0.713177149612689  1.0000
  H   H1015     1.0  0.6551681766204815  0.2203301669760765  0.697279792428909  1.0000
  H   H1016     1.0  0.6877377526098678  0.21914132816832782  0.7434231281146478  1.0000
  H   H1017     1.0  0.6500089747861629  0.19535441245912516  0.7370096375877859  1.0000
  H   H1018     1.0  0.6792093451541596  0.20237157170986073  0.7208917218835384  1.0000
  H   H1019     1.0  0.6561718354137488  0.27095139828395126  0.7345999911108487  1.0000
  H   H1020     1.0  0.673420388572  0.25830821147459576  0.7514809091047789  1.0000
  H   H1021     1.0  0.6357896138178105  0.2350604980794601  0.7445249080760333  1.0000
  H   H1022     1.0  0.7138006762476495  0.2697129912513405  0.7297367453053709  1.0000
  H   H1023     1.0  0.6954376060920341  0.27932943982003605  0.7117986271841839  1.0000
  H   H1024     1.0  0.7068158096928917  0.2515073645828566  0.707525752624644  1.0000
