data_image0
_chemical_formula_structural       SH2SFe2HSFeCSH4S2NFeCH2C2HCHCH2SH2SH2CSH3C6H5C4NH6C2HC2H2CNSH2C3H2S2H2FeSCFeH2FeHCHCH7CHCSH3SCH3SH2SC2HCSHFe2CHCH3SHCSH2SNHFeCHCSH2NC3HSH7FeCSCHCHCNCSFe2CHNHCFeCHCHC2HSC2HCH2C2HCHSH2SHC2SHCSC2SCH2Fe2H2CSCH2CH2CHFeSH4CH2CHSHCHSH6CH2NCHS2C5SHNH2SCHFe2H2C2HSHSH3C4SH4CSCH2CHFe2C2FeCHNSNFeH5CHCHFeCH3CH2C2H5C2SH2SNCHC2HCHFeHCSH3CHC4HSHCHCHCSCSCH4SH4SCH2CH2NC4H2NH3C2FeCH5CH3FeH2SCHCS2H2CHSFeSHFeSFeSCH3CH2SHFeC2HCHCHC7FeHC4H3CFeH2SC2SC2HCHC2SCH2C2H3SHNCH2NSH2CSFeSCSHFeH7SH3CH2CH2NSFeCH2C2HSHFeCH2CH2CH3CHC6HC2HCH3C2H8NSH3C2H2C3HC2SHCSHSFeH2CFeSFeSHC3HCNHCSH6SHCH4CHC3HCNHS2CHCHSCH2SHFeCHCFeCNCH4CHC2H3CH3C2HCHSHS2HSH4CHCH2SHFeSHSFeCHCHNSHSFeHCHSHC2S2CHCHCH2CNHFeH2SC3H2SCH5FeH3CH4CHNH2NHFeCSHC2HCHSC2FeH3CH2C2HCFeHC2H2C2HCNHCHCH2CH2CH6SH4C2SH2SH3CNC2H2C2H2CH4CHCSHFeS2FeHSH2FeSFeSHSCHFeSNFeS2FeHFeS3FeS2FeS2FeSFeS3FeS2FeSCFeSFeSC2H8SH4CFeS2FeHCH3CHCH3CH2C8H8CS2H2C6H4C4HCH4NH2CHC6H5SH2C2HCH2N2CNSCSHC4HCH4CHC2HC6H4C2H3FeHC3H2CH2CH4C2HCSHCHNCH4SH2C2SH5NC4H8CH4CHSH8CFeHCHCHSH2CFeH3CHC2H10C2FeC2H5SH2CNCHC2H5NCH4SHCSC2SC2HFeS2FeS3HCSFeS2FeSFeHFeS3C2N2H2CFeCSCHCFeSH2CH3C4H2CHC2H2C6H4C2H2CHNHC2FeH2SC4H2NC2H2C3HCSCH2SHFeH2FeH7SH4C2SC2HCHSH2C2SNFeCH3SCH5C2H5CSC2HSH5CHCHCHFeNHSCH2CH3FeH2CSH2CHC2NCHCSH5FeHSHC4HNHCHFeHC5H2CSFeCH2SHCSHCH8CHCHCH3CSH4C2H2C4HCNCHCH3CH8FeHSHCHFeS2FeHSHSH2S2H7C2NHCHCFeHCHNSH3FeNH2SHC2H3C2H7C6H3C2H4C2SCHC6H4SHSH2CHFeH2C5H8SHSHFeSHFeSCFeSFeHSHFeSCFeS2FeSFeS3HSC2H2FeH2CH2CH2CHC6H4C6H6CHC2HCH2CNCHC3H3C4HNC2H7CH4CH2CH3FeSHCHFeH2SH2SHCH2C2H2C2FeCHCH2SCNH2CH5FeHFeCSCHSHNHCHC2H2SC3H3C3NC2HCH5CHNH4SH4SH3S2H2CSCH2SC2S2HSC2H2S2C4HCSHFeH2CH6SH2FeSHCSNHCHSC2HC3HC2H2SH2SHCH4CSC2H2S2C2H2FeH2CH2CHNH2C3N2C3FeHFeHFeH6SHCH6C2SFeHCH3CHC2H2FeCHSHSH3S2CHC2H8CS2HCHCHFeS2HCFeSH5C4H2CFeS2FeS2FeSFeS3H3SHFe2HFeSHSH3C6H4C2H3CH4CHC3H5CS2HC2H4CHCH4CH2C6H4C2NCH3C2SHCHFeH3CHC2NCSCH2C2HCH2CH4C2HC2NHCHFeH5CHC3SC2H5CHSC2H2CSHC4SHCH2CH3CNHFeH2SC2H4NH3CSHFe2HN2CHC4S2NHCHCH2SC2HCH2SH2C2HC2H3CHCHCH2CHFeH4SFeHC3HCH2CHCH3CH3CH8SHFeSHC2H5S2FeS2FeSHFeSFeHS2FeS2FeS2FeSFeS3C2HC6H4C6H3C3H2C6H4C3H3SHCH7C2SHCNC2H2SFeC6H4CHCFeHCFeH3NCH2CH2SHNFeHNCNC4SH2CH2SHCH2NC2H9CH2CH3NSHC4H8SH3SH2CH2N2H3C2HSCH2SCH2CH3CH7FeH2CH2SH2FeSCHFeHSH3CH2FeSHSCH2CH2C2H3FeSFeSFeSFeHS2HCFeH3C2FeC4H3CNCH3CSHC6HCH2CH5CSCHCH4CNCFeH5CHCH2CNH2SH2SCH2CHCHSCH2SHCH3CNCHNH3CFeH3CHC2HCH4SCH3CFeSHC3S2H3CHSHC2H3C2HCH2C2HCH8CH4CHCH2CH2C2FeHSHFeS2HFeSHS2H2SH3FeS2FeSFeHFeSCS2HCHCHCSCHFeSC6H4C6H7C3HC2NC2H2FeH2C7H4C2H3SH4CH4SFeSCHCHNH3CHSCH2CNH4Fe2NCHCHSNCH2FeHC2H2S2H5CHC2SHCH4CSCFeCFeS2CFeS2FeS2FeS2Fe2S3H12CH2CSC3H2CHCHCH2C6H6C2NCHC2SC2FeCHNH3CHC2HNH2C2FeC2H7SHCFeH3SH3CH5CH2SH4CH2CHCH2FeCHC2HCH2SNHCSCHCH2FeHS2HCFeSHCH4CS2HSCHNH2SH6CH5FeCHCH2NFeSHFeS2FeSFeS3FeS2FeS2FeSFeS3FeS2Fe2S2H2SC2HC2S2NH2C2HCH4CH3C3HC2H2CH2CH7C2H2FeCHC2HC6H4C6H4C6H4C6SH6C4H2CH4NSH3FeCHSCS2CHCHFeC3H3CHCH4FeNH2CFe2HCH3C3H2C2HCH3SH5NH6C2HCHCHSHC2HCHC2H3CH5NCHSH4SFeNHC2HNH2S3H3C2SC3NH3C2H3CHC2H4C2H3CHSH2CNH7Fe2HFeHSFeCSH3CS2H6CHNC2H2SFeHCH3CHCSH5CHCH2NHCHC3HCH2NC2NH2CHCHSCH2CHSH3CSHS2CH2SHCHSHC2FeH2SCHCSC2H2C3HC2H2CHCH7NFeH2CHC3HCSFeCHNHFeH3SHFeHCH3CSFeCSHCSFeSCFeH4FeH2CSCFeH2C7H4C3SH2CSHC2HCH5CNCHSCHNCNH4SHSHCSH2CSHSCHSH2CFeHCFeHC2SFeSH2S2H4S3HSHFeH2CH2CSH5C2HNSH2CSHCHCH2SC3HSHSFeH2SCHCHSH2CHCSCH7NCH2CNC2H2FeHCHSCSC4H3CH7CH3CH2CH2CH3CHC3FeH2C2HC2SHSH2CH5C2SHC2HCH2NCHCH2FeCSH3SNHCHC2H2FeH2CHFeNHSC2H3SFe2SFeS2FeS2FeSFeS3FeS2CFeCFeH4CH4CH2C2HNSCHC2H2SC2HSH4CHC2H3CH2CH5NCHC6H3C6H4C6H3C2HSC2SC3H5CH2CHSCFeC3H3SCH2C2H4C2HNC4H13CH2CH2SNH2C2H5CHNHC3HSHCH3FeS2H2SCH2CH2C2H2NCH2SH4FeH5CH6NC2S2CH2CHCHFeS2FeCHCH2FeCHCSH5SHFeSCFeS2FeSFeS3FeS2FeCHFeHFeCS2HFeHC2HCH3FeS2FeSCFeSFeS3HC5NH3C2HCH2C3H2C6H4CH2CH5C7H2CHC6H4C6H4NH2CSC2H3C3HCHSHNHNH5CNC3H9NH3C2HC2H4S2HCNCSH2SH4SCH3NHC2HC2HCH5CH2C2H3SCNCH7CH2CH2CH5SHCHCSHCH5CH13SHC2HCHFe2H6SHS2H2FeS2HC6H3CH4C6H2C2H2CH2CNH3CH2CHCH4CHCH6C2HC2H4CH2FeHFeHC3S2H3CH2CNC3FeH2SCFe2CHSC2S3CFeH3CH3FeCSC2H3C2SHNFeCHSFeCH3SCS3CHC2H7CHCS2HCHC2FeCHC2HNHC2H2SC2H3C2HC2NH2SH2CNFeHFeHCS2HSCH2CHCHCHCH5FeS2HC5HFeH3C2H5CNC2HSHSH2CH3FeHSH2CH2CH3FeSHCHS2CHCHC3SH2SCHFeHSFeC5H6CFeHCHNC3H7FeH2CFeCH4SC3H2CSH2CH4SHC4HSCHCH2C2NH5NHCSCH2C2H2CHC2H2SH2SHC2SCHC2H4FeCHFeCH3FeHSHCH2NFeCH2FeHCHC2H3CSHCFeS2FeS2FeSFeS3CH2FeCNCH3CSHNSHFeSFeSCSH3SNHNH3SH4FeSHNHC4H4CH3SH2S2H2C6H4C6H4C6HCH2C2H2C2H5CSCS2FeC2H3CHNCH2C2H5C2H6CFeHCSCHCH2CH4CSHC2H2FeCH3SHCH8NH4CFeS2Fe2HS3FeH2C4HCHC6H5C2H3NCH5CH2SHSFeHSHCH5CHCFeC2HFeSHCS2CSFeHC2H3CH2C2NH2SCHCHS2C2HSH2CNH3SFeS2FeSFeSFeC6H3C4H2C2HSHSCH2FeCSCSH2CH6CH4CHCHFeH4S2CSH2CFeH5C2SCFeC4H3CNH5CHNH2C5H3SH4CH3NH5CSH2CSH2C4HSHFe2SHFeS2FeSFeSH2C3H2C6H5C3H7SH5CH2NSC2HCHCFe3C2HCHSCHCSH4SCH2CH2CH2NCH3NHSH2C2HCFeC3SH2C4H4CFeSHCSHCNH4FeH2CHSHC2HCFeHSH3SFeSHC2H9CNH2CSHNHCHFeCH3SHSHCH2CH3FeCH2CHSH2S3CHC3HS2CSC3HSCHCH5CHC2SCH3CFeSC3NH2CHSFeH3Fe2CSFeH3SH2C2H2CFeCS2CSNH4CHCH3CH2SHC2FeH2CH3SHSH2SH3C4FeH2CH2NHC3SCFeSFeSC3HCFeS2FeS2Fe2S3HC6H4C6H4CHC4H3CHCH2C6H3CHSNSH2CH4SHCNH2SHCH2CH4C4H6SH2Fe2HC2H2CHCH2CH2SHCH2CH3SCH6CH3C2HCH3C3HNSFeH2NH4CHCSC3H2SH4CH2NH5CHC2H3NH3CHCH2NH2C2SH3SFeCFeH2SCNHSC2SHC2HSH2FeS2FeS2FeSFeS4CFeC4HCSH4CH2CH2NH4FeHCH2CHC6H5NHFeH3SH2CSH2SH4C2SCHCH6SCH5CFeCHFeCHC4HSH2CH3NHCH2NH2CH3CHC2SC2SCH7SC2HNH3NH2CS2HS2CFeSC3HCHC2H2FeH3SH2NH2C2HCHN2H5C2SH3CHC3H3CH2CHCH2SHC3H2CFeH3C2NHSH3NHCH2CHSH6CHCHFeHS3H2S2HCFeSHFeS2FeHFeS3FeH2FeS2FeHCHS2CHSCSCFeCFeH4CSC3H4SH2FeHC2S2CHCH5CHC3H2C7H3NC4H12C2H2CH2CHFeCHFe2C3HC2SH2CHSH2C2HN2CH2FeCH4SFeCHSCSCHSC2FeHNHS2C3HCFeCHCHSH5C2H4SNCHCH4CSH2CH2NC2H2NHSCH2SHCH3SCHCHSC2H6CHC2SH5SCHC2HCHCHC2H2FeCH5CSHCFeCHCH3NCHC2H2FeH4CHS2H2CFeHFeC3HCHCS2CHCNCH3C2HS2C2HCH2CHSC3HSH6C3HFeH3CFeHSCH
_chemical_formula_sum              "S768 H3072 Fe384 C1920 N192"
_cell_length_a       94.87
_cell_length_b       95.8263
_cell_length_c       95.5985
_cell_angle_alpha    74.4862
_cell_angle_beta     74.4728
_cell_angle_gamma    73.8127

_space_group_name_H-M_alt    "P 1"
_space_group_IT_number       1

loop_
  _space_group_symop_operation_xyz
  'x, y, z'

loop_
  _atom_site_type_symbol
  _atom_site_label
  _atom_site_symmetry_multiplicity
  _atom_site_fract_x
  _atom_site_fract_y
  _atom_site_fract_z
  _atom_site_occupancy
  S   S1        1.0  0.14091  0.03089  0.45197  1.0000
  H   H1        1.0  0.27692  0.04236  0.46904  1.0000
  H   H2        1.0  0.02981  0.28116  0.37671  1.0000
  S   S2        1.0  0.11601  0.06201  0.45620  1.0000
  Fe  Fe1       1.0  0.02833  0.24323  0.44409  1.0000
  Fe  Fe2       1.0  0.03188  0.15477  0.44168  1.0000
  H   H3        1.0  0.24248  0.07893  0.40958  1.0000
  S   S3        1.0  0.04620  0.17046  0.42768  1.0000
  Fe  Fe3       1.0  0.03026  0.12249  0.45086  1.0000
  C   C1        1.0  0.23804  0.03401  0.46021  1.0000
  S   S4        1.0  0.04242  0.09902  0.44921  1.0000
  H   H4        1.0  0.17544  0.03020  0.44152  1.0000
  H   H5        1.0  0.23874  0.03407  0.42437  1.0000
  H   H6        1.0  0.02936  0.15731  0.48343  1.0000
  H   H7        1.0  0.31514  0.01574  0.43476  1.0000
  S   S5        1.0  0.02673  0.13978  0.43030  1.0000
  S   S6        1.0  0.03750  0.13699  0.46126  1.0000
  N   N1        1.0  0.15405  0.00890  0.40856  1.0000
  Fe  Fe4       1.0  0.13805  0.05026  0.46218  1.0000
  C   C2        1.0  0.08378  0.07922  0.42537  1.0000
  H   H8        1.0  0.16662  0.03475  0.46692  1.0000
  H   H9        1.0  0.14262  0.06122  0.37450  1.0000
  C   C3        1.0  0.25583  0.08660  0.38116  1.0000
  C   C4        1.0  0.16151  0.06814  0.46821  1.0000
  H   H10       1.0  0.00415  0.21572  0.47700  1.0000
  C   C5        1.0  0.15217  0.06077  0.40646  1.0000
  H   H11       1.0  0.25400  0.00000  0.36408  1.0000
  C   C6        1.0  0.01276  0.28829  0.35595  1.0000
  H   H12       1.0  0.28234  0.05449  0.47713  1.0000
  H   H13       1.0  0.02567  0.26474  0.37437  1.0000
  S   S7        1.0  0.03867  0.22295  0.45896  1.0000
  H   H14       1.0  0.17412  0.01742  0.40007  1.0000
  H   H15       1.0  0.20104  0.00354  0.46408  1.0000
  S   S8        1.0  0.21874  0.06341  0.42046  1.0000
  H   H16       1.0  0.07130  0.08225  0.42856  1.0000
  H   H17       1.0  0.08791  0.07060  0.43468  1.0000
  C   C7        1.0  0.16882  0.07981  0.46484  1.0000
  S   S9        1.0  0.21208  0.06162  0.38243  1.0000
  H   H18       1.0  0.01059  0.17526  0.40230  1.0000
  H   H19       1.0  0.19605  0.04455  0.46044  1.0000
  H   H20       1.0  0.01066  0.21256  0.41881  1.0000
  C   C8        1.0  0.04513  0.18452  0.43666  1.0000
  C   C9        1.0  0.03939  0.18304  0.45194  1.0000
  C   C10       1.0  0.03806  0.19467  0.45886  1.0000
  C   C11       1.0  0.04193  0.20793  0.45047  1.0000
  C   C12       1.0  0.04764  0.20940  0.43520  1.0000
  C   C13       1.0  0.04939  0.19765  0.42832  1.0000
  H   H21       1.0  0.03616  0.17288  0.45843  1.0000
  H   H22       1.0  0.03388  0.19354  0.47065  1.0000
  H   H23       1.0  0.05108  0.21945  0.42873  1.0000
  H   H24       1.0  0.05392  0.19879  0.41651  1.0000
  H   H25       1.0  0.16062  1.00000  0.42959  1.0000
  C   C14       1.0  0.07200  0.06693  0.47014  1.0000
  C   C15       1.0  0.06176  0.07466  0.46101  1.0000
  C   C16       1.0  0.05404  0.08926  0.46182  1.0000
  C   C17       1.0  0.05621  0.09595  0.47219  1.0000
  N   N2        1.0  0.00451  0.31521  0.45426  1.0000
  H   H26       1.0  0.07808  0.05573  0.46927  1.0000
  H   H27       1.0  0.05994  0.06932  0.45320  1.0000
  H   H28       1.0  0.05040  0.10722  0.47281  1.0000
  H   H29       1.0  0.27669  0.99834  0.38230  1.0000
  H   H30       1.0  0.27822  0.06335  0.37538  1.0000
  H   H31       1.0  0.29278  0.04533  0.34627  1.0000
  C   C18       1.0  0.23599  0.03804  0.43454  1.0000
  C   C19       1.0  0.14177  0.05995  0.38628  1.0000
  H   H32       1.0  0.01872  0.17268  0.41792  1.0000
  C   C20       1.0  0.13971  0.05644  0.41667  1.0000
  C   C21       1.0  0.26031  0.03419  0.36412  1.0000
  H   H33       1.0  0.04266  0.25004  0.48430  1.0000
  H   H34       1.0  0.32223  0.02705  0.45157  1.0000
  C   C22       1.0  0.25445  0.07309  0.40657  1.0000
  N   N3        1.0  0.01072  0.19551  0.40802  1.0000
  S   S10       1.0  0.30433  0.03658  0.37281  1.0000
  H   H35       1.0  0.02707  0.19280  0.38786  1.0000
  H   H36       1.0  0.11186  0.07928  0.42590  1.0000
  C   C23       1.0  0.12850  0.05335  0.41177  1.0000
  C   C24       1.0  0.31955  0.01621  0.45553  1.0000
  C   C25       1.0  0.18532  0.02199  0.44523  1.0000
  H   H37       1.0  0.18254  0.01085  0.44885  1.0000
  H   H38       1.0  0.01964  0.09809  0.48085  1.0000
  S   S11       1.0  0.11362  0.04656  0.42464  1.0000
  S   S12       1.0  0.24318  0.03406  0.36054  1.0000
  H   H39       1.0  0.19477  0.02156  0.43549  1.0000
  H   H40       1.0  0.20542  0.01689  0.47133  1.0000
  Fe  Fe5       1.0  0.31632  0.01545  0.38555  1.0000
  S   S13       1.0  0.20207  0.03170  0.38162  1.0000
  C   C26       1.0  0.28784  0.03471  0.36936  1.0000
  Fe  Fe6       1.0  0.11795  0.04206  0.44754  1.0000
  H   H41       1.0  0.09051  0.09008  0.44499  1.0000
  H   H42       1.0  0.27715  0.05302  0.39413  1.0000
  Fe  Fe7       1.0  0.10597  0.04958  0.47817  1.0000
  H   H43       1.0  0.27965  0.02436  0.39194  1.0000
  C   C27       1.0  0.24942  0.06267  0.38853  1.0000
  H   H44       1.0  0.13172  0.00533  0.41814  1.0000
  C   C28       1.0  0.27728  0.02864  0.38093  1.0000
  H   H45       1.0  0.18333  0.04955  0.44813  1.0000
  H   H46       1.0  0.23726  0.06805  0.39090  1.0000
  H   H47       1.0  0.25085  0.05148  0.39598  1.0000
  H   H48       1.0  0.25244  0.06108  0.37688  1.0000
  H   H49       1.0  0.16951  0.08719  0.45402  1.0000
  H   H50       1.0  0.28198  0.07079  0.38896  1.0000
  H   H51       1.0  0.26258  0.09374  0.38259  1.0000
  C   C29       1.0  0.22358  0.05731  0.44854  1.0000
  H   H52       1.0  0.25582  0.06199  0.41423  1.0000
  C   C30       1.0  0.22682  0.05217  0.43539  1.0000
  S   S14       1.0  0.10555  0.03042  0.46901  1.0000
  H   H53       1.0  0.24377  0.09238  0.38364  1.0000
  H   H54       1.0  0.16070  0.06327  0.41035  1.0000
  H   H55       1.0  0.11855  0.09655  0.47403  1.0000
  S   S15       1.0  0.15384  0.06551  0.45464  1.0000
  C   C31       1.0  0.17668  0.02642  0.46996  1.0000
  H   H56       1.0  0.21643  0.06820  0.44929  1.0000
  H   H57       1.0  0.20239  0.04108  0.44194  1.0000
  H   H58       1.0  0.08685  0.07385  0.41565  1.0000
  S   S16       1.0  0.22543  0.02898  0.40274  1.0000
  H   H59       1.0  0.22613  0.05215  0.47120  1.0000
  H   H60       1.0  0.21292  0.01559  0.45239  1.0000
  S   S17       1.0  0.00425  0.24451  0.44472  1.0000
  C   C32       1.0  0.27466  0.06442  0.38720  1.0000
  C   C33       1.0  0.20277  0.01504  0.46144  1.0000
  H   H61       1.0  0.01779  0.19402  0.42802  1.0000
  C   C34       1.0  0.22900  0.04818  0.46098  1.0000
  S   S18       1.0  0.03523  0.24892  0.41927  1.0000
  H   H62       1.0  0.04792  0.31815  0.40908  1.0000
  Fe  Fe8       1.0  0.19062  0.05392  0.38729  1.0000
  Fe  Fe9       1.0  0.12853  0.02091  0.47426  1.0000
  C   C35       1.0  0.19297  0.04094  0.45175  1.0000
  H   H63       1.0  0.25523  0.02423  0.38742  1.0000
  C   C36       1.0  0.03672  0.31978  0.40731  1.0000
  H   H64       1.0  0.02596  0.30390  0.44342  1.0000
  H   H65       1.0  0.22005  0.00732  0.42939  1.0000
  H   H66       1.0  0.24874  0.00497  0.38183  1.0000
  S   S19       1.0  0.16971  0.06604  0.37854  1.0000
  H   H67       1.0  0.24886  0.01815  0.44617  1.0000
  C   C37       1.0  0.26340  0.02865  0.37837  1.0000
  S   S20       1.0  0.02466  0.26648  0.44702  1.0000
  H   H68       1.0  0.26144  0.07945  0.40888  1.0000
  H   H69       1.0  0.25879  0.08588  0.36924  1.0000
  S   S21       1.0  0.30712  0.99505  0.39641  1.0000
  N   N4        1.0  0.18945  0.02610  0.45714  1.0000
  H   H70       1.0  0.11042  0.08055  0.47991  1.0000
  Fe  Fe10      1.0  0.01295  0.14361  0.47103  1.0000
  C   C38       1.0  0.24178  0.02905  0.44688  1.0000
  H   H71       1.0  0.12062  0.05327  0.39264  1.0000
  C   C39       1.0  0.06611  0.08803  0.48169  1.0000
  S   S22       1.0  0.24398  0.02230  0.47614  1.0000
  H   H72       1.0  0.13673  0.01838  0.42531  1.0000
  H   H73       1.0  0.17344  0.01556  0.47404  1.0000
  N   N5        1.0  0.09030  0.09237  0.42203  1.0000
  C   C40       1.0  0.10678  0.08796  0.41719  1.0000
  C   C41       1.0  0.08661  0.09858  0.43549  1.0000
  C   C42       1.0  0.08398  0.10371  0.41008  1.0000
  H   H74       1.0  0.10996  0.08324  0.40703  1.0000
  S   S23       1.0  0.18995  0.04598  0.41164  1.0000
  H   H75       1.0  0.11216  0.09753  0.41464  1.0000
  H   H76       1.0  0.07427  0.10263  0.43901  1.0000
  H   H77       1.0  0.09185  0.10815  0.43358  1.0000
  H   H78       1.0  0.07154  0.10725  0.41342  1.0000
  H   H79       1.0  0.08653  0.09936  0.39976  1.0000
  H   H80       1.0  0.08863  0.11381  0.40728  1.0000
  H   H81       1.0  0.13077  0.00185  0.45529  1.0000
  Fe  Fe11      1.0  0.20290  0.02429  0.40565  1.0000
  C   C43       1.0  0.13807  0.01425  0.41509  1.0000
  S   S24       1.0  0.32545  0.01669  0.48179  1.0000
  C   C44       1.0  0.02547  0.19683  0.39818  1.0000
  H   H82       1.0  0.26872  0.04424  0.34149  1.0000
  C   C45       1.0  0.15341  0.06221  0.39127  1.0000
  H   H83       1.0  0.15018  0.01307  0.38651  1.0000
  C   C46       1.0  0.12937  0.05543  0.39653  1.0000
  N   N6        1.0  0.00787  0.28437  0.37225  1.0000
  C   C47       1.0  0.27105  0.03992  0.35252  1.0000
  S   S25       1.0  0.32577  0.01548  0.40461  1.0000
  Fe  Fe12      1.0  0.22349  0.03851  0.37914  1.0000
  Fe  Fe13      1.0  0.21251  0.05153  0.40643  1.0000
  C   C48       1.0  0.28466  0.04050  0.35520  1.0000
  H   H84       1.0  0.13884  0.05562  0.42832  1.0000
  N   N7        1.0  0.25860  0.07169  0.39087  1.0000
  H   H85       1.0  0.01706  0.27818  0.35109  1.0000
  C   C49       1.0  0.25129  0.99550  0.37627  1.0000
  Fe  Fe14      1.0  0.31845  0.99399  0.41472  1.0000
  C   C50       1.0  0.22215  0.99570  0.42926  1.0000
  H   H86       1.0  0.13248  0.02357  0.40720  1.0000
  C   C51       1.0  0.02076  0.27507  0.37882  1.0000
  H   H87       1.0  0.03485  0.19018  0.40376  1.0000
  C   C52       1.0  0.02059  0.31442  0.44749  1.0000
  C   C53       1.0  0.01719  0.30979  0.40443  1.0000
  H   H88       1.0  0.06785  0.09325  0.48964  1.0000
  S   S26       1.0  0.12801  0.03931  0.48508  1.0000
  C   C54       1.0  0.15526  0.00386  0.39487  1.0000
  C   C55       1.0  0.03154  0.30758  0.40694  1.0000
  H   H89       1.0  0.16118  0.02539  0.41489  1.0000
  C   C56       1.0  0.16088  0.99640  0.41935  1.0000
  H   H90       1.0  0.15495  0.04966  0.48492  1.0000
  H   H91       1.0  0.17934  0.02924  0.47938  1.0000
  C   C57       1.0  0.00918  0.20094  0.42156  1.0000
  C   C58       1.0  0.07415  0.07358  0.48052  1.0000
  H   H92       1.0  0.00890  0.19580  0.48194  1.0000
  C   C59       1.0  0.17560  0.08178  0.47530  1.0000
  H   H93       1.0  0.15728  0.03062  0.39661  1.0000
  S   S27       1.0  0.00381  0.24385  0.40347  1.0000
  H   H94       1.0  0.29513  0.03744  0.47359  1.0000
  H   H95       1.0  0.05041  0.22390  0.48245  1.0000
  S   S28       1.0  0.00504  0.27592  0.42075  1.0000
  H   H96       1.0  0.16721  0.99983  0.38961  1.0000
  C   C60       1.0  0.16069  0.05860  0.48217  1.0000
  C   C61       1.0  0.16199  0.02110  0.40490  1.0000
  S   S29       1.0  0.04272  0.28954  0.41015  1.0000
  H   H97       1.0  0.13034  0.07826  0.47610  1.0000
  C   C62       1.0  0.31640  0.99473  0.47527  1.0000
  S   S30       1.0  0.00604  0.12771  0.46216  1.0000
  C   C63       1.0  0.31566  0.00977  0.44595  1.0000
  C   C64       1.0  0.32011  0.00863  0.47014  1.0000
  S   S31       1.0  0.19694  0.00253  0.41759  1.0000
  C   C65       1.0  0.31221  0.99576  0.45098  1.0000
  H   H98       1.0  0.01343  0.30060  0.40348  1.0000
  H   H99       1.0  0.02670  0.20856  0.39496  1.0000
  Fe  Fe15      1.0  0.01081  0.25180  0.42009  1.0000
  Fe  Fe16      1.0  0.02899  0.27250  0.42214  1.0000
  H   H100      1.0  0.02332  0.23742  0.48418  1.0000
  H   H101      1.0  0.14943  0.99463  0.39719  1.0000
  C   C66       1.0  0.00771  0.32393  0.40302  1.0000
  S   S32       1.0  0.00796  0.16303  0.45250  1.0000
  C   C67       1.0  0.00961  0.17979  0.41218  1.0000
  H   H102      1.0  0.01064  0.30475  0.37556  1.0000
  H   H103      1.0  0.01731  0.27147  0.39104  1.0000
  C   C68       1.0  0.11955  0.08512  0.48100  1.0000
  H   H104      1.0  0.02189  0.29446  0.35270  1.0000
  H   H105      1.0  0.18160  0.09058  0.47253  1.0000
  C   C69       1.0  0.28307  0.04265  0.47735  1.0000
  H   H106      1.0  0.00770  0.29188  0.46414  1.0000
  Fe  Fe17      1.0  0.00314  0.14654  0.44270  1.0000
  S   S33       1.0  0.13611  0.99684  0.48486  1.0000
  H   H107      1.0  0.02685  0.31499  0.45556  1.0000
  H   H108      1.0  0.27195  0.01847  0.48385  1.0000
  H   H109      1.0  0.00852  0.30344  0.47591  1.0000
  H   H110      1.0  0.00188  0.30356  0.43907  1.0000
  C   C70       1.0  0.17541  0.07181  0.48898  1.0000
  H   H111      1.0  0.02214  0.32375  0.43778  1.0000
  H   H112      1.0  0.28994  0.01336  0.48863  1.0000
  C   C71       1.0  0.00200  0.29808  0.37822  1.0000
  H   H113      1.0  0.25044  0.99482  0.46490  1.0000
  S   S34       1.0  0.20239  0.03537  0.49095  1.0000
  H   H114      1.0  0.12959  0.10338  0.49123  1.0000
  C   C72       1.0  0.00292  0.30287  0.46730  1.0000
  H   H115      1.0  0.27125  0.99468  0.47641  1.0000
  S   S35       1.0  0.08739  0.06407  0.49151  1.0000
  H   H116      1.0  0.28057  0.99339  0.36464  1.0000
  H   H117      1.0  0.03143  0.08353  0.49146  1.0000
  H   H118      1.0  0.02515  0.11689  0.49028  1.0000
  H   H119      1.0  0.00330  0.29543  0.35068  1.0000
  H   H120      1.0  0.25412  0.04170  0.48927  1.0000
  H   H121      1.0  0.13198  0.06268  0.50098  1.0000
  C   C73       1.0  0.03320  0.22751  0.51778  1.0000
  H   H122      1.0  0.02793  0.08164  0.51838  1.0000
  H   H123      1.0  0.16780  0.05250  0.50302  1.0000
  N   N8        1.0  0.31245  0.00131  0.58196  1.0000
  C   C74       1.0  0.12089  0.06954  0.50527  1.0000
  H   H124      1.0  0.32259  0.01933  0.56862  1.0000
  S   S36       1.0  0.22214  0.04236  0.51056  1.0000
  S   S37       1.0  0.02209  0.19320  0.51412  1.0000
  C   C75       1.0  0.24058  0.02125  0.56254  1.0000
  C   C76       1.0  0.23700  0.01740  0.55101  1.0000
  C   C77       1.0  0.25551  0.02079  0.56231  1.0000
  C   C78       1.0  0.02724  0.17200  0.49785  1.0000
  C   C79       1.0  0.29964  0.99506  0.58260  1.0000
  S   S38       1.0  0.17926  0.00619  0.50793  1.0000
  H   H125      1.0  0.01293  0.09438  0.52764  1.0000
  N   N9        1.0  0.03579  0.23207  0.50141  1.0000
  H   H126      1.0  0.25953  0.05380  0.49737  1.0000
  H   H127      1.0  0.11211  0.06413  0.50473  1.0000
  S   S39       1.0  0.18939  0.03284  0.52659  1.0000
  C   C80       1.0  0.28545  0.03530  0.50297  1.0000
  H   H128      1.0  0.05810  0.21817  0.49884  1.0000
  Fe  Fe18      1.0  0.32322  0.00305  0.50507  1.0000
  Fe  Fe19      1.0  0.21347  0.02444  0.52862  1.0000
  H   H129      1.0  0.01253  0.24257  0.50138  1.0000
  H   H130      1.0  0.19830  0.99849  0.56532  1.0000
  C   C81       1.0  0.26699  0.01600  0.55081  1.0000
  C   C82       1.0  0.00150  0.16172  0.51388  1.0000
  H   H131      1.0  0.23175  0.02490  0.57150  1.0000
  S   S40       1.0  0.28553  0.01586  0.55081  1.0000
  H   H132      1.0  0.03721  0.10286  0.50113  1.0000
  S   S41       1.0  0.18579  0.07280  0.50111  1.0000
  H   H133      1.0  0.25817  0.02412  0.57109  1.0000
  H   H134      1.0  0.02198  0.11593  0.50976  1.0000
  H   H135      1.0  0.24569  0.00952  0.53058  1.0000
  C   C83       1.0  0.26345  0.01173  0.53947  1.0000
  C   C84       1.0  0.19686  0.99300  0.55704  1.0000
  C   C85       1.0  0.18815  0.99350  0.49635  1.0000
  C   C86       1.0  0.04068  0.24628  0.49661  1.0000
  S   S42       1.0  0.21821  0.01839  0.55141  1.0000
  H   H136      1.0  0.27222  0.00774  0.53075  1.0000
  H   H137      1.0  0.30934  0.99745  0.60568  1.0000
  H   H138      1.0  0.01775  0.22349  0.49981  1.0000
  H   H139      1.0  0.28889  0.00358  0.58351  1.0000
  C   C87       1.0  0.02278  0.16151  0.49316  1.0000
  S   S43       1.0  0.32450  0.01110  0.52460  1.0000
  C   C88       1.0  0.31018  0.00664  0.59572  1.0000
  H   H140      1.0  0.12028  0.06903  0.51718  1.0000
  H   H141      1.0  0.29972  0.01546  0.59718  1.0000
  C   C89       1.0  0.00577  0.17244  0.51832  1.0000
  H   H142      1.0  0.04356  0.22594  0.52189  1.0000
  Fe  Fe20      1.0  0.22532  0.02658  0.49577  1.0000
  Fe  Fe21      1.0  0.19552  0.01801  0.51037  1.0000
  C   C90       1.0  0.02539  0.10903  0.50119  1.0000
  C   C91       1.0  0.13085  0.09165  0.49747  1.0000
  Fe  Fe22      1.0  0.30355  0.00278  0.53574  1.0000
  C   C92       1.0  0.01839  0.17792  0.51009  1.0000
  H   H143      1.0  0.13090  0.09149  0.50915  1.0000
  N   N10       1.0  0.11884  0.08501  0.49666  1.0000
  S   S44       1.0  0.21888  0.00789  0.51419  1.0000
  N   N11       1.0  0.01529  0.09886  0.50397  1.0000
  Fe  Fe23      1.0  0.00154  0.20288  0.52958  1.0000
  H   H144      1.0  0.05131  0.24521  0.50006  1.0000
  H   H145      1.0  0.28480  0.04693  0.50348  1.0000
  H   H146      1.0  0.09478  0.08883  0.50246  1.0000
  H   H147      1.0  0.10202  0.10540  0.49654  1.0000
  H   H148      1.0  0.30285  0.02250  0.56946  1.0000
  C   C93       1.0  0.31352  0.01387  0.56907  1.0000
  H   H149      1.0  0.10309  0.09392  0.51467  1.0000
  C   C94       1.0  0.26094  0.04197  0.49701  1.0000
  H   H150      1.0  0.03206  0.25522  0.50151  1.0000
  Fe  Fe24      1.0  0.19841  0.04945  0.50740  1.0000
  C   C95       1.0  0.02172  0.23401  0.49648  1.0000
  H   H151      1.0  0.02435  0.23593  0.52322  1.0000
  H   H152      1.0  0.27323  0.01289  0.50300  1.0000
  H   H153      1.0  0.02955  0.21678  0.52176  1.0000
  C   C96       1.0  0.04758  0.22052  0.49476  1.0000
  H   H154      1.0  0.01221  0.08300  0.49342  1.0000
  H   H155      1.0  0.28112  0.02947  0.51442  1.0000
  C   C97       1.0  0.01628  0.08837  0.51835  1.0000
  C   C98       1.0  0.00977  0.15653  0.50110  1.0000
  H   H156      1.0  0.00878  0.08052  0.52082  1.0000
  H   H157      1.0  0.19907  0.00054  0.54599  1.0000
  H   H158      1.0  0.04391  0.20986  0.49741  1.0000
  H   H159      1.0  0.29754  0.02996  0.49980  1.0000
  H   H160      1.0  0.25600  0.03624  0.50831  1.0000
  C   C99       1.0  0.24842  0.01270  0.53941  1.0000
  C   C100      1.0  0.10403  0.09369  0.50287  1.0000
  S   S45       1.0  0.30111  0.99706  0.51551  1.0000
  H   H161      1.0  0.31591  0.01013  0.55844  1.0000
  H   H162      1.0  0.31970  0.01142  0.59555  1.0000
  S   S46       1.0  0.00326  0.14436  0.49490  1.0000
  N   N12       1.0  0.27688  0.03478  0.49234  1.0000
  C   C101      1.0  0.16788  0.06027  0.49245  1.0000
  H   H163      1.0  0.14215  0.08549  0.49261  1.0000
  C   C102      1.0  0.27805  0.01917  0.49198  1.0000
  C   C103      1.0  0.01982  0.09049  0.49193  1.0000
  H   H164      1.0  0.03731  0.17584  0.49177  1.0000
  C   C104      1.0  0.02583  0.58292  0.22832  1.0000
  H   H165      1.0  0.04111  0.47151  0.02683  1.0000
  Fe  Fe25      1.0  0.02678  0.48359  0.09617  1.0000
  H   H166      1.0  0.05047  0.43310  0.15492  1.0000
  C   C105      1.0  0.20289  0.48975  0.00531  1.0000
  S   S47       1.0  0.02484  0.42042  0.15631  1.0000
  H   H167      1.0  0.06214  0.43432  0.13670  1.0000
  H   H168      1.0  0.01546  0.60085  0.20459  1.0000
  H   H169      1.0  0.02054  0.47627  0.04852  1.0000
  C   C106      1.0  0.23670  0.59799  0.99539  1.0000
  H   H170      1.0  0.01757  0.49349  0.21872  1.0000
  C   C107      1.0  0.00553  0.47373  0.20158  1.0000
  C   C108      1.0  0.04201  0.49201  0.04081  1.0000
  C   C109      1.0  0.02601  0.42984  0.13766  1.0000
  C   C110      1.0  0.13959  0.54233  0.00284  1.0000
  H   H171      1.0  0.25686  0.58563  0.00319  1.0000
  S   S48       1.0  0.28362  0.48276  0.01606  1.0000
  H   H172      1.0  0.05171  0.43285  0.10496  1.0000
  C   C111      1.0  0.03929  0.42641  0.12723  1.0000
  H   H173      1.0  0.04821  0.41714  0.13039  1.0000
  C   C112      1.0  0.31425  0.47393  0.00996  1.0000
  H   H174      1.0  0.06949  0.45802  0.12297  1.0000
  C   C113      1.0  0.04126  0.43527  0.11286  1.0000
  S   S49       1.0  0.03360  0.46036  0.09217  1.0000
  C   C114      1.0  0.03273  0.46922  0.19569  1.0000
  S   S50       1.0  0.24459  0.47901  0.01076  1.0000
  C   C115      1.0  0.03007  0.44776  0.10902  1.0000
  H   H175      1.0  0.04351  0.46399  0.18984  1.0000
  H   H176      1.0  0.04223  0.45498  0.16673  1.0000
  H   H177      1.0  0.07727  0.45804  0.13820  1.0000
  H   H178      1.0  0.29768  0.50926  0.00259  1.0000
  S   S51       1.0  0.12608  0.50665  0.00955  1.0000
  H   H179      1.0  0.05064  0.45569  0.03856  1.0000
  H   H180      1.0  0.06962  0.43437  0.15210  1.0000
  H   H181      1.0  0.06018  0.47008  0.02765  1.0000
  H   H182      1.0  0.10329  0.56277  0.01036  1.0000
  S   S52       1.0  0.25330  0.51162  0.99655  1.0000
  C   C116      1.0  0.05480  0.47074  0.05649  1.0000
  H   H183      1.0  0.30953  0.52242  0.99574  1.0000
  H   H184      1.0  0.21461  0.48448  0.00467  1.0000
  C   C117      1.0  0.30082  0.47302  0.00717  1.0000
  H   H185      1.0  0.06133  0.45651  0.16360  1.0000
  H   H186      1.0  0.31398  0.47962  0.01843  1.0000
  N   N13       1.0  0.05468  0.45483  0.14440  1.0000
  C   C118      1.0  0.06680  0.46143  0.13381  1.0000
  C   C119      1.0  0.04108  0.45960  0.13806  1.0000
  C   C120      1.0  0.05130  0.45983  0.15852  1.0000
  C   C121      1.0  0.05948  0.43844  0.14716  1.0000
  H   H187      1.0  0.04756  0.47216  0.15685  1.0000
  H   H188      1.0  0.06354  0.47380  0.13152  1.0000
  N   N14       1.0  0.04375  0.47586  0.04681  1.0000
  H   H189      1.0  0.03695  0.47183  0.13609  1.0000
  H   H190      1.0  0.04337  0.45643  0.12718  1.0000
  H   H191      1.0  0.03181  0.45450  0.14555  1.0000
  C   C122      1.0  0.03200  0.47938  0.20417  1.0000
  C   C123      1.0  0.02912  0.47277  0.05549  1.0000
  Fe  Fe26      1.0  0.00965  0.52696  0.22115  1.0000
  C   C124      1.0  0.17235  0.50301  0.00716  1.0000
  H   H192      1.0  0.03851  0.49835  0.04986  1.0000
  H   H193      1.0  0.10280  0.53776  0.04738  1.0000
  H   H194      1.0  0.03006  0.46072  0.06055  1.0000
  H   H195      1.0  0.05166  0.47718  0.06542  1.0000
  H   H196      1.0  0.08882  0.53688  0.01483  1.0000
  C   C125      1.0  0.17811  0.48905  0.00338  1.0000
  H   H197      1.0  0.02472  0.47877  0.06480  1.0000
  H   H198      1.0  0.05562  0.45883  0.06206  1.0000
  H   H199      1.0  0.03344  0.49637  0.03380  1.0000
  Fe  Fe27      1.0  0.26546  0.48795  0.00320  1.0000
  H   H200      1.0  0.00767  0.46014  0.11609  1.0000
  H   H201      1.0  0.06621  0.47194  0.05005  1.0000
  S   S53       1.0  0.04797  0.48501  0.20442  1.0000
  C   C126      1.0  0.04913  0.46792  0.03441  1.0000
  H   H202      1.0  0.20883  0.54890  0.99790  1.0000
  C   C127      1.0  0.32806  0.46792  0.00143  1.0000
  S   S54       1.0  0.01879  0.52040  0.19918  1.0000
  S   S55       1.0  0.09354  0.48608  0.02263  1.0000
  H   H203      1.0  0.08823  0.57300  0.02214  1.0000
  H   H204      1.0  0.07555  0.51549  0.01393  1.0000
  C   C128      1.0  0.30700  0.51267  0.99348  1.0000
  H   H205      1.0  0.02475  0.53119  0.12739  1.0000
  S   S56       1.0  0.01748  0.54832  0.21291  1.0000
  Fe  Fe28      1.0  0.03948  0.50845  0.20792  1.0000
  S   S57       1.0  0.05038  0.52793  0.19854  1.0000
  H   H206      1.0  0.20163  0.54175  0.02497  1.0000
  Fe  Fe29      1.0  0.03856  0.53447  0.22037  1.0000
  S   S58       1.0  0.04981  0.54311  0.23294  1.0000
  Fe  Fe30      1.0  0.02858  0.54028  0.19173  1.0000
  S   S59       1.0  0.02479  0.55221  0.16896  1.0000
  C   C129      1.0  0.06203  0.52149  0.03448  1.0000
  H   H207      1.0  0.02885  0.57221  0.22457  1.0000
  H   H208      1.0  0.01041  0.58329  0.20834  1.0000
  H   H209      1.0  0.21041  0.57069  0.02399  1.0000
  C   C130      1.0  0.15042  0.54631  0.00756  1.0000
  H   H210      1.0  0.09949  0.55770  0.04381  1.0000
  H   H211      1.0  0.21231  0.54446  0.03663  1.0000
  S   S60       1.0  0.01350  0.49002  0.11754  1.0000
  H   H212      1.0  0.17762  0.52092  0.01315  1.0000
  Fe  Fe31      1.0  0.03097  0.50267  0.11495  1.0000
  C   C131      1.0  0.18194  0.51024  0.01009  1.0000
  C   C132      1.0  0.15405  0.56015  0.00133  1.0000
  H   H213      1.0  0.07274  0.55958  0.04410  1.0000
  C   C133      1.0  0.07855  0.49490  0.04842  1.0000
  H   H214      1.0  0.04947  0.50252  0.15993  1.0000
  C   C134      1.0  0.01940  0.46644  0.19431  1.0000
  H   H215      1.0  0.11412  0.54748  0.03163  1.0000
  C   C135      1.0  0.30130  0.46532  0.99646  1.0000
  C   C136      1.0  0.03740  0.51541  0.14282  1.0000
  C   C137      1.0  0.04278  0.51323  0.15567  1.0000
  C   C138      1.0  0.03931  0.52472  0.16330  1.0000
  C   C139      1.0  0.03038  0.53852  0.15822  1.0000
  C   C140      1.0  0.02527  0.54090  0.14513  1.0000
  C   C141      1.0  0.02879  0.52933  0.13741  1.0000
  Fe  Fe32      1.0  0.03244  0.51425  0.08186  1.0000
  H   H216      1.0  0.04360  0.52281  0.17317  1.0000
  C   C142      1.0  0.00670  0.60489  0.23269  1.0000
  C   C143      1.0  0.06724  0.50397  0.05692  1.0000
  C   C144      1.0  0.05868  0.51707  0.04999  1.0000
  C   C145      1.0  0.08143  0.49893  0.03294  1.0000
  H   H217      1.0  0.19773  0.47146  0.00008  1.0000
  H   H218      1.0  0.29835  0.42633  0.99625  1.0000
  H   H219      1.0  0.03390  0.58970  0.22109  1.0000
  C   C146      1.0  0.09186  0.56281  0.01744  1.0000
  Fe  Fe33      1.0  0.23293  0.50216  0.00145  1.0000
  H   H220      1.0  0.31704  0.50334  0.99420  1.0000
  H   H221      1.0  0.16056  0.50816  0.00788  1.0000
  S   S61       1.0  0.04346  0.52769  0.06052  1.0000
  C   C147      1.0  0.10249  0.54799  0.03845  1.0000
  C   C148      1.0  0.01814  0.48596  0.21192  1.0000
  S   S62       1.0  0.02977  0.51379  0.23046  1.0000
  C   C149      1.0  0.23555  0.55121  0.01428  1.0000
  C   C150      1.0  0.19727  0.50377  0.00883  1.0000
  H   H222      1.0  0.22673  0.53662  0.99879  1.0000
  C   C151      1.0  0.21107  0.56742  0.01348  1.0000
  H   H223      1.0  0.06520  0.50079  0.06883  1.0000
  C   C152      1.0  0.19331  0.48235  0.00273  1.0000
  C   C153      1.0  0.22038  0.54820  0.99916  1.0000
  S   S63       1.0  0.20957  0.51349  0.01085  1.0000
  C   C154      1.0  0.09623  0.53609  0.02241  1.0000
  H   H224      1.0  0.01849  0.55160  0.14103  1.0000
  H   H225      1.0  0.06811  0.55087  0.03199  1.0000
  C   C155      1.0  0.21316  0.54166  0.02583  1.0000
  C   C156      1.0  0.00793  0.59377  0.21238  1.0000
  H   H226      1.0  0.19933  0.56855  0.01246  1.0000
  H   H227      1.0  0.09586  0.52560  0.03093  1.0000
  H   H228      1.0  0.08431  0.56381  0.00992  1.0000
  S   S64       1.0  0.04056  0.49999  0.13483  1.0000
  H   H229      1.0  0.10785  0.53503  0.01568  1.0000
  N   N15       1.0  0.22004  0.55213  0.01319  1.0000
  C   C157      1.0  0.13198  0.55241  0.99227  1.0000
  H   H230      1.0  0.07595  0.53970  0.04755  1.0000
  H   H231      1.0  0.05539  0.53161  0.02905  1.0000
  N   N16       1.0  0.09175  0.54921  0.02925  1.0000
  S   S65       1.0  0.12921  0.48096  0.99165  1.0000
  H   H232      1.0  0.05274  0.49464  0.03381  1.0000
  H   H233      1.0  0.21980  0.53003  0.02615  1.0000
  C   C158      1.0  0.07649  0.54989  0.03863  1.0000
  S   S66       1.0  0.16944  0.56402  0.00521  1.0000
  Fe  Fe34      1.0  0.14438  0.49337  0.99495  1.0000
  S   S67       1.0  0.01942  0.52377  0.10188  1.0000
  C   C159      1.0  0.07345  0.51243  0.02593  1.0000
  S   S68       1.0  0.04543  0.49412  0.09501  1.0000
  H   H234      1.0  0.08489  0.48457  0.05387  1.0000
  Fe  Fe35      1.0  0.11059  0.49589  0.00421  1.0000
  H   H235      1.0  0.23188  0.60303  0.00497  1.0000
  H   H236      1.0  0.15624  0.53854  0.01577  1.0000
  H   H237      1.0  0.01982  0.45904  0.18736  1.0000
  H   H238      1.0  0.24106  0.55891  0.00479  1.0000
  H   H239      1.0  0.24260  0.53979  0.01414  1.0000
  H   H240      1.0  0.03009  0.47831  0.23790  1.0000
  H   H241      1.0  0.27214  0.42617  0.99535  1.0000
  S   S69       1.0  0.16680  0.47977  0.99907  1.0000
  H   H242      1.0  0.23576  0.55419  0.02468  1.0000
  H   H243      1.0  0.21603  0.57568  0.00422  1.0000
  H   H244      1.0  0.13727  0.53145  0.00735  1.0000
  C   C160      1.0  0.00174  0.48780  0.15679  1.0000
  H   H245      1.0  0.29108  0.46359  0.99509  1.0000
  H   H246      1.0  0.00833  0.51251  0.13846  1.0000
  C   C161      1.0  0.01439  0.44158  0.13334  1.0000
  H   H247      1.0  0.01383  0.48657  0.15134  1.0000
  H   H248      1.0  0.01490  0.50483  0.16412  1.0000
  N   N17       1.0  0.01011  0.59073  0.22774  1.0000
  S   S70       1.0  0.01453  0.50312  0.08170  1.0000
  Fe  Fe36      1.0  0.00396  0.42922  0.17212  1.0000
  C   C162      1.0  0.01653  0.45076  0.11918  1.0000
  H   H249      1.0  0.01081  0.46603  0.23724  1.0000
  H   H250      1.0  0.01424  0.61226  0.22556  1.0000
  C   C163      1.0  0.25078  0.58812  0.99440  1.0000
  C   C164      1.0  0.00495  0.48309  0.21070  1.0000
  H   H251      1.0  0.00376  0.44366  0.14085  1.0000
  S   S71       1.0  0.00488  0.43081  0.19497  1.0000
  H   H252      1.0  0.02780  0.58026  0.23982  1.0000
  Fe  Fe37      1.0  0.00275  0.51059  0.10309  1.0000
  C   C165      1.0  0.00258  0.50683  0.16850  1.0000
  H   H253      1.0  0.00264  0.57023  0.23477  1.0000
  H   H254      1.0  0.00301  0.33073  0.46753  1.0000
  C   C166      1.0  0.01832  0.55767  0.27409  1.0000
  H   H255      1.0  0.03139  0.48155  0.25507  1.0000
  H   H256      1.0  0.01433  0.38975  0.34512  1.0000
  C   C167      1.0  0.01293  0.55208  0.26492  1.0000
  H   H257      1.0  0.01452  0.39280  0.36284  1.0000
  H   H258      1.0  0.01567  0.45092  0.25200  1.0000
  H   H259      1.0  0.03776  0.56198  0.27826  1.0000
  C   C168      1.0  0.02718  0.33402  0.40598  1.0000
  H   H260      1.0  0.03101  0.34337  0.40675  1.0000
  C   C169      1.0  0.02821  0.47390  0.25010  1.0000
  C   C170      1.0  0.00877  0.46243  0.24948  1.0000
  C   C171      1.0  0.03353  0.55780  0.27110  1.0000
  C   C172      1.0  0.01254  0.33601  0.40416  1.0000
  C   C173      1.0  0.04324  0.55298  0.25861  1.0000
  C   C174      1.0  0.00712  0.39211  0.35588  1.0000
  H   H261      1.0  0.01645  0.53355  0.30012  1.0000
  C   C175      1.0  0.01351  0.52256  0.30509  1.0000
  C   C176      1.0  0.00877  0.36595  0.36648  1.0000
  H   H262      1.0  0.01621  0.36288  0.35610  1.0000
  C   C177      1.0  0.02271  0.54701  0.25253  1.0000
  H   H263      1.0  0.01810  0.45529  0.27508  1.0000
  H   H264      1.0  0.00648  0.60147  0.38484  1.0000
  H   H265      1.0  0.05494  0.55348  0.25609  1.0000
  C   C178      1.0  0.03783  0.54772  0.24924  1.0000
  C   C179      1.0  0.01069  0.46652  0.27260  1.0000
  H   H266      1.0  0.01982  0.51705  0.31411  1.0000
  H   H267      1.0  0.03618  0.46292  0.25194  1.0000
  H   H268      1.0  0.01853  0.54276  0.24542  1.0000
  H   H269      1.0  0.01323  0.47392  0.27836  1.0000
  H   H270      1.0  0.00910  0.42623  0.24402  1.0000
  H   H271      1.0  0.01604  0.36581  0.37396  1.0000
  H   H272      1.0  0.00802  0.60297  0.24434  1.0000
  H   H273      1.0  0.01777  0.51590  0.29629  1.0000
  N   N18       1.0  0.01249  0.47259  0.25647  1.0000
  S   S72       1.0  0.00634  0.56441  0.28943  1.0000
  H   H274      1.0  0.00279  0.49221  0.24189  1.0000
  H   H275      1.0  0.00498  0.49545  0.25871  1.0000
  H   H276      1.0  0.00249  0.35703  0.37211  1.0000
  C   C180      1.0  0.00225  0.48739  0.25389  1.0000
  C   C181      1.0  0.04618  0.47166  0.72034  1.0000
  H   H277      1.0  0.05551  0.42435  0.71017  1.0000
  H   H278      1.0  0.06161  0.44051  0.70999  1.0000
  C   C182      1.0  0.00965  0.43369  0.65102  1.0000
  C   C183      1.0  0.05237  0.46978  0.73274  1.0000
  C   C184      1.0  0.05547  0.47217  0.70617  1.0000
  H   H279      1.0  0.03426  0.47266  0.72176  1.0000
  C   C185      1.0  0.07080  0.47121  0.70435  1.0000
  C   C186      1.0  0.07701  0.46898  0.71672  1.0000
  S   S73       1.0  0.03298  0.40662  0.72048  1.0000
  H   H280      1.0  0.07803  0.47153  0.69345  1.0000
  C   C187      1.0  0.04407  0.51509  0.66783  1.0000
  S   S74       1.0  0.04837  0.47371  0.69054  1.0000
  H   H281      1.0  0.03549  0.39149  0.69763  1.0000
  S   S75       1.0  0.00974  0.46869  0.68706  1.0000
  Fe  Fe38      1.0  0.01512  0.44742  0.67896  1.0000
  H   H282      1.0  0.01207  0.39651  0.66356  1.0000
  H   H283      1.0  0.01534  0.41829  0.67076  1.0000
  C   C188      1.0  0.01019  0.40733  0.65631  1.0000
  Fe  Fe39      1.0  0.02568  0.42926  0.70704  1.0000
  S   S76       1.0  0.03789  0.43953  0.68480  1.0000
  Fe  Fe40      1.0  0.03152  0.45984  0.69461  1.0000
  S   S77       1.0  0.02129  0.44876  0.71732  1.0000
  H   H284      1.0  0.06968  0.53197  0.67136  1.0000
  C   C189      1.0  0.02409  0.39300  0.70403  1.0000
  C   C190      1.0  0.01214  0.41965  0.66034  1.0000
  C   C191      1.0  0.01271  0.39125  0.69833  1.0000
  H   H285      1.0  0.04219  0.42402  0.73649  1.0000
  C   C192      1.0  0.05370  0.55121  0.73019  1.0000
  N   N19       1.0  0.05680  0.51598  0.67347  1.0000
  H   H286      1.0  0.04350  0.52323  0.69329  1.0000
  C   C193      1.0  0.06048  0.53069  0.66695  1.0000
  S   S78       1.0  0.01194  0.52813  0.69653  1.0000
  H   H287      1.0  0.06394  0.53252  0.65465  1.0000
  H   H288      1.0  0.00470  0.49995  0.64472  1.0000
  H   H289      1.0  0.04040  0.50445  0.67310  1.0000
  H   H290      1.0  0.03319  0.56790  0.57517  1.0000
  H   H291      1.0  0.03418  0.52428  0.67008  1.0000
  H   H292      1.0  0.06229  0.51368  0.69457  1.0000
  S   S79       1.0  0.00342  0.43520  0.70039  1.0000
  H   H293      1.0  0.06027  0.40163  0.72950  1.0000
  C   C194      1.0  0.00579  0.57509  0.59217  1.0000
  H   H294      1.0  0.07347  0.50542  0.65703  1.0000
  H   H295      1.0  0.04868  0.44010  0.73597  1.0000
  H   H296      1.0  0.07971  0.50433  0.67359  1.0000
  H   H297      1.0  0.05062  0.53983  0.66963  1.0000
  C   C195      1.0  0.05269  0.51396  0.68982  1.0000
  H   H298      1.0  0.00645  0.56465  0.60085  1.0000
  C   C196      1.0  0.00552  0.43525  0.63753  1.0000
  C   C197      1.0  0.04182  0.54839  0.71186  1.0000
  C   C198      1.0  0.06932  0.40580  0.73136  1.0000
  H   H299      1.0  0.08900  0.46749  0.71533  1.0000
  C   C199      1.0  0.06997  0.50419  0.66929  1.0000
  N   N20       1.0  0.00935  0.57196  0.57712  1.0000
  H   H300      1.0  0.07993  0.40127  0.72400  1.0000
  S   S80       1.0  0.03745  0.55482  0.69418  1.0000
  S   S81       1.0  0.01040  0.44969  0.65634  1.0000
  C   C200      1.0  0.03800  0.53543  0.72134  1.0000
  H   H301      1.0  0.03188  0.52934  0.71800  1.0000
  C   C201      1.0  0.04980  0.55615  0.71627  1.0000
  H   H302      1.0  0.04695  0.51586  0.65563  1.0000
  S   S82       1.0  0.00894  0.52516  0.65639  1.0000
  C   C202      1.0  0.07817  0.42721  0.73097  1.0000
  H   H303      1.0  0.04882  0.50345  0.69512  1.0000
  H   H304      1.0  0.01547  0.38794  0.68780  1.0000
  S   S83       1.0  0.00888  0.55881  0.67046  1.0000
  H   H305      1.0  0.00388  0.44604  0.63012  1.0000
  Fe  Fe41      1.0  0.00315  0.53666  0.67548  1.0000
  C   C203      1.0  0.00302  0.42303  0.63378  1.0000
  H   H306      1.0  0.06740  0.49300  0.67388  1.0000
  C   C204      1.0  0.06786  0.46813  0.73094  1.0000
  Fe  Fe42      1.0  0.01580  0.55102  0.69241  1.0000
  C   C205      1.0  0.02050  0.39813  0.71720  1.0000
  N   N21       1.0  0.06591  0.42222  0.72827  1.0000
  C   C206      1.0  0.05019  0.53814  0.73954  1.0000
  H   H307      1.0  0.05277  0.56615  0.70898  1.0000
  H   H308      1.0  0.00820  0.52096  0.62780  1.0000
  H   H309      1.0  0.00729  0.48112  0.65467  1.0000
  H   H310      1.0  0.08916  0.42311  0.72388  1.0000
  C   C207      1.0  0.00860  0.58609  0.56597  1.0000
  H   H311      1.0  0.00280  0.40489  0.73513  1.0000
  C   C208      1.0  0.00528  0.40903  0.64323  1.0000
  C   C209      1.0  0.02460  0.56245  0.57432  1.0000
  H   H312      1.0  0.01708  0.59205  0.56609  1.0000
  H   H313      1.0  0.01362  0.58123  0.59338  1.0000
  H   H314      1.0  0.02547  0.55164  0.58247  1.0000
  C   C210      1.0  0.04252  0.53013  0.73504  1.0000
  H   H315      1.0  0.07607  0.43951  0.72850  1.0000
  H   H316      1.0  0.05959  0.55747  0.73362  1.0000
  H   H317      1.0  0.07510  0.42443  0.70481  1.0000
  C   C211      1.0  0.00562  0.40066  0.72512  1.0000
  C   C212      1.0  0.05165  0.42774  0.73815  1.0000
  H   H318      1.0  0.01063  0.58422  0.55449  1.0000
  C   C213      1.0  0.06450  0.42813  0.71263  1.0000
  H   H319      1.0  0.02763  0.55995  0.56302  1.0000
  S   S84       1.0  0.00174  0.39352  0.63925  1.0000
  H   H320      1.0  0.27836  0.44941  0.96646  1.0000
  S   S85       1.0  0.06463  0.46688  0.78787  1.0000
  S   S86       1.0  0.20895  0.46405  0.90106  1.0000
  H   H321      1.0  0.19458  0.46144  0.88044  1.0000
  S   S87       1.0  0.27098  0.48332  0.98036  1.0000
  H   H322      1.0  0.21650  0.60246  0.90745  1.0000
  H   H323      1.0  0.01904  0.51015  0.74711  1.0000
  H   H324      1.0  0.26984  0.49961  0.93333  1.0000
  H   H325      1.0  0.19718  0.47881  0.85511  1.0000
  C   C214      1.0  0.09317  0.48506  0.85626  1.0000
  H   H326      1.0  0.29596  0.50535  0.96567  1.0000
  C   C215      1.0  0.23523  0.45740  0.97230  1.0000
  H   H327      1.0  0.26482  0.48228  0.94228  1.0000
  H   H328      1.0  0.17086  0.47728  0.87333  1.0000
  S   S88       1.0  0.22543  0.43291  0.92059  1.0000
  H   H329      1.0  0.09794  0.45894  0.84847  1.0000
  Fe  Fe43      1.0  0.21793  0.44052  0.89878  1.0000
  S   S89       1.0  0.27062  0.42610  0.91009  1.0000
  H   H330      1.0  0.10085  0.50764  0.77667  1.0000
  S   S90       1.0  0.20314  0.42957  0.89252  1.0000
  Fe  Fe44      1.0  0.24729  0.43852  0.90702  1.0000
  C   C216      1.0  0.28726  0.52426  0.91167  1.0000
  H   H331      1.0  0.12291  0.48140  0.85087  1.0000
  C   C217      1.0  0.20933  0.47840  0.85050  1.0000
  H   H332      1.0  0.07847  0.53124  0.79261  1.0000
  N   N22       1.0  0.24911  0.49762  0.92972  1.0000
  S   S91       1.0  0.11886  0.54741  0.98576  1.0000
  H   H333      1.0  0.22085  0.47626  0.98081  1.0000
  S   S92       1.0  0.24073  0.46205  0.90987  1.0000
  Fe  Fe45      1.0  0.14084  0.49405  0.86443  1.0000
  H   H334      1.0  0.22890  0.49097  0.93081  1.0000
  C   C218      1.0  0.11047  0.49133  0.81279  1.0000
  H   H335      1.0  0.25512  0.49842  0.94953  1.0000
  S   S93       1.0  0.14297  0.46963  0.87377  1.0000
  H   H336      1.0  0.31536  0.60743  0.96009  1.0000
  C   C219      1.0  0.11892  0.47154  0.85084  1.0000
  C   C220      1.0  0.22272  0.46926  0.97307  1.0000
  S   S94       1.0  0.09506  0.48020  0.79956  1.0000
  S   S95       1.0  0.29441  0.46485  0.93885  1.0000
  C   C221      1.0  0.15993  0.45904  0.87879  1.0000
  H   H337      1.0  0.02098  0.51911  0.76911  1.0000
  C   C222      1.0  0.29309  0.43571  0.91545  1.0000
  H   H338      1.0  0.30915  0.49336  0.97665  1.0000
  C   C223      1.0  0.10434  0.51792  0.77639  1.0000
  H   H339      1.0  0.24194  0.47726  0.94048  1.0000
  H   H340      1.0  0.30070  0.42942  0.90749  1.0000
  C   C224      1.0  0.20424  0.49397  0.82717  1.0000
  N   N23       1.0  0.16759  0.45500  0.96873  1.0000
  H   H341      1.0  0.26561  0.49868  0.90927  1.0000
  Fe  Fe46      1.0  0.06723  0.47637  0.76338  1.0000
  H   H342      1.0  0.26052  0.61914  0.94520  1.0000
  H   H343      1.0  0.08194  0.48543  0.86378  1.0000
  S   S96       1.0  0.20446  0.46810  0.94011  1.0000
  C   C225      1.0  0.16142  0.44372  0.88407  1.0000
  C   C226      1.0  0.17475  0.43484  0.88814  1.0000
  C   C227      1.0  0.18666  0.44120  0.88715  1.0000
  H   H344      1.0  0.15226  0.43866  0.88498  1.0000
  H   H345      1.0  0.17580  0.42299  0.89219  1.0000
  S   S97       1.0  0.24870  0.45475  0.98265  1.0000
  C   C228      1.0  0.27335  0.45221  0.93569  1.0000
  H   H346      1.0  0.27749  0.62566  0.93668  1.0000
  H   H347      1.0  0.32830  0.64073  0.92216  1.0000
  H   H348      1.0  0.21108  0.64345  0.89309  1.0000
  H   H349      1.0  0.10917  0.47960  0.87722  1.0000
  H   H350      1.0  0.24710  0.43882  0.96197  1.0000
  Fe  Fe47      1.0  0.23189  0.46706  0.88923  1.0000
  H   H351      1.0  0.21407  0.46839  0.84550  1.0000
  H   H352      1.0  0.09436  0.46968  0.88416  1.0000
  H   H353      1.0  0.26162  0.48064  0.91746  1.0000
  C   C229      1.0  0.22796  0.49113  0.83360  1.0000
  H   H354      1.0  0.23392  0.48987  0.84259  1.0000
  H   H355      1.0  0.20743  0.51550  0.83881  1.0000
  H   H356      1.0  0.19291  0.50654  0.85063  1.0000
  H   H357      1.0  0.20908  0.48466  0.82119  1.0000
  C   C230      1.0  0.00787  0.50821  0.75344  1.0000
  H   H358      1.0  0.00436  0.52338  0.78293  1.0000
  N   N24       1.0  0.10408  0.47123  0.86084  1.0000
  H   H359      1.0  0.26568  0.45811  0.94388  1.0000
  H   H360      1.0  0.20526  0.50456  0.81897  1.0000
  N   N25       1.0  0.29051  0.42829  0.97655  1.0000
  H   H361      1.0  0.31021  0.44476  0.91865  1.0000
  Fe  Fe48      1.0  0.21829  0.45710  0.92143  1.0000
  C   C231      1.0  0.23721  0.48944  0.93764  1.0000
  S   S98       1.0  0.32646  0.47686  0.94569  1.0000
  H   H362      1.0  0.23414  0.51677  0.91964  1.0000
  C   C232      1.0  0.31504  0.45974  0.98761  1.0000
  C   C233      1.0  0.17188  0.46549  0.87757  1.0000
  H   H363      1.0  0.27048  0.65016  0.95423  1.0000
  C   C234      1.0  0.00794  0.47720  0.79928  1.0000
  H   H364      1.0  0.19200  0.49438  0.83128  1.0000
  S   S99       1.0  0.24039  0.44403  0.88500  1.0000
  C   C235      1.0  0.27777  0.43566  0.91896  1.0000
  C   C236      1.0  0.18525  0.45655  0.88174  1.0000
  Fe  Fe49      1.0  0.07555  0.48478  0.78832  1.0000
  H   H365      1.0  0.12296  0.50010  0.82293  1.0000
  H   H366      1.0  0.15969  0.47800  0.97012  1.0000
  H   H367      1.0  0.22968  0.44414  0.94509  1.0000
  C   C237      1.0  0.23746  0.44805  0.96255  1.0000
  H   H368      1.0  0.10548  0.51741  0.78781  1.0000
  H   H369      1.0  0.23012  0.50132  0.82525  1.0000
  C   C238      1.0  0.21538  0.46323  0.95343  1.0000
  C   C239      1.0  0.22762  0.45108  0.95298  1.0000
  H   H370      1.0  0.25124  0.52031  0.92099  1.0000
  C   C240      1.0  0.29846  0.44440  0.92174  1.0000
  Fe  Fe50      1.0  0.31913  0.46072  0.93751  1.0000
  H   H371      1.0  0.25636  0.44309  0.93259  1.0000
  C   C241      1.0  0.26803  0.44363  0.92936  1.0000
  C   C242      1.0  0.32099  0.62341  0.94007  1.0000
  H   H372      1.0  0.18615  0.61753  0.89950  1.0000
  H   H373      1.0  0.11858  0.47195  0.83920  1.0000
  C   C243      1.0  0.28848  0.45296  0.93159  1.0000
  C   C244      1.0  0.16957  0.47044  0.96467  1.0000
  H   H374      1.0  0.07046  0.40098  0.74307  1.0000
  C   C245      1.0  0.10530  0.47001  0.87624  1.0000
  N   N26       1.0  0.21171  0.49212  0.83949  1.0000
  H   H375      1.0  0.08424  0.54188  0.75164  1.0000
  C   C246      1.0  0.01103  0.47337  0.78545  1.0000
  H   H376      1.0  0.09692  0.49509  0.85629  1.0000
  C   C247      1.0  0.26022  0.49437  0.93907  1.0000
  H   H377      1.0  0.25990  0.63873  0.94009  1.0000
  H   H378      1.0  0.23325  0.48142  0.82824  1.0000
  C   C248      1.0  0.18084  0.44541  0.96106  1.0000
  H   H379      1.0  0.09168  0.48611  0.84483  1.0000
  H   H380      1.0  0.28806  0.63716  0.95059  1.0000
  C   C249      1.0  0.32872  0.63487  0.93347  1.0000
  H   H381      1.0  0.11994  0.48268  0.80941  1.0000
  H   H382      1.0  0.27228  0.60354  0.96602  1.0000
  H   H383      1.0  0.10936  0.54530  0.76436  1.0000
  H   H384      1.0  0.31330  0.52274  0.95585  1.0000
  H   H385      1.0  0.23109  0.49309  0.94818  1.0000
  H   H386      1.0  0.23675  0.51778  0.93721  1.0000
  S   S100      1.0  0.23242  0.48842  0.87277  1.0000
  H   H387      1.0  0.08779  0.45772  0.86738  1.0000
  H   H388      1.0  0.01200  0.50461  0.78084  1.0000
  H   H389      1.0  0.12759  0.46155  0.85432  1.0000
  H   H390      1.0  0.09002  0.55512  0.76784  1.0000
  C   C250      1.0  0.21263  0.47208  0.96377  1.0000
  C   C251      1.0  0.24252  0.51379  0.92676  1.0000
  S   S101      1.0  0.08001  0.49274  0.76360  1.0000
  H   H391      1.0  0.31894  0.53000  0.96844  1.0000
  H   H392      1.0  0.29223  0.53902  0.97955  1.0000
  S   S102      1.0  0.21098  0.61314  0.98574  1.0000
  H   H393      1.0  0.17956  0.47123  0.96817  1.0000
  H   H394      1.0  0.11364  0.45982  0.87999  1.0000
  H   H395      1.0  0.17110  0.47480  0.95249  1.0000
  C   C252      1.0  0.09897  0.45831  0.85999  1.0000
  N   N27       1.0  0.26889  0.62729  0.95956  1.0000
  C   C253      1.0  0.20527  0.50504  0.84665  1.0000
  C   C254      1.0  0.25652  0.49279  0.91555  1.0000
  H   H396      1.0  0.22106  0.48756  0.90406  1.0000
  H   H397      1.0  0.00950  0.49643  0.75953  1.0000
  C   C255      1.0  0.09661  0.49269  0.80935  1.0000
  C   C256      1.0  0.28981  0.52877  0.97824  1.0000
  H   H398      1.0  0.07369  0.50502  0.81113  1.0000
  H   H399      1.0  0.21023  0.50385  0.85631  1.0000
  C   C257      1.0  0.22873  0.60110  0.98415  1.0000
  H   H400      1.0  0.24839  0.49502  0.90827  1.0000
  H   H401      1.0  0.21482  0.47664  0.85997  1.0000
  H   H402      1.0  0.20310  0.48143  0.96423  1.0000
  H   H403      1.0  0.12883  0.57455  0.97879  1.0000
  C   C258      1.0  0.22021  0.49890  0.89830  1.0000
  H   H404      1.0  0.17976  0.43367  0.96385  1.0000
  C   C259      1.0  0.09256  0.53191  0.75585  1.0000
  S   S103      1.0  0.33317  0.44029  0.94931  1.0000
  H   H405      1.0  0.10700  0.44770  0.86332  1.0000
  Fe  Fe51      1.0  0.12142  0.51903  0.84606  1.0000
  S   S104      1.0  0.11819  0.50881  0.87040  1.0000
  S   S105      1.0  0.10166  0.52460  0.83492  1.0000
  Fe  Fe52      1.0  0.15381  0.51942  0.84396  1.0000
  H   H406      1.0  0.19102  0.48976  0.91709  1.0000
  S   S106      1.0  0.17448  0.52496  0.82797  1.0000
  H   H407      1.0  0.19130  0.44555  0.96418  1.0000
  H   H408      1.0  0.21373  0.60987  0.92342  1.0000
  Fe  Fe53      1.0  0.13113  0.52451  0.87183  1.0000
  S   S107      1.0  0.12570  0.53672  0.89038  1.0000
  Fe  Fe54      1.0  0.04322  0.48442  0.78950  1.0000
  S   S108      1.0  0.13230  0.53636  0.84802  1.0000
  H   H409      1.0  0.27976  0.61170  0.97643  1.0000
  S   S109      1.0  0.07642  0.46217  0.74630  1.0000
  C   C260      1.0  0.11221  0.50119  0.82044  1.0000
  H   H410      1.0  0.30000  0.41128  0.96369  1.0000
  Fe  Fe55      1.0  0.28948  0.57385  0.95790  1.0000
  S   S110      1.0  0.28366  0.59096  0.93787  1.0000
  N   N28       1.0  0.30301  0.51618  0.97881  1.0000
  Fe  Fe56      1.0  0.32144  0.56291  0.94224  1.0000
  S   S111      1.0  0.31861  0.57901  0.92085  1.0000
  S   S112      1.0  0.31070  0.61866  0.92978  1.0000
  Fe  Fe57      1.0  0.30640  0.59550  0.93543  1.0000
  H   H411      1.0  0.07473  0.52106  0.78126  1.0000
  Fe  Fe58      1.0  0.29634  0.57297  0.92521  1.0000
  S   S113      1.0  0.28986  0.56430  0.90866  1.0000
  S   S114      1.0  0.31113  0.57975  0.95643  1.0000
  S   S115      1.0  0.30025  0.55553  0.94559  1.0000
  Fe  Fe59      1.0  0.18463  0.58972  0.88484  1.0000
  S   S116      1.0  0.20123  0.59688  0.86436  1.0000
  S   S117      1.0  0.16124  0.60400  0.88951  1.0000
  Fe  Fe60      1.0  0.20575  0.56026  0.89343  1.0000
  S   S118      1.0  0.22432  0.56487  0.87377  1.0000
  S   S119      1.0  0.20617  0.53860  0.90975  1.0000
  Fe  Fe61      1.0  0.21834  0.58760  0.87876  1.0000
  S   S120      1.0  0.23441  0.60083  0.87932  1.0000
  Fe  Fe62      1.0  0.20557  0.57350  0.86131  1.0000
  S   S121      1.0  0.20752  0.56874  0.83902  1.0000
  S   S122      1.0  0.20137  0.58219  0.89958  1.0000
  S   S123      1.0  0.18759  0.56718  0.88057  1.0000
  Fe  Fe63      1.0  0.19625  0.60444  0.97693  1.0000
  S   S124      1.0  0.19461  0.60932  0.95318  1.0000
  S   S125      1.0  0.20223  0.57984  0.97904  1.0000
  Fe  Fe64      1.0  0.05744  0.50812  0.76734  1.0000
  S   S126      1.0  0.17421  0.58386  0.96366  1.0000
  C   C261      1.0  0.14009  0.56926  0.86135  1.0000
  Fe  Fe65      1.0  0.19835  0.58475  0.95614  1.0000
  S   S127      1.0  0.21332  0.57459  0.93747  1.0000
  Fe  Fe66      1.0  0.17047  0.60837  0.96206  1.0000
  S   S128      1.0  0.15387  0.62448  0.94909  1.0000
  C   C262      1.0  0.15022  0.56633  0.88284  1.0000
  C   C263      1.0  0.29617  0.42356  0.96216  1.0000
  H   H412      1.0  0.09882  0.54467  0.78310  1.0000
  H   H413      1.0  0.28728  0.42708  0.95552  1.0000
  H   H414      1.0  0.15982  0.55734  0.87933  1.0000
  H   H415      1.0  0.18618  0.64449  0.91064  1.0000
  H   H416      1.0  0.18130  0.53619  0.98825  1.0000
  H   H417      1.0  0.14931  0.56020  0.85733  1.0000
  H   H418      1.0  0.00482  0.42298  0.74920  1.0000
  H   H419      1.0  0.11567  0.51750  0.76905  1.0000
  S   S129      1.0  0.26660  0.52124  0.95356  1.0000
  H   H420      1.0  0.29903  0.49701  0.92661  1.0000
  H   H421      1.0  0.13064  0.56407  0.86826  1.0000
  H   H422      1.0  0.12298  0.58418  0.88252  1.0000
  H   H423      1.0  0.06972  0.54091  0.77712  1.0000
  C   C264      1.0  0.32985  0.61993  0.96265  1.0000
  Fe  Fe67      1.0  0.17751  0.58160  0.98647  1.0000
  S   S130      1.0  0.14278  0.51043  0.97394  1.0000
  S   S131      1.0  0.04493  0.49250  0.76493  1.0000
  Fe  Fe68      1.0  0.12624  0.49897  0.97152  1.0000
  H   H424      1.0  0.31805  0.49661  0.91670  1.0000
  C   C265      1.0  0.25712  0.58174  0.98194  1.0000
  H   H425      1.0  0.15386  0.57191  0.88968  1.0000
  H   H426      1.0  0.16457  0.54126  0.95601  1.0000
  H   H427      1.0  0.13618  0.57697  0.85147  1.0000
  C   C266      1.0  0.16720  0.49012  0.90603  1.0000
  H   H428      1.0  0.16736  0.57525  0.85608  1.0000
  C   C267      1.0  0.30569  0.52266  0.92551  1.0000
  H   H429      1.0  0.30395  0.49765  0.90696  1.0000
  H   H430      1.0  0.28007  0.52628  0.98722  1.0000
  H   H431      1.0  0.28479  0.53659  0.90917  1.0000
  C   C268      1.0  0.16601  0.44960  0.98496  1.0000
  H   H432      1.0  0.20388  0.61680  0.88678  1.0000
  H   H433      1.0  0.22050  0.63301  0.90800  1.0000
  C   C269      1.0  0.15763  0.58377  0.86029  1.0000
  C   C270      1.0  0.16186  0.51635  0.90588  1.0000
  C   C271      1.0  0.22834  0.56041  0.94255  1.0000
  C   C272      1.0  0.24171  0.55789  0.93207  1.0000
  C   C273      1.0  0.25371  0.54626  0.93572  1.0000
  C   C274      1.0  0.25213  0.53673  0.94966  1.0000
  C   C275      1.0  0.23874  0.53923  0.96022  1.0000
  C   C276      1.0  0.22692  0.55126  0.95674  1.0000
  H   H434      1.0  0.24285  0.56507  0.92114  1.0000
  H   H435      1.0  0.26410  0.54471  0.92766  1.0000
  H   H436      1.0  0.21659  0.55322  0.96484  1.0000
  H   H437      1.0  0.28910  0.61024  0.95771  1.0000
  H   H438      1.0  0.22373  0.62586  0.89166  1.0000
  H   H439      1.0  0.31127  0.53593  0.89693  1.0000
  H   H440      1.0  0.19889  0.60354  0.92034  1.0000
  H   H441      1.0  0.14826  0.58141  0.98685  1.0000
  C   C277      1.0  0.32149  0.61604  0.95474  1.0000
  S   S132      1.0  0.17153  0.60607  0.98589  1.0000
  S   S133      1.0  0.27500  0.56996  0.98072  1.0000
  H   H442      1.0  0.24707  0.64105  0.96608  1.0000
  H   H443      1.0  0.24776  0.62151  0.97075  1.0000
  C   C278      1.0  0.15767  0.60907  0.90667  1.0000
  C   C279      1.0  0.14721  0.62208  0.90960  1.0000
  C   C280      1.0  0.14568  0.62670  0.92284  1.0000
  C   C281      1.0  0.15479  0.61845  0.93295  1.0000
  C   C282      1.0  0.16517  0.60556  0.92983  1.0000
  C   C283      1.0  0.16617  0.60059  0.91709  1.0000
  H   H444      1.0  0.14054  0.62870  0.90156  1.0000
  H   H445      1.0  0.13768  0.63678  0.92510  1.0000
  H   H446      1.0  0.17283  0.59956  0.93694  1.0000
  H   H447      1.0  0.17365  0.59020  0.91533  1.0000
  C   C284      1.0  0.21265  0.52488  0.89925  1.0000
  C   C285      1.0  0.21603  0.52858  0.88372  1.0000
  C   C286      1.0  0.22224  0.51741  0.87549  1.0000
  C   C287      1.0  0.13257  0.58886  0.87514  1.0000
  H   H448      1.0  0.14377  0.46164  0.96985  1.0000
  C   C288      1.0  0.21449  0.51004  0.90650  1.0000
  H   H449      1.0  0.21393  0.54000  0.87795  1.0000
  H   H450      1.0  0.22524  0.52035  0.86350  1.0000
  H   H451      1.0  0.18248  0.44921  0.94878  1.0000
  H   H452      1.0  0.21130  0.50719  0.91846  1.0000
  N   N29       1.0  0.09337  0.53144  0.77120  1.0000
  H   H453      1.0  0.28122  0.44866  0.98442  1.0000
  H   H454      1.0  0.17950  0.50762  0.88130  1.0000
  C   C289      1.0  0.12795  0.49876  0.92171  1.0000
  H   H455      1.0  0.16098  0.49239  0.89703  1.0000
  C   C290      1.0  0.27392  0.57449  0.90133  1.0000
  C   C291      1.0  0.26760  0.56761  0.89405  1.0000
  C   C292      1.0  0.25514  0.57550  0.88776  1.0000
  C   C293      1.0  0.24924  0.59048  0.88825  1.0000
  C   C294      1.0  0.25559  0.59743  0.89544  1.0000
  C   C295      1.0  0.26778  0.58939  0.90217  1.0000
  H   H456      1.0  0.27235  0.55619  0.89313  1.0000
  H   H457      1.0  0.25042  0.57011  0.88210  1.0000
  H   H458      1.0  0.25113  0.60905  0.89576  1.0000
  H   H459      1.0  0.27268  0.59482  0.90763  1.0000
  H   H460      1.0  0.22583  0.55560  0.98935  1.0000
  S   S134      1.0  0.23615  0.49875  0.97843  1.0000
  H   H461      1.0  0.30569  0.42860  0.95528  1.0000
  H   H462      1.0  0.19108  0.63437  0.88816  1.0000
  C   C296      1.0  0.23496  0.59453  0.97177  1.0000
  C   C297      1.0  0.24929  0.58503  0.97055  1.0000
  H   H463      1.0  0.27939  0.52084  0.92216  1.0000
  C   C298      1.0  0.09812  0.54473  0.77162  1.0000
  H   H464      1.0  0.22882  0.59691  0.96304  1.0000
  H   H465      1.0  0.25412  0.58003  0.96092  1.0000
  N   N30       1.0  0.17379  0.50270  0.90515  1.0000
  N   N31       1.0  0.20241  0.62452  0.90638  1.0000
  C   C299      1.0  0.31301  0.52359  0.89913  1.0000
  N   N32       1.0  0.14513  0.57705  0.86989  1.0000
  S   S135      1.0  0.14316  0.50303  0.83996  1.0000
  C   C300      1.0  0.00989  0.51631  0.77459  1.0000
  S   S136      1.0  0.12938  0.49036  0.95093  1.0000
  H   H466      1.0  0.05234  0.42370  0.75004  1.0000
  C   C301      1.0  0.12466  0.52418  0.90763  1.0000
  C   C302      1.0  0.12275  0.52916  0.92069  1.0000
  C   C303      1.0  0.12370  0.51889  0.93422  1.0000
  C   C304      1.0  0.12651  0.50365  0.93467  1.0000
  H   H467      1.0  0.27907  0.63873  0.96935  1.0000
  C   C305      1.0  0.12711  0.50897  0.90822  1.0000
  H   H468      1.0  0.12089  0.54091  0.92030  1.0000
  H   H469      1.0  0.12253  0.52274  0.94423  1.0000
  H   H470      1.0  0.18152  0.62767  0.92222  1.0000
  H   H471      1.0  0.12863  0.50500  0.89823  1.0000
  C   C306      1.0  0.26658  0.62773  0.94473  1.0000
  H   H472      1.0  0.15415  0.59198  0.85046  1.0000
  C   C307      1.0  0.19558  0.62329  0.89469  1.0000
  C   C308      1.0  0.21497  0.63209  0.89950  1.0000
  H   H473      1.0  0.07928  0.42337  0.74278  1.0000
  C   C309      1.0  0.18265  0.53759  0.83165  1.0000
  C   C310      1.0  0.18020  0.54020  0.84596  1.0000
  C   C311      1.0  0.18801  0.54950  0.84857  1.0000
  C   C312      1.0  0.19787  0.55649  0.83680  1.0000
  C   C313      1.0  0.20016  0.55382  0.82259  1.0000
  C   C314      1.0  0.19273  0.54430  0.82006  1.0000
  H   H474      1.0  0.17263  0.53480  0.85502  1.0000
  H   H475      1.0  0.18648  0.55119  0.85963  1.0000
  H   H476      1.0  0.20779  0.55911  0.81347  1.0000
  H   H477      1.0  0.19475  0.54222  0.80903  1.0000
  C   C315      1.0  0.08621  0.51387  0.82123  1.0000
  C   C316      1.0  0.10006  0.51244  0.82477  1.0000
  H   H478      1.0  0.15580  0.51914  0.89666  1.0000
  H   H479      1.0  0.07673  0.52251  0.82464  1.0000
  H   H480      1.0  0.28612  0.53143  0.96752  1.0000
  Fe  Fe69      1.0  0.25751  0.50622  0.97426  1.0000
  H   H481      1.0  0.18997  0.51447  0.89004  1.0000
  C   C317      1.0  0.31585  0.52011  0.96708  1.0000
  C   C318      1.0  0.27694  0.63886  0.95841  1.0000
  C   C319      1.0  0.18124  0.49938  0.91778  1.0000
  H   H482      1.0  0.15475  0.45886  0.95207  1.0000
  H   H483      1.0  0.23748  0.53194  0.97104  1.0000
  C   C320      1.0  0.19101  0.63321  0.91660  1.0000
  H   H484      1.0  0.13612  0.59496  0.88159  1.0000
  H   H485      1.0  0.16115  0.53802  0.97588  1.0000
  C   C321      1.0  0.28651  0.44467  0.97390  1.0000
  H   H486      1.0  0.25543  0.62940  0.98126  1.0000
  H   H487      1.0  0.15218  0.44309  0.96698  1.0000
  H   H488      1.0  0.15911  0.48785  0.91676  1.0000
  H   H489      1.0  0.30382  0.53498  0.92350  1.0000
  C   C322      1.0  0.15400  0.45457  0.96423  1.0000
  C   C323      1.0  0.07843  0.53117  0.78100  1.0000
  H   H490      1.0  0.19580  0.63451  0.92548  1.0000
  C   C324      1.0  0.22457  0.50252  0.88283  1.0000
  S   S137      1.0  0.05526  0.53235  0.75691  1.0000
  H   H491      1.0  0.02225  0.47243  0.77866  1.0000
  C   C325      1.0  0.08446  0.50399  0.81359  1.0000
  H   H492      1.0  0.28469  0.52081  0.90258  1.0000
  N   N33       1.0  0.30303  0.51800  0.91307  1.0000
  C   C326      1.0  0.30611  0.50161  0.91596  1.0000
  H   H493      1.0  0.16509  0.55537  0.96490  1.0000
  H   H494      1.0  0.17597  0.47972  0.90514  1.0000
  H   H495      1.0  0.19409  0.49504  0.89002  1.0000
  H   H496      1.0  0.33022  0.61416  0.97400  1.0000
  S   S138      1.0  0.02167  0.48146  0.80563  1.0000
  H   H497      1.0  0.13001  0.48699  0.92203  1.0000
  H   H498      1.0  0.29795  0.51910  0.93611  1.0000
  C   C327      1.0  0.20810  0.60951  0.91477  1.0000
  C   C328      1.0  0.27790  0.61256  0.96519  1.0000
  S   S139      1.0  0.05386  0.50151  0.79212  1.0000
  H   H499      1.0  0.31095  0.52072  0.88942  1.0000
  H   H500      1.0  0.18531  0.50906  0.91814  1.0000
  H   H501      1.0  0.16176  0.58970  0.86638  1.0000
  H   H502      1.0  0.15350  0.51507  0.91653  1.0000
  H   H503      1.0  0.31534  0.45425  0.97900  1.0000
  N   N34       1.0  0.18429  0.53698  0.96496  1.0000
  C   C329      1.0  0.19302  0.54378  0.95072  1.0000
  C   C330      1.0  0.18843  0.54024  0.97742  1.0000
  C   C331      1.0  0.18758  0.52071  0.96632  1.0000
  C   C332      1.0  0.16808  0.54317  0.96543  1.0000
  H   H504      1.0  0.19079  0.55607  0.94928  1.0000
  H   H505      1.0  0.19021  0.54160  0.94103  1.0000
  H   H506      1.0  0.20531  0.53946  0.94992  1.0000
  H   H507      1.0  0.29650  0.44953  0.96855  1.0000
  H   H508      1.0  0.20031  0.53487  0.97811  1.0000
  H   H509      1.0  0.18688  0.55238  0.97636  1.0000
  H   H510      1.0  0.18477  0.51783  0.95702  1.0000
  H   H511      1.0  0.18100  0.51528  0.97686  1.0000
  C   C333      1.0  0.25416  0.62996  0.96986  1.0000
  H   H512      1.0  0.31739  0.51785  0.92712  1.0000
  H   H513      1.0  0.14107  0.56094  0.89019  1.0000
  H   H514      1.0  0.16648  0.52608  0.90510  1.0000
  H   H515      1.0  0.12838  0.59718  0.86571  1.0000
  C   C334      1.0  0.18482  0.50504  0.89101  1.0000
  H   H516      1.0  0.19966  0.51561  0.96635  1.0000
  S   S140      1.0  0.15361  0.50886  0.86787  1.0000
  H   H517      1.0  0.32501  0.51874  0.89957  1.0000
  H   H518      1.0  0.17342  0.49664  0.92859  1.0000
  H   H519      1.0  0.31260  0.42676  0.97955  1.0000
  H   H520      1.0  0.00993  0.53653  0.74898  1.0000
  H   H521      1.0  0.08891  0.52206  0.75521  1.0000
  H   H522      1.0  0.28998  0.49964  0.98535  1.0000
  H   H523      1.0  0.32595  0.51080  0.96730  1.0000
  H   H524      1.0  0.27964  0.41006  0.98708  1.0000
  C   C335      1.0  0.13487  0.56662  0.98679  1.0000
  Fe  Fe70      1.0  0.24920  0.47620  0.98737  1.0000
  H   H525      1.0  0.26807  0.42641  0.97808  1.0000
  C   C336      1.0  0.29939  0.50306  0.97647  1.0000
  H   H526      1.0  0.10361  0.53211  0.74809  1.0000
  C   C337      1.0  0.27705  0.42241  0.98465  1.0000
  H   H527      1.0  0.04002  0.51994  0.74216  1.0000
  S   S141      1.0  0.10599  0.51295  0.98378  1.0000
  H   H528      1.0  0.30542  0.41027  0.98794  1.0000
  H   H529      1.0  0.04529  0.46894  0.74375  1.0000
  C   C338      1.0  0.30224  0.42263  0.98547  1.0000
  Fe  Fe71      1.0  0.12293  0.52277  0.98815  1.0000
  H   H530      1.0  0.17602  0.45006  0.98869  1.0000
  H   H531      1.0  0.16459  0.43796  0.98848  1.0000
  H   H532      1.0  0.00190  0.46788  0.76970  1.0000
  C   C339      1.0  0.32842  0.46118  0.98999  1.0000
  H   H533      1.0  0.15616  0.45658  0.99113  1.0000
  C   C340      1.0  0.14598  0.57045  0.99124  1.0000
  C   C341      1.0  0.05419  0.71219  0.35757  1.0000
  H   H534      1.0  0.02895  0.70282  0.34430  1.0000
  H   H535      1.0  0.06261  0.70930  0.42518  1.0000
  H   H536      1.0  0.06038  0.71867  0.44767  1.0000
  H   H537      1.0  0.05117  0.68474  0.37356  1.0000
  H   H538      1.0  0.05245  0.69562  0.42609  1.0000
  H   H539      1.0  0.08683  0.86707  0.48023  1.0000
  H   H540      1.0  0.04264  0.71439  0.42668  1.0000
  H   H541      1.0  0.04719  0.71316  0.46433  1.0000
  H   H542      1.0  0.03570  0.68428  0.36623  1.0000
  H   H543      1.0  0.05811  0.72018  0.34737  1.0000
  C   C342      1.0  0.03517  0.69749  0.45322  1.0000
  C   C343      1.0  0.13449  0.98477  0.47467  1.0000
  Fe  Fe72      1.0  0.02412  0.73355  0.40578  1.0000
  C   C344      1.0  0.04179  0.69177  0.36818  1.0000
  C   C345      1.0  0.01702  0.79987  0.36265  1.0000
  H   H544      1.0  0.26206  0.95377  0.47568  1.0000
  H   H545      1.0  0.06255  0.70022  0.33335  1.0000
  H   H546      1.0  0.06401  0.70623  0.36274  1.0000
  H   H547      1.0  0.06233  0.67939  0.44792  1.0000
  H   H548      1.0  0.07305  0.69262  0.44678  1.0000
  S   S142      1.0  0.04856  0.72882  0.39498  1.0000
  H   H549      1.0  0.06822  0.68645  0.34893  1.0000
  H   H550      1.0  0.02567  0.70665  0.44997  1.0000
  C   C346      1.0  0.05200  0.70543  0.43045  1.0000
  N   N35       1.0  0.04966  0.70193  0.44681  1.0000
  C   C347      1.0  0.04949  0.71521  0.45199  1.0000
  H   H551      1.0  0.06048  0.68683  0.46385  1.0000
  C   C348      1.0  0.06194  0.68963  0.45154  1.0000
  C   C349      1.0  0.03440  0.71027  0.34718  1.0000
  H   H552      1.0  0.28742  0.98021  0.37997  1.0000
  H   H553      1.0  0.03788  0.71839  0.33689  1.0000
  H   H554      1.0  0.02561  0.71667  0.35477  1.0000
  H   H555      1.0  0.21601  0.86545  0.48176  1.0000
  H   H556      1.0  0.05340  0.68494  0.34137  1.0000
  N   N36       1.0  0.04719  0.70179  0.35424  1.0000
  C   C350      1.0  0.05835  0.69294  0.34401  1.0000
  H   H557      1.0  0.03382  0.69818  0.37634  1.0000
  H   H558      1.0  0.04611  0.71890  0.36542  1.0000
  H   H559      1.0  0.02412  0.73998  0.36604  1.0000
  H   H560      1.0  0.32009  0.90557  0.39228  1.0000
  S   S143      1.0  0.06918  0.73895  0.42049  1.0000
  H   H561      1.0  0.13427  0.87949  0.45371  1.0000
  C   C351      1.0  0.32239  0.95429  0.37575  1.0000
  S   S144      1.0  0.10440  0.88812  0.47686  1.0000
  C   C352      1.0  0.18277  0.96810  0.44748  1.0000
  C   C353      1.0  0.31233  0.98837  0.46574  1.0000
  S   S145      1.0  0.02322  0.76038  0.47996  1.0000
  C   C354      1.0  0.13468  0.95983  0.47298  1.0000
  C   C355      1.0  0.21249  0.99048  0.42410  1.0000
  H   H562      1.0  0.04664  0.76078  0.32366  1.0000
  Fe  Fe73      1.0  0.07086  0.81465  0.43907  1.0000
  S   S146      1.0  0.07547  0.82578  0.45478  1.0000
  S   S147      1.0  0.08565  0.79245  0.43533  1.0000
  Fe  Fe74      1.0  0.04534  0.84025  0.43082  1.0000
  S   S148      1.0  0.06997  0.83496  0.42082  1.0000
  S   S149      1.0  0.04611  0.81895  0.44788  1.0000
  S   S150      1.0  0.13751  0.90984  0.45007  1.0000
  H   H563      1.0  0.13709  0.87848  0.43464  1.0000
  C   C356      1.0  0.30229  0.93623  0.37977  1.0000
  S   S151      1.0  0.17819  0.88513  0.45381  1.0000
  Fe  Fe75      1.0  0.23883  0.92551  0.41507  1.0000
  S   S152      1.0  0.24144  0.92229  0.43841  1.0000
  S   S153      1.0  0.21591  0.93000  0.41030  1.0000
  Fe  Fe76      1.0  0.27189  0.92475  0.40216  1.0000
  S   S154      1.0  0.27729  0.92198  0.42422  1.0000
  Fe  Fe77      1.0  0.26256  0.90565  0.43165  1.0000
  H   H564      1.0  0.15666  0.84168  0.46542  1.0000
  Fe  Fe78      1.0  0.25594  0.93890  0.42854  1.0000
  S   S155      1.0  0.25413  0.95856  0.43794  1.0000
  S   S156      1.0  0.25849  0.90721  0.40923  1.0000
  S   S157      1.0  0.25190  0.94328  0.40554  1.0000
  C   C357      1.0  0.07601  0.78496  0.47796  1.0000
  C   C358      1.0  0.25051  0.98334  0.47150  1.0000
  N   N37       1.0  0.26574  0.97537  0.47381  1.0000
  N   N38       1.0  0.26374  0.98358  0.38128  1.0000
  H   H565      1.0  0.24240  0.98990  0.43779  1.0000
  H   H566      1.0  0.10250  0.76442  0.42976  1.0000
  C   C359      1.0  0.09234  0.86971  0.44301  1.0000
  Fe  Fe79      1.0  0.02300  0.76664  0.40170  1.0000
  C   C360      1.0  0.00569  0.83247  0.46464  1.0000
  S   S158      1.0  0.29009  0.92473  0.38179  1.0000
  C   C361      1.0  0.03694  0.75678  0.33066  1.0000
  H   H567      1.0  0.05557  0.82994  0.39754  1.0000
  C   C362      1.0  0.30023  0.94510  0.39000  1.0000
  Fe  Fe80      1.0  0.13810  0.90995  0.49061  1.0000
  S   S159      1.0  0.00938  0.78972  0.40265  1.0000
  H   H568      1.0  0.03758  0.79814  0.41584  1.0000
  H   H569      1.0  0.24075  0.99150  0.37883  1.0000
  C   C363      1.0  0.23751  0.97076  0.43394  1.0000
  H   H570      1.0  0.02522  0.80345  0.35245  1.0000
  H   H571      1.0  0.30584  0.87528  0.43225  1.0000
  H   H572      1.0  0.17284  0.99183  0.41456  1.0000
  C   C364      1.0  0.21535  0.97547  0.42390  1.0000
  C   C365      1.0  0.22766  0.96559  0.42905  1.0000
  C   C366      1.0  0.17955  0.98811  0.49005  1.0000
  C   C367      1.0  0.06173  0.76703  0.42713  1.0000
  H   H573      1.0  0.20834  0.97152  0.41929  1.0000
  H   H574      1.0  0.22965  0.95398  0.42899  1.0000
  C   C368      1.0  0.21057  0.97724  0.48553  1.0000
  H   H575      1.0  0.12706  0.85577  0.44280  1.0000
  C   C369      1.0  0.00549  0.79302  0.42057  1.0000
  C   C370      1.0  0.25876  0.90137  0.48103  1.0000
  H   H576      1.0  0.19922  0.87771  0.48935  1.0000
  H   H577      1.0  0.09613  0.74346  0.42428  1.0000
  C   C371      1.0  0.18880  0.89692  0.44063  1.0000
  C   C372      1.0  0.18159  0.91079  0.43355  1.0000
  C   C373      1.0  0.19007  0.92055  0.42358  1.0000
  C   C374      1.0  0.20573  0.91679  0.42126  1.0000
  C   C375      1.0  0.21298  0.90289  0.42828  1.0000
  C   C376      1.0  0.20450  0.89279  0.43766  1.0000
  H   H578      1.0  0.16947  0.91397  0.43561  1.0000
  H   H579      1.0  0.18448  0.93116  0.41788  1.0000
  H   H580      1.0  0.22511  0.89986  0.42628  1.0000
  H   H581      1.0  0.15231  0.85551  0.42620  1.0000
  C   C377      1.0  0.10446  0.88657  0.44832  1.0000
  C   C378      1.0  0.10096  0.88055  0.43809  1.0000
  H   H582      1.0  0.11084  0.89512  0.44440  1.0000
  H   H583      1.0  0.10481  0.88439  0.42631  1.0000
  C   C379      1.0  0.27616  0.97502  0.45927  1.0000
  H   H584      1.0  0.13559  0.94817  0.47803  1.0000
  N   N39       1.0  0.21760  0.88818  0.47774  1.0000
  H   H585      1.0  0.03301  0.69473  0.46557  1.0000
  C   C380      1.0  0.13584  0.96960  0.48102  1.0000
  C   C381      1.0  0.07290  0.75423  0.42474  1.0000
  Fe  Fe81      1.0  0.05044  0.83203  0.46194  1.0000
  H   H586      1.0  0.02473  0.76266  0.31302  1.0000
  H   H587      1.0  0.17859  0.93373  0.46702  1.0000
  S   S160      1.0  0.01472  0.72440  0.47382  1.0000
  C   C382      1.0  0.32447  0.94528  0.36570  1.0000
  C   C383      1.0  0.08747  0.75330  0.42604  1.0000
  C   C384      1.0  0.13237  0.96515  0.45847  1.0000
  C   C385      1.0  0.13100  0.98031  0.45210  1.0000
  H   H588      1.0  0.17954  0.97228  0.47784  1.0000
  H   H589      1.0  0.31693  0.98871  0.48651  1.0000
  N   N40       1.0  0.07895  0.76870  0.47945  1.0000
  C   C386      1.0  0.00941  0.78491  0.44575  1.0000
  C   C387      1.0  0.31027  0.95422  0.38794  1.0000
  H   H590      1.0  0.16762  0.85671  0.43323  1.0000
  H   H591      1.0  0.27675  0.98643  0.45272  1.0000
  C   C388      1.0  0.06714  0.76507  0.47451  1.0000
  C   C389      1.0  0.15722  0.85236  0.43627  1.0000
  C   C390      1.0  0.00995  0.85259  0.42413  1.0000
  H   H592      1.0  0.01548  0.77721  0.45374  1.0000
  C   C391      1.0  0.09375  0.76349  0.47019  1.0000
  S   S161      1.0  0.08866  0.86201  0.42987  1.0000
  C   C392      1.0  0.03330  0.80406  0.48731  1.0000
  H   H593      1.0  0.20428  0.87833  0.46979  1.0000
  H   H594      1.0  0.23700  0.89518  0.46310  1.0000
  S   S162      1.0  0.02683  0.74701  0.42048  1.0000
  H   H595      1.0  0.01093  0.77696  0.35534  1.0000
  Fe  Fe82      1.0  0.04229  0.74961  0.37837  1.0000
  H   H596      1.0  0.25484  0.91239  0.48326  1.0000
  H   H597      1.0  0.00421  0.72920  0.38665  1.0000
  Fe  Fe83      1.0  0.32974  0.98278  0.38610  1.0000
  H   H598      1.0  0.05036  0.76768  0.42646  1.0000
  H   H599      1.0  0.24249  0.98430  0.48227  1.0000
  H   H600      1.0  0.31605  0.92950  0.35975  1.0000
  H   H601      1.0  0.23842  0.87556  0.46709  1.0000
  H   H602      1.0  0.03477  0.68762  0.44943  1.0000
  H   H603      1.0  0.09632  0.75127  0.47106  1.0000
  H   H604      1.0  0.00606  0.67558  0.39328  1.0000
  S   S163      1.0  0.14130  0.88894  0.48299  1.0000
  H   H605      1.0  0.00163  0.70355  0.46713  1.0000
  H   H606      1.0  0.06652  0.77094  0.46287  1.0000
  H   H607      1.0  0.03941  0.83454  0.38955  1.0000
  H   H608      1.0  0.00508  0.85206  0.48033  1.0000
  C   C393      1.0  0.20787  0.90321  0.47477  1.0000
  C   C394      1.0  0.26541  0.96003  0.48208  1.0000
  S   S164      1.0  0.05099  0.75096  0.35389  1.0000
  C   C395      1.0  0.00644  0.78842  0.34948  1.0000
  C   C396      1.0  0.22318  0.88605  0.49136  1.0000
  H   H609      1.0  0.01489  0.86910  0.43243  1.0000
  C   C397      1.0  0.13200  0.99013  0.46021  1.0000
  H   H610      1.0  0.29635  0.87794  0.40986  1.0000
  S   S165      1.0  0.00230  0.69054  0.36317  1.0000
  H   H611      1.0  0.01682  0.83324  0.46572  1.0000
  H   H612      1.0  0.01123  0.68482  0.41292  1.0000
  C   C398      1.0  0.00539  0.68731  0.39192  1.0000
  C   C399      1.0  0.09107  0.76519  0.42917  1.0000
  S   S166      1.0  0.13217  0.95286  0.44782  1.0000
  N   N41       1.0  0.31317  0.88863  0.41082  1.0000
  Fe  Fe84      1.0  0.12243  0.90116  0.47131  1.0000
  C   C400      1.0  0.15333  0.85397  0.46188  1.0000
  H   H613      1.0  0.04063  0.72486  0.44826  1.0000
  H   H614      1.0  0.29986  0.89482  0.43124  1.0000
  H   H615      1.0  0.27212  0.86180  0.47260  1.0000
  S   S167      1.0  0.01761  0.75364  0.38840  1.0000
  C   C401      1.0  0.17271  0.95096  0.44069  1.0000
  H   H616      1.0  0.02947  0.80941  0.47714  1.0000
  H   H617      1.0  0.05665  0.78858  0.43289  1.0000
  H   H618      1.0  0.12440  0.85665  0.46183  1.0000
  H   H619      1.0  0.00353  0.83968  0.45391  1.0000
  H   H620      1.0  0.16057  0.84001  0.43909  1.0000
  C   C402      1.0  0.19830  0.94407  0.44389  1.0000
  C   C403      1.0  0.26417  0.87468  0.48969  1.0000
  H   H621      1.0  0.17128  0.93938  0.44296  1.0000
  H   H622      1.0  0.17697  0.95434  0.42853  1.0000
  H   H623      1.0  0.16139  0.95811  0.44349  1.0000
  H   H624      1.0  0.17174  0.97426  0.45291  1.0000
  H   H625      1.0  0.18496  0.97366  0.43559  1.0000
  C   C404      1.0  0.01154  0.74724  0.34892  1.0000
  S   S168      1.0  0.04755  0.85382  0.44562  1.0000
  C   C405      1.0  0.31442  0.93634  0.36767  1.0000
  C   C406      1.0  0.06528  0.77887  0.43070  1.0000
  H   H626      1.0  0.27501  0.96146  0.37810  1.0000
  S   S169      1.0  0.15475  0.91903  0.47133  1.0000
  H   H627      1.0  0.06499  0.78923  0.48488  1.0000
  H   H628      1.0  0.29031  0.89753  0.40866  1.0000
  H   H629      1.0  0.27660  0.95379  0.48450  1.0000
  H   H630      1.0  0.06893  0.80324  0.40410  1.0000
  H   H631      1.0  0.15246  0.87955  0.44172  1.0000
  C   C407      1.0  0.27081  0.98307  0.48241  1.0000
  H   H632      1.0  0.30978  0.97747  0.46968  1.0000
  C   C408      1.0  0.00238  0.69713  0.37874  1.0000
  H   H633      1.0  0.16357  0.85847  0.45956  1.0000
  C   C409      1.0  0.02458  0.75786  0.32467  1.0000
  H   H634      1.0  0.09415  0.76882  0.45828  1.0000
  Fe  Fe85      1.0  0.07247  0.84664  0.43729  1.0000
  N   N42       1.0  0.18292  0.95224  0.44931  1.0000
  H   H635      1.0  0.29091  0.94499  0.39943  1.0000
  S   S170      1.0  0.04712  0.76440  0.39026  1.0000
  C   C410      1.0  0.01355  0.78340  0.43097  1.0000
  H   H636      1.0  0.25555  0.96652  0.37725  1.0000
  H   H637      1.0  0.08474  0.78819  0.48143  1.0000
  C   C411      1.0  0.03648  0.75097  0.34581  1.0000
  H   H638      1.0  0.14543  0.85834  0.47149  1.0000
  H   H639      1.0  0.00172  0.74361  0.35604  1.0000
  H   H640      1.0  0.18483  0.94722  0.47211  1.0000
  Fe  Fe86      1.0  0.05069  0.74409  0.40816  1.0000
  H   H641      1.0  0.04795  0.80805  0.37461  1.0000
  H   H642      1.0  0.03931  0.79578  0.39027  1.0000
  C   C412      1.0  0.26345  0.89955  0.46634  1.0000
  S   S171      1.0  0.20987  0.95448  0.47421  1.0000
  H   H643      1.0  0.26884  0.96953  0.40187  1.0000
  H   H644      1.0  0.21009  0.88188  0.44276  1.0000
  C   C413      1.0  0.30938  0.88601  0.42723  1.0000
  H   H645      1.0  0.07093  0.80191  0.38524  1.0000
  C   C414      1.0  0.04111  0.80727  0.38611  1.0000
  C   C415      1.0  0.06331  0.80090  0.39638  1.0000
  N   N43       1.0  0.14643  0.85833  0.44876  1.0000
  C   C416      1.0  0.13274  0.85242  0.45238  1.0000
  H   H646      1.0  0.02286  0.77465  0.42770  1.0000
  C   C417      1.0  0.08008  0.77805  0.43141  1.0000
  S   S172      1.0  0.02869  0.84550  0.41622  1.0000
  H   H647      1.0  0.06233  0.78910  0.40020  1.0000
  H   H648      1.0  0.02983  0.81477  0.38567  1.0000
  H   H649      1.0  0.19161  0.96947  0.45234  1.0000
  H   H650      1.0  0.31904  0.88582  0.43184  1.0000
  H   H651      1.0  0.07575  0.79095  0.46631  1.0000
  Fe  Fe87      1.0  0.15601  0.89910  0.46263  1.0000
  H   H652      1.0  0.20643  0.94500  0.44992  1.0000
  S   S173      1.0  0.11812  0.92161  0.48044  1.0000
  H   H653      1.0  0.30808  0.91242  0.40799  1.0000
  C   C418      1.0  0.23049  0.88657  0.46510  1.0000
  C   C419      1.0  0.00837  0.70764  0.40103  1.0000
  C   C420      1.0  0.14240  0.87469  0.44449  1.0000
  C   C421      1.0  0.08720  0.86495  0.45824  1.0000
  H   H654      1.0  0.13533  0.84008  0.45550  1.0000
  N   N44       1.0  0.04845  0.81111  0.39593  1.0000
  H   H655      1.0  0.05768  0.82794  0.37890  1.0000
  C   C422      1.0  0.01174  0.75343  0.33395  1.0000
  H   H656      1.0  0.08051  0.85665  0.46214  1.0000
  Fe  Fe88      1.0  0.01107  0.74182  0.48708  1.0000
  H   H657      1.0  0.02750  0.81699  0.41110  1.0000
  C   C423      1.0  0.09951  0.88162  0.46356  1.0000
  C   C424      1.0  0.26593  0.97084  0.37437  1.0000
  C   C425      1.0  0.05039  0.82653  0.39019  1.0000
  C   C426      1.0  0.03895  0.80973  0.41105  1.0000
  C   C427      1.0  0.02405  0.74562  0.35471  1.0000
  H   H658      1.0  0.22965  0.89447  0.49024  1.0000
  H   H659      1.0  0.04383  0.81305  0.41869  1.0000
  C   C428      1.0  0.09078  0.87089  0.46847  1.0000
  S   S174      1.0  0.03996  0.83023  0.48617  1.0000
  Fe  Fe89      1.0  0.13500  0.92916  0.46044  1.0000
  C   C429      1.0  0.26795  0.88531  0.46329  1.0000
  H   H660      1.0  0.30875  0.96106  0.39582  1.0000
  H   H661      1.0  0.30237  0.89070  0.39297  1.0000
  S   S175      1.0  0.27084  0.88326  0.44506  1.0000
  H   H662      1.0  0.15488  0.98717  0.42269  1.0000
  C   C430      1.0  0.26863  0.87284  0.47494  1.0000
  S   S176      1.0  0.30826  0.98706  0.43893  1.0000
  H   H663      1.0  0.02248  0.78877  0.36850  1.0000
  C   C431      1.0  0.30002  0.88863  0.40532  1.0000
  H   H664      1.0  0.10291  0.76621  0.47347  1.0000
  H   H665      1.0  0.05590  0.76836  0.48159  1.0000
  H   H666      1.0  0.20241  0.94840  0.43191  1.0000
  H   H667      1.0  0.16602  0.95122  0.46945  1.0000
  H   H668      1.0  0.27260  0.96934  0.45246  1.0000
  H   H669      1.0  0.26319  0.90924  0.45741  1.0000
  H   H670      1.0  0.19883  0.93206  0.44522  1.0000
  H   H671      1.0  0.26906  0.97399  0.36205  1.0000
  C   C432      1.0  0.17784  0.94583  0.46517  1.0000
  H   H672      1.0  0.22244  0.97241  0.48454  1.0000
  C   C433      1.0  0.23471  0.98583  0.43418  1.0000
  H   H673      1.0  0.28222  0.97725  0.48451  1.0000
  C   C434      1.0  0.00701  0.70942  0.48507  1.0000
  H   H674      1.0  0.01472  0.80773  0.37013  1.0000
  H   H675      1.0  0.12902  0.98446  0.44095  1.0000
  H   H676      1.0  0.00650  0.82088  0.46386  1.0000
  C   C435      1.0  0.27770  0.98912  0.37684  1.0000
  S   S177      1.0  0.01313  0.71386  0.41465  1.0000
  H   H677      1.0  0.32732  0.90359  0.40848  1.0000
  H   H678      1.0  0.00148  0.83743  0.41716  1.0000
  H   H679      1.0  0.25869  0.98812  0.40320  1.0000
  H   H680      1.0  0.22687  0.88777  0.45464  1.0000
  C   C436      1.0  0.20191  0.97133  0.47987  1.0000
  C   C437      1.0  0.31740  0.90314  0.40465  1.0000
  H   H681      1.0  0.06919  0.75295  0.47505  1.0000
  H   H682      1.0  0.24920  0.97520  0.40142  1.0000
  C   C438      1.0  0.00839  0.69256  0.40302  1.0000
  C   C439      1.0  0.25998  0.97888  0.39763  1.0000
  C   C440      1.0  0.18641  0.97704  0.48179  1.0000
  C   C441      1.0  0.20891  0.87690  0.47975  1.0000
  H   H683      1.0  0.02789  0.78364  0.48819  1.0000
  C   C442      1.0  0.00618  0.86432  0.43152  1.0000
  N   N45       1.0  0.00302  0.79926  0.35908  1.0000
  C   C443      1.0  0.00175  0.71224  0.37707  1.0000
  H   H684      1.0  0.28776  0.96902  0.46056  1.0000
  C   C444      1.0  0.32587  0.87669  0.40606  1.0000
  H   H685      1.0  0.24616  0.97751  0.46546  1.0000
  H   H686      1.0  0.21416  0.91198  0.47312  1.0000
  H   H687      1.0  0.00352  0.81796  0.34064  1.0000
  C   C445      1.0  0.00480  0.71749  0.38810  1.0000
  H   H688      1.0  0.20343  0.90511  0.46459  1.0000
  H   H689      1.0  0.19812  0.90487  0.48419  1.0000
  H   H690      1.0  0.01493  0.79111  0.33921  1.0000
  H   H691      1.0  0.32303  0.86559  0.41051  1.0000
  H   H692      1.0  0.32896  0.87834  0.39373  1.0000
  H   H693      1.0  0.33384  0.94530  0.35629  1.0000
  H   H694      1.0  0.10499  0.87938  0.51085  1.0000
  H   H695      1.0  0.22565  0.98678  0.54221  1.0000
  Fe  Fe90      1.0  0.31463  0.97463  0.52365  1.0000
  H   H696      1.0  0.08143  0.88105  0.53015  1.0000
  S   S178      1.0  0.30805  0.95471  0.52110  1.0000
  H   H697      1.0  0.18172  0.92522  0.50982  1.0000
  C   C446      1.0  0.13339  0.97017  0.52460  1.0000
  H   H698      1.0  0.13110  0.95924  0.52509  1.0000
  Fe  Fe91      1.0  0.20475  0.92808  0.52597  1.0000
  S   S179      1.0  0.24168  0.93541  0.49822  1.0000
  S   S180      1.0  0.18209  0.92593  0.54027  1.0000
  Fe  Fe92      1.0  0.23094  0.94364  0.51923  1.0000
  H   H699      1.0  0.12564  0.97477  0.53411  1.0000
  S   S181      1.0  0.23884  0.96127  0.52474  1.0000
  H   H700      1.0  0.06810  0.76532  0.50253  1.0000
  S   S182      1.0  0.25087  0.89117  0.51095  1.0000
  H   H701      1.0  0.20594  0.97357  0.58071  1.0000
  H   H702      1.0  0.20746  0.97797  0.53469  1.0000
  S   S183      1.0  0.20783  0.95080  0.51448  1.0000
  S   S184      1.0  0.22679  0.92164  0.53326  1.0000
  H   H703      1.0  0.22502  0.98534  0.56140  1.0000
  H   H704      1.0  0.08123  0.89491  0.50418  1.0000
  H   H705      1.0  0.21197  0.95998  0.54632  1.0000
  H   H706      1.0  0.16468  0.95700  0.53928  1.0000
  H   H707      1.0  0.09021  0.88669  0.54157  1.0000
  H   H708      1.0  0.19289  0.97037  0.54832  1.0000
  H   H709      1.0  0.01108  0.71215  0.50512  1.0000
  C   C447      1.0  0.04367  0.80473  0.50759  1.0000
  C   C448      1.0  0.15186  0.98345  0.52391  1.0000
  N   N46       1.0  0.14925  0.96868  0.52490  1.0000
  H   H710      1.0  0.15717  0.95138  0.51244  1.0000
  C   C449      1.0  0.00618  0.70616  0.50035  1.0000
  H   H711      1.0  0.15057  0.94755  0.54013  1.0000
  C   C450      1.0  0.15911  0.96237  0.51220  1.0000
  Fe  Fe93      1.0  0.23598  0.91383  0.51172  1.0000
  H   H712      1.0  0.13043  0.97780  0.51424  1.0000
  C   C451      1.0  0.20417  0.96868  0.57214  1.0000
  H   H713      1.0  0.08482  0.91967  0.52667  1.0000
  N   N47       1.0  0.09237  0.89908  0.51905  1.0000
  S   S185      1.0  0.13504  0.90930  0.51487  1.0000
  H   H714      1.0  0.19244  0.96716  0.57533  1.0000
  H   H715      1.0  0.14904  0.99139  0.51363  1.0000
  H   H716      1.0  0.14488  0.98844  0.53347  1.0000
  Fe  Fe94      1.0  0.02038  0.75869  0.50441  1.0000
  N   N48       1.0  0.20715  0.97822  0.55721  1.0000
  H   H717      1.0  0.11341  0.89505  0.50377  1.0000
  H   H718      1.0  0.25472  0.97986  0.53035  1.0000
  S   S186      1.0  0.03786  0.76308  0.51337  1.0000
  H   H719      1.0  0.10230  0.90833  0.53124  1.0000
  C   C452      1.0  0.22286  0.97986  0.55351  1.0000
  C   C453      1.0  0.20472  0.97135  0.54618  1.0000
  H   H720      1.0  0.16325  0.91869  0.49982  1.0000
  H   H721      1.0  0.04737  0.78410  0.52370  1.0000
  H   H722      1.0  0.07289  0.89800  0.53673  1.0000
  C   C454      1.0  0.03766  0.78202  0.50661  1.0000
  C   C455      1.0  0.08384  0.89084  0.53248  1.0000
  H   H723      1.0  0.17120  0.96075  0.51226  1.0000
  H   H724      1.0  0.32887  0.98578  0.56986  1.0000
  H   H725      1.0  0.14569  0.96321  0.54876  1.0000
  H   H726      1.0  0.29840  0.98558  0.59220  1.0000
  H   H727      1.0  0.04794  0.81074  0.51303  1.0000
  H   H728      1.0  0.23097  0.96891  0.55369  1.0000
  H   H729      1.0  0.07261  0.91189  0.51075  1.0000
  C   C456      1.0  0.16984  0.92075  0.53258  1.0000
  C   C457      1.0  0.15703  0.91650  0.54207  1.0000
  C   C458      1.0  0.14656  0.91299  0.53643  1.0000
  C   C459      1.0  0.14876  0.91369  0.52123  1.0000
  C   C460      1.0  0.16154  0.91802  0.51160  1.0000
  C   C461      1.0  0.17209  0.92156  0.51729  1.0000
  H   H730      1.0  0.15520  0.91588  0.55388  1.0000
  H   H731      1.0  0.13674  0.90965  0.54394  1.0000
  H   H732      1.0  0.11383  0.88504  0.52235  1.0000
  C   C462      1.0  0.08355  0.90435  0.50727  1.0000
  C   C463      1.0  0.32648  0.98971  0.58041  1.0000
  H   H733      1.0  0.30103  0.99096  0.57236  1.0000
  H   H734      1.0  0.08794  0.76343  0.49913  1.0000
  H   H735      1.0  0.10181  0.91839  0.51268  1.0000
  H   H736      1.0  0.15705  0.96981  0.50146  1.0000
  C   C464      1.0  0.15267  0.95871  0.53890  1.0000
  C   C465      1.0  0.04335  0.78970  0.51360  1.0000
  S   S187      1.0  0.21362  0.91861  0.50558  1.0000
  C   C466      1.0  0.09539  0.91194  0.52260  1.0000
  H   H737      1.0  0.21386  0.88705  0.50125  1.0000
  C   C467      1.0  0.28878  0.95654  0.52222  1.0000
  C   C468      1.0  0.28401  0.94543  0.51886  1.0000
  C   C469      1.0  0.26869  0.94667  0.51971  1.0000
  C   C470      1.0  0.25809  0.95911  0.52381  1.0000
  C   C471      1.0  0.26285  0.97024  0.52710  1.0000
  C   C472      1.0  0.27813  0.96891  0.52641  1.0000
  H   H738      1.0  0.29219  0.93577  0.51573  1.0000
  H   H739      1.0  0.26510  0.93797  0.51726  1.0000
  H   H740      1.0  0.21182  0.95745  0.57260  1.0000
  H   H741      1.0  0.28159  0.97732  0.52944  1.0000
  S   S188      1.0  0.01043  0.73855  0.51146  1.0000
  H   H742      1.0  0.26427  0.86505  0.49873  1.0000
  S   S189      1.0  0.31535  0.97976  0.54500  1.0000
  H   H743      1.0  0.16382  0.98276  0.52368  1.0000
  H   H744      1.0  0.32595  0.97984  0.58968  1.0000
  C   C473      1.0  0.10676  0.88914  0.51384  1.0000
  H   H745      1.0  0.08972  0.91052  0.49692  1.0000
  Fe  Fe95      1.0  0.21834  0.94092  0.49440  1.0000
  H   H746      1.0  0.08043  0.74904  0.49684  1.0000
  H   H747      1.0  0.00712  0.82614  0.49360  1.0000
  C   C474      1.0  0.03884  0.81182  0.49429  1.0000
  C   C475      1.0  0.07891  0.76127  0.49515  1.0000
  C   C476      1.0  0.20372  0.98837  0.49370  1.0000
  C   C477      1.0  0.03238  0.78935  0.49364  1.0000
  C   C478      1.0  0.25889  0.88896  0.49272  1.0000
  H   H748      1.0  0.25727  0.95995  0.49290  1.0000
  H   H749      1.0  0.23087  0.87496  0.49380  1.0000
  H   H750      1.0  0.26310  0.98357  0.49343  1.0000
  H   H751      1.0  0.21045  0.99235  0.49854  1.0000
  H   H752      1.0  0.18492  0.99228  0.55957  1.0000
  H   H753      1.0  0.13754  0.96538  0.49225  1.0000
  H   H754      1.0  0.16755  0.99236  0.49171  1.0000
  H   H755      1.0  0.54816  0.06483  0.02319  1.0000
  S   S190      1.0  0.54892  0.03656  0.18489  1.0000
  H   H756      1.0  0.48419  0.03560  0.15796  1.0000
  S   S191      1.0  0.53154  0.05030  0.15009  1.0000
  H   H757      1.0  0.53455  0.10281  0.17230  1.0000
  Fe  Fe96      1.0  0.47020  0.02136  0.20671  1.0000
  S   S192      1.0  0.48069  0.04064  0.20328  1.0000
  H   H758      1.0  0.51783  0.05659  0.05631  1.0000
  Fe  Fe97      1.0  0.43881  0.04034  0.21174  1.0000
  S   S193      1.0  0.44659  0.06123  0.20875  1.0000
  C   C479      1.0  0.50199  0.99639  0.20513  1.0000
  Fe  Fe98      1.0  0.46355  0.05323  0.18954  1.0000
  S   S194      1.0  0.47119  0.06765  0.16739  1.0000
  Fe  Fe99      1.0  0.46293  0.04660  0.22267  1.0000
  H   H759      1.0  0.51217  0.05870  0.12945  1.0000
  S   S195      1.0  0.45446  0.03337  0.19143  1.0000
  H   H760      1.0  0.46398  0.08046  0.03275  1.0000
  Fe  Fe100     1.0  0.50085  0.00760  0.08536  1.0000
  S   S196      1.0  0.51440  0.02282  0.06872  1.0000
  C   C480      1.0  0.59137  0.04686  0.21247  1.0000
  Fe  Fe101     1.0  0.48285  0.03208  0.10198  1.0000
  S   S197      1.0  0.49517  0.04926  0.08693  1.0000
  S   S198      1.0  0.46366  0.03600  0.12132  1.0000
  Fe  Fe102     1.0  0.49275  0.03990  0.06874  1.0000
  S   S199      1.0  0.48703  0.05341  0.04691  1.0000
  Fe  Fe103     1.0  0.51569  0.03063  0.08824  1.0000
  S   S200      1.0  0.53858  0.03121  0.09025  1.0000
  S   S201      1.0  0.47891  0.02390  0.08367  1.0000
  S   S202      1.0  0.50361  0.01432  0.10499  1.0000
  H   H761      1.0  0.50601  0.02127  0.22430  1.0000
  S   S203      1.0  0.51225  0.11142  0.01811  1.0000
  C   C481      1.0  0.51899  0.01380  0.15820  1.0000
  C   C482      1.0  0.45273  0.10376  0.04609  1.0000
  H   H762      1.0  0.45377  0.01794  0.15035  1.0000
  H   H763      1.0  0.49385  0.30859  0.99591  1.0000
  Fe  Fe104     1.0  0.55034  0.03657  0.16115  1.0000
  H   H764      1.0  0.46354  0.09682  0.04897  1.0000
  H   H765      1.0  0.50855  0.00534  0.13900  1.0000
  C   C483      1.0  0.47684  0.25890  0.99620  1.0000
  H   H766      1.0  0.52319  0.08075  0.15229  1.0000
  H   H767      1.0  0.50891  0.03834  0.22609  1.0000
  C   C484      1.0  0.53153  0.99569  0.20554  1.0000
  H   H768      1.0  0.43216  0.01084  0.21711  1.0000
  H   H769      1.0  0.45667  0.00909  0.17594  1.0000
  C   C485      1.0  0.45318  0.08777  0.03019  1.0000
  H   H770      1.0  0.46837  0.22951  0.01734  1.0000
  C   C486      1.0  0.49383  0.06965  0.03912  1.0000
  C   C487      1.0  0.49805  0.07383  0.02366  1.0000
  C   C488      1.0  0.50375  0.08664  0.01714  1.0000
  C   C489      1.0  0.50499  0.09547  0.02608  1.0000
  C   C490      1.0  0.50055  0.09143  0.04154  1.0000
  C   C491      1.0  0.49485  0.07860  0.04805  1.0000
  H   H771      1.0  0.49716  0.06700  0.01670  1.0000
  H   H772      1.0  0.50735  0.08958  0.00521  1.0000
  H   H773      1.0  0.50139  0.09831  0.04846  1.0000
  H   H774      1.0  0.49126  0.07562  0.05998  1.0000
  C   C492      1.0  0.46705  0.06249  0.15289  1.0000
  C   C493      1.0  0.45471  0.05619  0.15558  1.0000
  C   C494      1.0  0.45322  0.04916  0.14512  1.0000
  C   C495      1.0  0.46439  0.04774  0.13231  1.0000
  C   C496      1.0  0.47629  0.05482  0.12914  1.0000
  C   C497      1.0  0.47733  0.06260  0.13927  1.0000
  H   H775      1.0  0.44639  0.05665  0.16579  1.0000
  H   H776      1.0  0.44357  0.04451  0.14711  1.0000
  H   H777      1.0  0.48482  0.05403  0.11912  1.0000
  H   H778      1.0  0.48668  0.06778  0.13706  1.0000
  H   H779      1.0  0.52858  0.05540  0.06951  1.0000
  H   H780      1.0  0.54943  0.07474  0.05092  1.0000
  C   C498      1.0  0.52637  0.19180  0.99687  1.0000
  H   H781      1.0  0.40339  0.17551  0.00610  1.0000
  C   C499      1.0  0.39597  0.02523  0.21341  1.0000
  C   C500      1.0  0.54945  0.03395  0.11283  1.0000
  H   H782      1.0  0.52246  0.07299  0.05806  1.0000
  C   C501      1.0  0.53796  0.06675  0.03209  1.0000
  H   H783      1.0  0.38751  0.03550  0.21323  1.0000
  H   H784      1.0  0.52881  0.06367  0.02912  1.0000
  C   C502      1.0  0.58264  0.04254  0.20541  1.0000
  N   N49       1.0  0.54069  0.05813  0.04683  1.0000
  C   C503      1.0  0.55265  0.06273  0.05052  1.0000
  H   H785      1.0  0.53657  0.03835  0.04364  1.0000
  C   C504      1.0  0.50797  0.00891  0.19853  1.0000
  C   C505      1.0  0.52279  0.00852  0.19849  1.0000
  C   C506      1.0  0.54789  0.03796  0.12633  1.0000
  H   H786      1.0  0.53453  0.07892  0.03180  1.0000
  H   H787      1.0  0.50137  0.01881  0.19305  1.0000
  H   H788      1.0  0.52728  0.01829  0.19335  1.0000
  C   C507      1.0  0.53433  0.04669  0.13244  1.0000
  C   C508      1.0  0.53724  0.03807  0.10587  1.0000
  C   C509      1.0  0.52382  0.04705  0.11183  1.0000
  C   C510      1.0  0.52250  0.05163  0.12493  1.0000
  H   H789      1.0  0.51443  0.05047  0.10637  1.0000
  N   N50       1.0  0.45189  0.10329  0.03101  1.0000
  C   C511      1.0  0.43745  0.11259  0.02754  1.0000
  C   C512      1.0  0.46431  0.10907  0.02012  1.0000
  H   H790      1.0  0.42773  0.10865  0.03550  1.0000
  H   H791      1.0  0.41824  0.15012  0.00416  1.0000
  H   H792      1.0  0.43660  0.11256  0.01613  1.0000
  H   H793      1.0  0.46362  0.12085  0.02019  1.0000
  H   H794      1.0  0.59692  0.99422  0.23082  1.0000
  H   H795      1.0  0.56334  0.06086  0.04218  1.0000
  H   H796      1.0  0.55495  0.05634  0.06160  1.0000
  C   C513      1.0  0.54529  0.04211  0.04661  1.0000
  H   H797      1.0  0.54704  0.03526  0.05770  1.0000
  H   H798      1.0  0.55593  0.03950  0.03840  1.0000
  H   H799      1.0  0.60029  0.04252  0.23209  1.0000
  H   H800      1.0  0.45278  0.08699  0.01889  1.0000
  C   C514      1.0  0.41026  0.02470  0.21521  1.0000
  H   H801      1.0  0.48428  0.18621  0.00730  1.0000
  H   H802      1.0  0.44397  0.08301  0.03824  1.0000
  C   C515      1.0  0.52677  0.06092  0.05815  1.0000
  H   H803      1.0  0.53364  0.08942  0.18953  1.0000
  H   H804      1.0  0.54655  0.06650  0.16082  1.0000
  H   H805      1.0  0.55715  0.03425  0.13199  1.0000
  Fe  Fe105     1.0  0.57311  0.03737  0.17730  1.0000
  S   S204      1.0  0.58090  0.05169  0.18719  1.0000
  H   H806      1.0  0.59687  0.05593  0.20675  1.0000
  C   C516      1.0  0.57556  0.03077  0.21288  1.0000
  H   H807      1.0  0.55090  0.06993  0.17659  1.0000
  Fe  Fe106     1.0  0.58006  0.01449  0.15843  1.0000
  H   H808      1.0  0.55196  0.08336  0.15942  1.0000
  H   H809      1.0  0.38172  0.01319  0.20960  1.0000
  S   S205      1.0  0.45001  0.25195  0.99948  1.0000
  H   H810      1.0  0.50150  0.99579  0.16931  1.0000
  H   H811      1.0  0.44315  0.00024  0.18968  1.0000
  S   S206      1.0  0.57400  0.03948  0.15313  1.0000
  H   H812      1.0  0.46415  0.10864  0.00864  1.0000
  C   C517      1.0  0.47584  0.21830  0.01971  1.0000
  H   H813      1.0  0.51949  0.01497  0.16925  1.0000
  H   H814      1.0  0.42230  0.02200  0.18384  1.0000
  C   C518      1.0  0.44512  0.01140  0.15252  1.0000
  C   C519      1.0  0.41765  0.99862  0.21402  1.0000
  H   H815      1.0  0.45099  0.00065  0.14912  1.0000
  H   H816      1.0  0.52607  0.06596  0.19176  1.0000
  C   C520      1.0  0.52851  0.09417  0.17957  1.0000
  C   C521      1.0  0.44855  0.00206  0.17768  1.0000
  Fe  Fe107     1.0  0.54536  0.24843  0.00096  1.0000
  C   C522      1.0  0.54083  0.29323  0.01144  1.0000
  H   H817      1.0  0.60258  0.00175  0.20344  1.0000
  C   C523      1.0  0.39268  0.01261  0.21141  1.0000
  H   H818      1.0  0.48141  0.18823  0.02611  1.0000
  H   H819      1.0  0.47271  0.21368  0.03181  1.0000
  S   S207      1.0  0.48281  0.99769  0.20698  1.0000
  C   C524      1.0  0.54835  0.28043  0.00586  1.0000
  N   N51       1.0  0.43732  0.00910  0.16830  1.0000
  H   H820      1.0  0.55996  0.02731  0.10802  1.0000
  H   H821      1.0  0.53662  0.31711  0.00719  1.0000
  C   C525      1.0  0.42878  0.02350  0.17216  1.0000
  H   H822      1.0  0.52856  0.09774  0.15063  1.0000
  H   H823      1.0  0.52459  0.00215  0.15722  1.0000
  H   H824      1.0  0.48751  0.21989  0.01727  1.0000
  H   H825      1.0  0.42086  0.99725  0.18269  1.0000
  H   H826      1.0  0.45195  0.11530  0.04702  1.0000
  Fe  Fe108     1.0  0.55763  0.01210  0.18725  1.0000
  H   H827      1.0  0.56864  0.02747  0.20760  1.0000
  Fe  Fe109     1.0  0.54064  0.21978  0.99691  1.0000
  C   C526      1.0  0.52122  0.07137  0.18172  1.0000
  S   S208      1.0  0.55633  0.01183  0.16433  1.0000
  C   C527      1.0  0.50345  0.01678  0.14092  1.0000
  H   H828      1.0  0.52577  0.02123  0.14987  1.0000
  S   S209      1.0  0.53622  0.19695  0.00707  1.0000
  H   H829      1.0  0.49639  0.19471  0.01221  1.0000
  N   N52       1.0  0.52945  0.08252  0.17168  1.0000
  H   H830      1.0  0.52461  0.02471  0.21881  1.0000
  C   C528      1.0  0.57733  0.02330  0.22732  1.0000
  H   H831      1.0  0.48467  0.00689  0.16337  1.0000
  C   C529      1.0  0.54261  0.30724  0.00288  1.0000
  C   C530      1.0  0.42114  0.01138  0.21554  1.0000
  H   H832      1.0  0.50915  0.07646  0.18547  1.0000
  H   H833      1.0  0.57843  0.32206  0.99450  1.0000
  S   S210      1.0  0.41427  0.04078  0.21709  1.0000
  C   C531      1.0  0.59331  0.03926  0.22679  1.0000
  C   C532      1.0  0.49468  0.00729  0.16705  1.0000
  C   C533      1.0  0.48456  0.19375  0.01427  1.0000
  H   H834      1.0  0.43721  0.01749  0.14502  1.0000
  H   H835      1.0  0.57466  0.00178  0.11116  1.0000
  H   H836      1.0  0.43625  0.12443  0.02783  1.0000
  C   C534      1.0  0.54539  0.07527  0.16694  1.0000
  C   C535      1.0  0.49626  0.03291  0.15832  1.0000
  C   C536      1.0  0.44667  0.16841  0.99292  1.0000
  N   N53       1.0  0.50337  0.01765  0.15614  1.0000
  C   C537      1.0  0.40356  0.99931  0.21152  1.0000
  C   C538      1.0  0.42387  0.15920  0.00136  1.0000
  H   H837      1.0  0.51060  0.09474  0.16166  1.0000
  C   C539      1.0  0.52266  0.08927  0.15849  1.0000
  H   H838      1.0  0.49186  0.02000  0.13875  1.0000
  H   H839      1.0  0.50995  0.02440  0.13244  1.0000
  H   H840      1.0  0.50171  0.04124  0.14973  1.0000
  H   H841      1.0  0.45091  0.21784  0.01190  1.0000
  H   H842      1.0  0.52983  0.16888  0.00845  1.0000
  C   C540      1.0  0.58635  0.02745  0.23424  1.0000
  H   H843      1.0  0.57182  0.01431  0.23302  1.0000
  N   N54       1.0  0.47450  0.20849  0.01076  1.0000
  H   H844      1.0  0.49840  0.26347  0.99381  1.0000
  H   H845      1.0  0.43633  0.03092  0.17109  1.0000
  H   H846      1.0  0.44350  0.09949  0.05463  1.0000
  H   H847      1.0  0.51664  0.09984  0.18338  1.0000
  S   S211      1.0  0.58177  0.01276  0.18169  1.0000
  H   H848      1.0  0.47536  0.10254  0.02248  1.0000
  H   H849      1.0  0.49048  0.01065  0.17789  1.0000
  H   H850      1.0  0.42061  0.02946  0.16490  1.0000
  H   H851      1.0  0.47336  0.25935  0.00785  1.0000
  S   S212      1.0  0.54458  0.26318  0.01597  1.0000
  H   H852      1.0  0.49692  0.03445  0.16922  1.0000
  H   H853      1.0  0.53806  0.02440  0.23773  1.0000
  H   H854      1.0  0.53339  0.29231  0.02226  1.0000
  S   S213      1.0  0.45367  0.02639  0.22728  1.0000
  S   S214      1.0  0.52473  0.24112  0.00126  1.0000
  H   H855      1.0  0.52161  0.06245  0.17609  1.0000
  H   H856      1.0  0.54415  0.00532  0.13219  1.0000
  C   C541      1.0  0.41547  0.17355  0.00243  1.0000
  S   S215      1.0  0.46915  0.05318  0.24064  1.0000
  C   C542      1.0  0.45881  0.20685  0.01422  1.0000
  H   H857      1.0  0.45520  0.20177  0.02613  1.0000
  H   H858      1.0  0.57109  0.00361  0.13011  1.0000
  S   S216      1.0  0.59704  0.99956  0.14447  1.0000
  C   C543      1.0  0.55812  0.28167  0.99192  1.0000
  C   C544      1.0  0.51389  0.02620  0.22720  1.0000
  S   S217      1.0  0.41149  0.20330  0.99938  1.0000
  S   S218      1.0  0.56080  0.22620  0.99926  1.0000
  H   H859      1.0  0.51536  0.99767  0.24033  1.0000
  S   S219      1.0  0.44961  0.13865  0.99478  1.0000
  C   C545      1.0  0.47881  0.21508  0.99482  1.0000
  C   C546      1.0  0.57359  0.99548  0.12285  1.0000
  H   H860      1.0  0.51016  0.28439  0.99175  1.0000
  H   H861      1.0  0.54754  0.00307  0.11346  1.0000
  S   S220      1.0  0.54942  0.99575  0.20687  1.0000
  S   S221      1.0  0.41377  0.24444  0.99373  1.0000
  C   C547      1.0  0.42683  0.99936  0.17087  1.0000
  C   C548      1.0  0.42258  0.18544  0.99849  1.0000
  C   C549      1.0  0.43945  0.15662  0.99655  1.0000
  C   C550      1.0  0.43821  0.18287  0.99379  1.0000
  H   H862      1.0  0.45736  0.19971  0.00748  1.0000
  C   C551      1.0  0.52502  0.17705  0.99973  1.0000
  S   S222      1.0  0.48599  0.14576  0.00006  1.0000
  H   H863      1.0  0.41814  0.00441  0.16405  1.0000
  Fe  Fe110     1.0  0.50349  0.12474  0.99768  1.0000
  H   H864      1.0  0.51024  0.31593  0.99245  1.0000
  H   H865      1.0  0.51615  0.16152  0.99372  1.0000
  C   C552      1.0  0.54728  0.99692  0.12517  1.0000
  H   H866      1.0  0.53391  0.00089  0.23584  1.0000
  H   H867      1.0  0.57820  0.99522  0.21629  1.0000
  H   H868      1.0  0.48999  0.21782  0.99208  1.0000
  H   H869      1.0  0.55994  0.17248  0.99173  1.0000
  H   H870      1.0  0.34911  0.00372  0.42211  1.0000
  H   H871      1.0  0.62309  0.03225  0.32153  1.0000
  S   S223      1.0  0.60710  0.00149  0.48713  1.0000
  H   H872      1.0  0.49667  0.03366  0.25240  1.0000
  H   H873      1.0  0.38121  0.99637  0.44035  1.0000
  Fe  Fe111     1.0  0.62042  0.01533  0.46809  1.0000
  S   S224      1.0  0.61585  0.02608  0.44531  1.0000
  H   H874      1.0  0.39582  0.01227  0.26247  1.0000
  C   C553      1.0  0.41243  0.01679  0.27907  1.0000
  S   S225      1.0  0.36962  0.00525  0.39085  1.0000
  N   N55       1.0  0.65497  0.05370  0.44548  1.0000
  H   H875      1.0  0.42328  0.01545  0.28220  1.0000
  C   C554      1.0  0.62537  0.99846  0.43843  1.0000
  H   H876      1.0  0.42252  0.99987  0.25855  1.0000
  S   S226      1.0  0.43657  0.02210  0.30336  1.0000
  C   C555      1.0  0.49596  0.99299  0.29303  1.0000
  C   C556      1.0  0.35620  0.00421  0.42945  1.0000
  H   H877      1.0  0.65941  0.06587  0.42296  1.0000
  C   C557      1.0  0.44646  0.03030  0.28611  1.0000
  C   C558      1.0  0.44646  0.04541  0.28324  1.0000
  C   C559      1.0  0.45372  0.05236  0.26937  1.0000
  H   H878      1.0  0.38995  0.03123  0.26484  1.0000
  C   C560      1.0  0.46085  0.02919  0.26105  1.0000
  C   C561      1.0  0.45394  0.02218  0.27503  1.0000
  H   H879      1.0  0.44079  0.05178  0.29175  1.0000
  H   H880      1.0  0.45363  0.06406  0.26722  1.0000
  S   S227      1.0  0.66649  0.01775  0.48202  1.0000
  H   H881      1.0  0.45442  0.01055  0.27713  1.0000
  H   H882      1.0  0.60906  0.05712  0.34840  1.0000
  S   S228      1.0  0.64252  0.99936  0.46931  1.0000
  H   H883      1.0  0.65816  0.07600  0.43664  1.0000
  C   C562      1.0  0.62325  0.01381  0.43303  1.0000
  H   H884      1.0  0.50336  0.01682  0.26473  1.0000
  H   H885      1.0  0.60313  0.99623  0.37568  1.0000
  H   H886      1.0  0.62526  0.03127  0.41348  1.0000
  H   H887      1.0  0.36478  0.01046  0.42234  1.0000
  C   C563      1.0  0.64898  0.04284  0.44162  1.0000
  S   S229      1.0  0.33795  0.00331  0.37360  1.0000
  C   C564      1.0  0.39908  0.02320  0.25917  1.0000
  C   C565      1.0  0.59050  0.00568  0.32393  1.0000
  H   H888      1.0  0.59314  0.01346  0.40057  1.0000
  H   H889      1.0  0.62904  0.07085  0.31000  1.0000
  S   S230      1.0  0.64606  0.00595  0.33450  1.0000
  S   S231      1.0  0.60332  0.01159  0.34362  1.0000
  C   C566      1.0  0.38301  0.99289  0.38066  1.0000
  C   C567      1.0  0.52703  0.02599  0.24566  1.0000
  H   H890      1.0  0.65486  0.04055  0.43043  1.0000
  H   H891      1.0  0.63959  0.03795  0.32161  1.0000
  Fe  Fe112     1.0  0.43704  0.99770  0.30788  1.0000
  H   H892      1.0  0.59694  0.06834  0.32684  1.0000
  H   H893      1.0  0.58452  0.00658  0.38141  1.0000
  C   C568      1.0  0.62675  0.01941  0.41769  1.0000
  H   H894      1.0  0.40393  0.02484  0.28526  1.0000
  H   H895      1.0  0.41877  0.04070  0.24583  1.0000
  C   C569      1.0  0.59790  0.99967  0.33582  1.0000
  H   H896      1.0  0.46650  0.02283  0.25257  1.0000
  N   N56       1.0  0.41363  0.02189  0.26287  1.0000
  H   H897      1.0  0.61165  0.00279  0.39487  1.0000
  H   H898      1.0  0.60600  0.06359  0.30911  1.0000
  C   C570      1.0  0.63237  0.00967  0.40779  1.0000
  C   C571      1.0  0.46069  0.04431  0.25818  1.0000
  C   C572      1.0  0.64664  0.05662  0.46022  1.0000
  N   N57       1.0  0.51639  0.01921  0.24236  1.0000
  N   N58       1.0  0.61894  0.05400  0.32608  1.0000
  C   C573      1.0  0.61626  0.04836  0.34233  1.0000
  C   C574      1.0  0.62670  0.06637  0.32219  1.0000
  C   C575      1.0  0.60442  0.05927  0.32132  1.0000
  Fe  Fe113     1.0  0.34669  0.00135  0.39366  1.0000
  H   H899      1.0  0.49122  0.00434  0.29438  1.0000
  Fe  Fe114     1.0  0.57723  0.99995  0.26457  1.0000
  H   H900      1.0  0.63770  0.06264  0.32573  1.0000
  Fe  Fe115     1.0  0.62519  0.00315  0.35145  1.0000
  H   H901      1.0  0.59839  0.05008  0.32414  1.0000
  H   H902      1.0  0.58843  0.01753  0.31945  1.0000
  H   H903      1.0  0.52258  0.03813  0.24508  1.0000
  H   H904      1.0  0.63044  0.04571  0.30624  1.0000
  H   H905      1.0  0.39541  0.00929  0.36721  1.0000
  H   H906      1.0  0.52429  0.99736  0.25482  1.0000
  S   S232      1.0  0.65853  0.03741  0.34080  1.0000
  H   H907      1.0  0.63528  0.01405  0.39601  1.0000
  C   C576      1.0  0.62841  0.04195  0.31853  1.0000
  H   H908      1.0  0.63678  0.04682  0.44160  1.0000
  H   H909      1.0  0.39959  0.02714  0.24701  1.0000
  H   H910      1.0  0.64138  0.07279  0.43378  1.0000
  H   H911      1.0  0.34894  0.01083  0.43774  1.0000
  H   H912      1.0  0.61066  0.03883  0.34566  1.0000
  H   H913      1.0  0.62697  0.04443  0.34632  1.0000
  C   C577      1.0  0.42530  0.01101  0.25520  1.0000
  C   C578      1.0  0.60051  0.00213  0.40225  1.0000
  S   S233      1.0  0.63003  0.01435  0.36690  1.0000
  Fe  Fe116     1.0  0.65186  0.01548  0.35068  1.0000
  H   H914      1.0  0.61993  0.07567  0.32772  1.0000
  C   C579      1.0  0.50193  0.02161  0.25310  1.0000
  H   H915      1.0  0.43643  0.00970  0.25773  1.0000
  H   H916      1.0  0.42863  0.03594  0.26066  1.0000
  H   H917      1.0  0.51865  0.99407  0.31754  1.0000
  C   C580      1.0  0.39461  0.99782  0.36949  1.0000
  H   H918      1.0  0.65049  0.03197  0.44963  1.0000
  C   C581      1.0  0.41772  0.03652  0.25802  1.0000
  C   C582      1.0  0.59224  0.99549  0.38361  1.0000
  H   H919      1.0  0.42637  0.01452  0.24296  1.0000
  H   H920      1.0  0.65113  0.06448  0.46365  1.0000
  Fe  Fe117     1.0  0.64439  0.01233  0.48466  1.0000
  C   C583      1.0  0.65335  0.06773  0.43424  1.0000
  H   H921      1.0  0.63450  0.06138  0.46037  1.0000
  S   S234      1.0  0.58953  0.01792  0.25197  1.0000
  H   H922      1.0  0.64753  0.04621  0.46885  1.0000
  S   S235      1.0  0.52296  0.00076  0.28448  1.0000
  H   H923      1.0  0.40914  0.04501  0.26357  1.0000
  H   H924      1.0  0.62252  0.99410  0.45025  1.0000
  H   H925      1.0  0.58038  0.00119  0.30836  1.0000
  S   S236      1.0  0.56252  0.00135  0.28705  1.0000
  S   S237      1.0  0.62325  0.02949  0.48200  1.0000
  C   C584      1.0  0.52272  0.00309  0.24340  1.0000
  H   H926      1.0  0.40919  0.00586  0.28311  1.0000
  C   C585      1.0  0.58588  0.99644  0.31766  1.0000
  C   C586      1.0  0.66397  0.03253  0.49049  1.0000
  H   H927      1.0  0.52923  0.02094  0.25701  1.0000
  H   H928      1.0  0.49377  0.01641  0.25108  1.0000
  H   H929      1.0  0.60222  0.99916  0.41387  1.0000
  H   H930      1.0  0.36506  0.99648  0.45540  1.0000
  H   H931      1.0  0.37652  0.99777  0.33096  1.0000
  H   H932      1.0  0.66339  0.00942  0.41231  1.0000
  H   H933      1.0  0.57148  0.00143  0.40802  1.0000
  H   H934      1.0  0.53374  0.99389  0.32574  1.0000
  C   C587      1.0  0.63417  0.99434  0.41320  1.0000
  S   S238      1.0  0.66473  0.99354  0.36130  1.0000
  S   S239      1.0  0.59690  0.02145  0.52184  1.0000
  H   H935      1.0  0.55248  0.05488  0.54475  1.0000
  C   C588      1.0  0.35337  0.01818  0.55909  1.0000
  H   H936      1.0  0.48311  0.11266  0.69647  1.0000
  C   C589      1.0  0.44888  0.00513  0.58777  1.0000
  H   H937      1.0  0.39005  0.02774  0.71035  1.0000
  Fe  Fe118     1.0  0.50657  0.01019  0.59550  1.0000
  S   S240      1.0  0.52649  0.01760  0.57928  1.0000
  S   S241      1.0  0.48278  0.02379  0.59943  1.0000
  H   H938      1.0  0.37383  0.00586  0.73509  1.0000
  C   C590      1.0  0.42540  0.01195  0.71882  1.0000
  Fe  Fe119     1.0  0.53847  0.00817  0.59819  1.0000
  S   S242      1.0  0.55526  0.01733  0.60353  1.0000
  H   H939      1.0  0.41257  0.13136  0.71222  1.0000
  H   H940      1.0  0.42580  0.02528  0.54112  1.0000
  H   H941      1.0  0.52121  0.02332  0.67381  1.0000
  H   H942      1.0  0.53792  0.02086  0.64929  1.0000
  H   H943      1.0  0.43299  0.07528  0.62545  1.0000
  C   C591      1.0  0.45947  0.00071  0.73783  1.0000
  C   C592      1.0  0.65153  0.03566  0.50191  1.0000
  C   C593      1.0  0.51749  0.01326  0.67403  1.0000
  C   C594      1.0  0.36316  0.02973  0.70444  1.0000
  H   H944      1.0  0.34463  0.01326  0.54273  1.0000
  H   H945      1.0  0.47851  0.99331  0.61805  1.0000
  C   C595      1.0  0.42812  0.12447  0.72685  1.0000
  Fe  Fe120     1.0  0.52231  0.05000  0.68972  1.0000
  S   S243      1.0  0.51509  0.07287  0.67689  1.0000
  S   S244      1.0  0.50453  0.03760  0.70232  1.0000
  Fe  Fe121     1.0  0.55492  0.05116  0.68049  1.0000
  S   S245      1.0  0.55060  0.07412  0.66619  1.0000
  S   S246      1.0  0.57783  0.03810  0.68368  1.0000
  Fe  Fe122     1.0  0.53176  0.07883  0.68553  1.0000
  S   S247      1.0  0.52382  0.09889  0.69568  1.0000
  Fe  Fe123     1.0  0.53429  0.06579  0.65894  1.0000
  S   S248      1.0  0.52744  0.07006  0.63720  1.0000
  S   S249      1.0  0.53714  0.05649  0.70029  1.0000
  S   S250      1.0  0.54055  0.04232  0.67131  1.0000
  H   H946      1.0  0.40410  0.06770  0.65949  1.0000
  H   H947      1.0  0.39492  0.00391  0.68962  1.0000
  H   H948      1.0  0.51539  0.99529  0.64869  1.0000
  S   S251      1.0  0.40015  0.02831  0.58872  1.0000
  H   H949      1.0  0.58063  0.05974  0.55026  1.0000
  Fe  Fe124     1.0  0.39518  0.03107  0.61225  1.0000
  Fe  Fe125     1.0  0.38011  0.01801  0.59555  1.0000
  H   H950      1.0  0.43656  0.04751  0.62908  1.0000
  Fe  Fe126     1.0  0.43199  0.06216  0.68420  1.0000
  S   S252      1.0  0.45290  0.05869  0.66661  1.0000
  H   H951      1.0  0.58512  0.03312  0.56185  1.0000
  S   S253      1.0  0.41888  0.04446  0.69345  1.0000
  H   H952      1.0  0.55155  0.00333  0.72179  1.0000
  H   H953      1.0  0.43378  0.01795  0.71188  1.0000
  H   H954      1.0  0.41163  0.06472  0.63338  1.0000
  C   C596      1.0  0.49056  0.04238  0.69201  1.0000
  C   C597      1.0  0.49360  0.04874  0.67684  1.0000
  C   C598      1.0  0.48214  0.05334  0.66882  1.0000
  C   C599      1.0  0.46768  0.05144  0.67598  1.0000
  C   C600      1.0  0.46483  0.04449  0.69097  1.0000
  C   C601      1.0  0.47618  0.04020  0.69906  1.0000
  H   H955      1.0  0.50476  0.05022  0.67125  1.0000
  H   H956      1.0  0.48440  0.05873  0.65722  1.0000
  H   H957      1.0  0.45387  0.04233  0.69636  1.0000
  H   H958      1.0  0.47377  0.03523  0.71076  1.0000
  C   C602      1.0  0.52071  0.09274  0.71500  1.0000
  C   C603      1.0  0.50670  0.09769  0.72370  1.0000
  H   H959      1.0  0.47755  0.01289  0.68914  1.0000
  H   H960      1.0  0.44879  0.09793  0.70346  1.0000
  H   H961      1.0  0.44718  0.04510  0.64293  1.0000
  C   C604      1.0  0.53177  0.08210  0.72167  1.0000
  H   H962      1.0  0.49818  0.10603  0.71862  1.0000
  H   H963      1.0  0.49672  0.02528  0.65724  1.0000
  H   H964      1.0  0.56826  0.01155  0.67976  1.0000
  H   H965      1.0  0.54270  0.07839  0.71497  1.0000
  C   C605      1.0  0.50625  0.05070  0.73567  1.0000
  H   H966      1.0  0.42897  0.13569  0.72611  1.0000
  C   C606      1.0  0.56287  0.01944  0.70597  1.0000
  C   C607      1.0  0.57673  0.02299  0.69879  1.0000
  C   C608      1.0  0.58991  0.01354  0.70269  1.0000
  H   H967      1.0  0.54204  0.00111  0.65628  1.0000
  H   H968      1.0  0.33630  0.99395  0.58034  1.0000
  H   H969      1.0  0.55267  0.02649  0.70287  1.0000
  H   H970      1.0  0.60066  0.01628  0.69723  1.0000
  H   H971      1.0  0.44321  0.06241  0.60427  1.0000
  C   C609      1.0  0.46986  0.01698  0.59429  1.0000
  S   S254      1.0  0.39326  0.99476  0.60225  1.0000
  S   S255      1.0  0.36397  0.02477  0.57993  1.0000
  H   H972      1.0  0.45531  0.11410  0.70244  1.0000
  C   C610      1.0  0.44400  0.01650  0.59576  1.0000
  C   C611      1.0  0.45444  0.02230  0.59913  1.0000
  H   H973      1.0  0.45874  0.07132  0.59950  1.0000
  H   H974      1.0  0.52440  0.00353  0.68041  1.0000
  H   H975      1.0  0.43216  0.02097  0.59925  1.0000
  H   H976      1.0  0.45047  0.03089  0.60549  1.0000
  C   C612      1.0  0.37697  0.05095  0.65920  1.0000
  H   H977      1.0  0.55721  0.99756  0.52205  1.0000
  C   C613      1.0  0.40962  0.02340  0.66826  1.0000
  H   H978      1.0  0.45897  0.99912  0.72686  1.0000
  H   H979      1.0  0.51182  0.03484  0.65034  1.0000
  H   H980      1.0  0.57630  0.03676  0.58010  1.0000
  H   H981      1.0  0.35908  0.04197  0.70104  1.0000
  C   C614      1.0  0.57548  0.99629  0.71971  1.0000
  H   H982      1.0  0.55132  0.05319  0.58451  1.0000
  H   H983      1.0  0.60720  0.00471  0.65667  1.0000
  C   C615      1.0  0.54717  0.03152  0.61341  1.0000
  C   C616      1.0  0.55588  0.03539  0.62087  1.0000
  C   C617      1.0  0.54969  0.04693  0.62865  1.0000
  C   C618      1.0  0.53496  0.05498  0.62843  1.0000
  C   C619      1.0  0.52627  0.05117  0.62087  1.0000
  C   C620      1.0  0.53229  0.03925  0.61358  1.0000
  H   H984      1.0  0.56745  0.02951  0.62055  1.0000
  H   H985      1.0  0.55644  0.05000  0.63435  1.0000
  H   H986      1.0  0.51488  0.05744  0.62070  1.0000
  H   H987      1.0  0.52556  0.03632  0.60775  1.0000
  C   C621      1.0  0.58205  0.01244  0.53010  1.0000
  C   C622      1.0  0.57721  0.00994  0.54553  1.0000
  N   N59       1.0  0.41296  0.00834  0.54921  1.0000
  C   C623      1.0  0.43616  0.11256  0.73577  1.0000
  H   H988      1.0  0.35410  0.02446  0.70439  1.0000
  H   H989      1.0  0.56126  0.00156  0.56443  1.0000
  H   H990      1.0  0.58309  0.01295  0.55211  1.0000
  C   C624      1.0  0.53424  0.01045  0.65054  1.0000
  C   C625      1.0  0.47472  0.00605  0.58577  1.0000
  S   S256      1.0  0.51791  0.00341  0.61479  1.0000
  H   H991      1.0  0.45809  0.10708  0.68599  1.0000
  C   C626      1.0  0.37990  0.03206  0.71838  1.0000
  H   H992      1.0  0.48546  0.10485  0.68061  1.0000
  Fe  Fe127     1.0  0.61198  0.01423  0.50125  1.0000
  H   H993      1.0  0.49589  0.09523  0.69477  1.0000
  H   H994      1.0  0.64107  0.04904  0.51850  1.0000
  H   H995      1.0  0.34782  0.02983  0.55711  1.0000
  C   C627      1.0  0.48909  0.00138  0.70704  1.0000
  H   H996      1.0  0.56220  0.07144  0.55395  1.0000
  C   C628      1.0  0.66143  0.05519  0.50498  1.0000
  C   C629      1.0  0.38157  0.04880  0.64452  1.0000
  N   N60       1.0  0.36714  0.02566  0.71917  1.0000
  C   C630      1.0  0.35154  0.00881  0.55093  1.0000
  S   S257      1.0  0.40930  0.00886  0.62016  1.0000
  C   C631      1.0  0.41670  0.01621  0.73194  1.0000
  H   H997      1.0  0.47457  0.06701  0.61817  1.0000
  H   H998      1.0  0.47088  0.00233  0.73691  1.0000
  C   C632      1.0  0.38520  0.05758  0.66471  1.0000
  C   C633      1.0  0.39423  0.05358  0.63526  1.0000
  H   H999      1.0  0.54088  0.06045  0.56995  1.0000
  C   C634      1.0  0.56225  0.00615  0.71646  1.0000
  H   H1000     1.0  0.64311  0.02910  0.50540  1.0000
  H   H1001     1.0  0.53560  0.00859  0.63918  1.0000
  C   C635      1.0  0.58929  0.00019  0.71317  1.0000
  H   H1002     1.0  0.57853  0.00988  0.50967  1.0000
  H   H1003     1.0  0.46992  0.10104  0.72135  1.0000
  H   H1004     1.0  0.55494  0.03551  0.55324  1.0000
  H   H1005     1.0  0.37531  0.04352  0.64035  1.0000
  C   C636      1.0  0.36226  0.01258  0.56982  1.0000
  C   C637      1.0  0.57415  0.03520  0.56978  1.0000
  H   H1006     1.0  0.57778  0.02848  0.65722  1.0000
  C   C638      1.0  0.39311  0.01237  0.66140  1.0000
  C   C639      1.0  0.44455  0.07304  0.62735  1.0000
  N   N61       1.0  0.58378  0.00463  0.66070  1.0000
  H   H1007     1.0  0.45526  0.03608  0.62744  1.0000
  C   C640      1.0  0.42330  0.99988  0.71461  1.0000
  H   H1008     1.0  0.35068  0.04396  0.72699  1.0000
  Fe  Fe128     1.0  0.41281  0.00551  0.59716  1.0000
  H   H1009     1.0  0.42869  0.99510  0.53441  1.0000
  H   H1010     1.0  0.65722  0.01115  0.53790  1.0000
  H   H1011     1.0  0.37715  0.04438  0.71476  1.0000
  H   H1012     1.0  0.50928  0.02318  0.63972  1.0000
  H   H1013     1.0  0.49007  0.01135  0.70953  1.0000
  C   C641      1.0  0.41979  0.00221  0.65674  1.0000
  H   H1014     1.0  0.42010  0.02151  0.67231  1.0000
  C   C642      1.0  0.45810  0.10375  0.69807  1.0000
  C   C643      1.0  0.65030  0.04699  0.50924  1.0000
  C   C644      1.0  0.56494  0.00339  0.55250  1.0000
  S   S258      1.0  0.39557  0.06706  0.71420  1.0000
  C   C645      1.0  0.56026  0.04521  0.55016  1.0000
  C   C646      1.0  0.40414  0.99604  0.73691  1.0000
  H   H1015     1.0  0.39416  0.02280  0.56038  1.0000
  H   H1016     1.0  0.41867  0.01260  0.52537  1.0000
  H   H1017     1.0  0.53407  0.03318  0.73242  1.0000
  H   H1018     1.0  0.44358  0.07195  0.63945  1.0000
  H   H1019     1.0  0.47626  0.08236  0.68355  1.0000
  C   C647      1.0  0.57124  0.00254  0.67354  1.0000
  H   H1020     1.0  0.46213  0.05158  0.60185  1.0000
  S   S259      1.0  0.40095  0.05033  0.61717  1.0000
  C   C648      1.0  0.46954  0.05735  0.62441  1.0000
  C   C649      1.0  0.54934  0.05086  0.57446  1.0000
  H   H1021     1.0  0.57271  0.06382  0.56842  1.0000
  H   H1022     1.0  0.48352  0.08405  0.71940  1.0000
  C   C650      1.0  0.48477  0.10210  0.69281  1.0000
  S   S260      1.0  0.43197  0.06595  0.70644  1.0000
  H   H1023     1.0  0.36717  0.04725  0.66634  1.0000
  C   C651      1.0  0.45456  0.06131  0.60627  1.0000
  C   C652      1.0  0.50865  0.02424  0.65120  1.0000
  C   C653      1.0  0.42428  0.01563  0.55046  1.0000
  C   C654      1.0  0.41886  0.12202  0.71897  1.0000
  S   S261      1.0  0.38051  0.05841  0.68358  1.0000
  H   H1024     1.0  0.47708  0.04728  0.62054  1.0000
  C   C655      1.0  0.47247  0.09073  0.71697  1.0000
  H   H1025     1.0  0.42119  0.00941  0.64542  1.0000
  H   H1026     1.0  0.34421  0.02709  0.73097  1.0000
  C   C656      1.0  0.57003  0.06139  0.55878  1.0000
  H   H1027     1.0  0.44916  0.08303  0.62148  1.0000
  H   H1028     1.0  0.56971  0.02493  0.57288  1.0000
  H   H1029     1.0  0.39023  0.00187  0.66150  1.0000
  C   C657      1.0  0.44799  0.04648  0.63080  1.0000
  N   N62       1.0  0.56344  0.04817  0.56329  1.0000
  H   H1030     1.0  0.39439  0.01881  0.64975  1.0000
  Fe  Fe129     1.0  0.39881  0.06316  0.69129  1.0000
  H   H1031     1.0  0.46961  0.05592  0.63635  1.0000
  H   H1032     1.0  0.54424  0.04097  0.57828  1.0000
  S   S262      1.0  0.41208  0.08066  0.68020  1.0000
  C   C658      1.0  0.40206  0.06074  0.64061  1.0000
  C   C659      1.0  0.39773  0.06251  0.65537  1.0000
  H   H1033     1.0  0.48605  0.07253  0.69824  1.0000
  H   H1034     1.0  0.56097  0.00260  0.67002  1.0000
  H   H1035     1.0  0.37641  0.99310  0.58042  1.0000
  H   H1036     1.0  0.56932  0.02073  0.64729  1.0000
  N   N63       1.0  0.47268  0.09421  0.70090  1.0000
  H   H1037     1.0  0.46385  0.08432  0.72339  1.0000
  H   H1038     1.0  0.35668  0.02875  0.74138  1.0000
  H   H1039     1.0  0.40027  0.02900  0.67615  1.0000
  C   C660      1.0  0.47542  0.08024  0.69576  1.0000
  S   S263      1.0  0.37375  0.02308  0.61850  1.0000
  H   H1040     1.0  0.42539  0.08446  0.72862  1.0000
  Fe  Fe130     1.0  0.41694  0.04987  0.71537  1.0000
  Fe  Fe131     1.0  0.41081  0.08285  0.70340  1.0000
  H   H1041     1.0  0.46622  0.07424  0.70123  1.0000
  N   N64       1.0  0.51858  0.01139  0.65890  1.0000
  N   N65       1.0  0.45416  0.05955  0.62221  1.0000
  C   C661      1.0  0.57491  0.00789  0.52162  1.0000
  H   H1042     1.0  0.57073  0.04270  0.54165  1.0000
  C   C662      1.0  0.40517  0.99939  0.68189  1.0000
  C   C663      1.0  0.48224  0.00220  0.69545  1.0000
  C   C664      1.0  0.51394  0.99760  0.65986  1.0000
  C   C665      1.0  0.52463  0.02751  0.73494  1.0000
  S   S264      1.0  0.43585  0.99717  0.58434  1.0000
  S   S265      1.0  0.63358  0.99840  0.50514  1.0000
  N   N66       1.0  0.40693  0.00934  0.66708  1.0000
  H   H1043     1.0  0.40827  0.99904  0.57249  1.0000
  C   C666      1.0  0.37134  0.00931  0.72377  1.0000
  H   H1044     1.0  0.41480  0.99782  0.68709  1.0000
  C   C667      1.0  0.39828  0.01903  0.54965  1.0000
  H   H1045     1.0  0.50575  0.01462  0.68044  1.0000
  H   H1046     1.0  0.57671  0.99360  0.64780  1.0000
  S   S266      1.0  0.40641  0.10508  0.70913  1.0000
  C   C668      1.0  0.35871  0.99377  0.55335  1.0000
  C   C669      1.0  0.41788  0.10759  0.71957  1.0000
  H   H1047     1.0  0.52844  0.01586  0.74077  1.0000
  C   C670      1.0  0.66633  0.00183  0.54171  1.0000
  H   H1048     1.0  0.41071  0.03124  0.65730  1.0000
  H   H1049     1.0  0.37301  0.02634  0.69569  1.0000
  S   S267      1.0  0.41801  0.03235  0.73621  1.0000
  H   H1050     1.0  0.39890  0.02910  0.54064  1.0000
  H   H1051     1.0  0.36220  0.00402  0.72400  1.0000
  C   C671      1.0  0.56279  0.00104  0.52861  1.0000
  C   C672      1.0  0.42604  0.09557  0.72835  1.0000
  H   H1052     1.0  0.48649  0.00236  0.58135  1.0000
  C   C673      1.0  0.52874  0.07630  0.73701  1.0000
  C   C674      1.0  0.55772  0.99890  0.54405  1.0000
  H   H1053     1.0  0.38332  0.01874  0.66822  1.0000
  H   H1054     1.0  0.50195  0.99826  0.66544  1.0000
  H   H1055     1.0  0.42099  0.01977  0.56097  1.0000
  C   C675      1.0  0.50351  0.09158  0.73894  1.0000
  H   H1056     1.0  0.38308  0.02942  0.72934  1.0000
  C   C676      1.0  0.35409  0.03161  0.73012  1.0000
  H   H1057     1.0  0.50282  0.05091  0.72538  1.0000
  C   C677      1.0  0.36960  0.99757  0.57213  1.0000
  H   H1058     1.0  0.43540  0.00775  0.55064  1.0000
  H   H1059     1.0  0.42998  0.99673  0.70437  1.0000
  C   C678      1.0  0.46427  0.00004  0.58263  1.0000
  H   H1060     1.0  0.59571  0.01245  0.67214  1.0000
  Fe  Fe132     1.0  0.38848  0.00049  0.62455  1.0000
  H   H1061     1.0  0.38155  0.00444  0.71613  1.0000
  H   H1062     1.0  0.52266  0.02702  0.72412  1.0000
  H   H1063     1.0  0.49629  0.02670  0.73636  1.0000
  H   H1064     1.0  0.40933  0.99753  0.53389  1.0000
  S   S268      1.0  0.66183  0.06743  0.51549  1.0000
  Fe  Fe133     1.0  0.53330  0.99412  0.57593  1.0000
  H   H1065     1.0  0.43045  0.00007  0.66049  1.0000
  C   C679      1.0  0.43503  0.09805  0.73665  1.0000
  C   C680      1.0  0.59739  0.00355  0.66603  1.0000
  C   C681      1.0  0.57977  0.01944  0.65114  1.0000
  H   H1066     1.0  0.58885  0.02135  0.64118  1.0000
  C   C682      1.0  0.41764  0.00317  0.53507  1.0000
  H   H1067     1.0  0.66486  0.00391  0.51376  1.0000
  H   H1068     1.0  0.38954  0.01400  0.54841  1.0000
  C   C683      1.0  0.41162  0.99548  0.56172  1.0000
  H   H1069     1.0  0.51557  0.05661  0.73226  1.0000
  C   C684      1.0  0.40636  0.00802  0.74120  1.0000
  H   H1070     1.0  0.59626  0.99402  0.64250  1.0000
  H   H1071     1.0  0.45121  0.01118  0.73984  1.0000
  H   H1072     1.0  0.59954  0.99259  0.71571  1.0000
  C   C685      1.0  0.58670  0.99299  0.65214  1.0000
  H   H1073     1.0  0.60039  0.99273  0.67376  1.0000
  H   H1074     1.0  0.58496  0.18955  0.98477  1.0000
  H   H1075     1.0  0.45655  0.99651  0.79873  1.0000
  C   C686      1.0  0.50423  0.22738  0.88582  1.0000
  H   H1076     1.0  0.44772  0.19046  0.79937  1.0000
  H   H1077     1.0  0.48835  0.32573  0.88642  1.0000
  H   H1078     1.0  0.46089  0.17757  0.93215  1.0000
  H   H1079     1.0  0.53015  0.15745  0.93782  1.0000
  H   H1080     1.0  0.51080  0.19529  0.87392  1.0000
  H   H1081     1.0  0.39838  0.05383  0.78532  1.0000
  H   H1082     1.0  0.51865  0.09344  0.78030  1.0000
  H   H1083     1.0  0.51459  0.14958  0.93950  1.0000
  S   S269      1.0  0.48481  0.14918  0.96514  1.0000
  H   H1084     1.0  0.50393  0.29598  0.96021  1.0000
  Fe  Fe134     1.0  0.50257  0.12812  0.96546  1.0000
  S   S270      1.0  0.51289  0.11902  0.94481  1.0000
  H   H1085     1.0  0.50397  0.04162  0.76512  1.0000
  C   C687      1.0  0.47731  0.21858  0.84184  1.0000
  C   C688      1.0  0.60731  0.21099  0.92648  1.0000
  H   H1086     1.0  0.50616  0.19796  0.89263  1.0000
  H   H1087     1.0  0.50115  0.17296  0.91449  1.0000
  H   H1088     1.0  0.44914  0.16660  0.81808  1.0000
  H   H1089     1.0  0.45860  0.18166  0.96310  1.0000
  H   H1090     1.0  0.48180  0.17583  0.82478  1.0000
  S   S271      1.0  0.58709  0.23170  0.96069  1.0000
  S   S272      1.0  0.55775  0.21945  0.84915  1.0000
  Fe  Fe135     1.0  0.45642  0.06988  0.78478  1.0000
  S   S273      1.0  0.44281  0.09293  0.78628  1.0000
  S   S274      1.0  0.44520  0.05072  0.79025  1.0000
  Fe  Fe136     1.0  0.48539  0.08009  0.77242  1.0000
  S   S275      1.0  0.47449  0.10401  0.77258  1.0000
  H   H1091     1.0  0.43306  0.17587  0.96773  1.0000
  Fe  Fe137     1.0  0.46167  0.09527  0.79509  1.0000
  S   S276      1.0  0.45799  0.10455  0.81559  1.0000
  Fe  Fe138     1.0  0.45685  0.09953  0.76371  1.0000
  H   H1092     1.0  0.50184  0.01581  0.75323  1.0000
  S   S277      1.0  0.47400  0.07145  0.79561  1.0000
  S   S278      1.0  0.46900  0.07635  0.76151  1.0000
  Fe  Fe139     1.0  0.49662  0.15174  0.84318  1.0000
  S   S279      1.0  0.47390  0.16126  0.85576  1.0000
  S   S280      1.0  0.49925  0.14355  0.82219  1.0000
  Fe  Fe140     1.0  0.51274  0.16141  0.86156  1.0000
  S   S281      1.0  0.49123  0.17219  0.87490  1.0000
  S   S282      1.0  0.53312  0.16093  0.86964  1.0000
  Fe  Fe141     1.0  0.48374  0.15171  0.87607  1.0000
  S   S283      1.0  0.47067  0.14290  0.89850  1.0000
  Fe  Fe142     1.0  0.48362  0.18075  0.85340  1.0000
  S   S284      1.0  0.46877  0.20336  0.84821  1.0000
  S   S285      1.0  0.50576  0.14019  0.86383  1.0000
  S   S286      1.0  0.50589  0.17201  0.83970  1.0000
  C   C689      1.0  0.51566  0.06910  0.80122  1.0000
  C   C690      1.0  0.43028  0.18608  0.95919  1.0000
  H   H1093     1.0  0.54468  0.14500  0.91677  1.0000
  C   C691      1.0  0.46896  0.11606  0.81708  1.0000
  C   C692      1.0  0.47893  0.12208  0.80478  1.0000
  C   C693      1.0  0.48816  0.13045  0.80654  1.0000
  C   C694      1.0  0.48738  0.13302  0.82055  1.0000
  C   C695      1.0  0.47716  0.12733  0.83279  1.0000
  C   C696      1.0  0.46800  0.11886  0.83104  1.0000
  H   H1094     1.0  0.47956  0.12023  0.79394  1.0000
  H   H1095     1.0  0.49592  0.13500  0.79699  1.0000
  H   H1096     1.0  0.47642  0.12927  0.84363  1.0000
  H   H1097     1.0  0.46028  0.11428  0.84061  1.0000
  C   C697      1.0  0.55216  0.20253  0.85364  1.0000
  C   C698      1.0  0.54204  0.20068  0.84631  1.0000
  C   C699      1.0  0.53625  0.18781  0.85096  1.0000
  C   C700      1.0  0.54098  0.17658  0.86262  1.0000
  C   C701      1.0  0.55170  0.17812  0.86938  1.0000
  C   C702      1.0  0.55714  0.19114  0.86502  1.0000
  H   H1098     1.0  0.52813  0.18659  0.84556  1.0000
  H   H1099     1.0  0.55571  0.16929  0.87810  1.0000
  H   H1100     1.0  0.58678  0.31917  0.97614  1.0000
  C   C703      1.0  0.59006  0.22326  0.94568  1.0000
  C   C704      1.0  0.57796  0.22179  0.94091  1.0000
  C   C705      1.0  0.58052  0.21488  0.92899  1.0000
  H   H1101     1.0  0.56663  0.22618  0.94618  1.0000
  H   H1102     1.0  0.57113  0.21357  0.92547  1.0000
  C   C706      1.0  0.50076  0.12420  0.93236  1.0000
  C   C707      1.0  0.48540  0.12994  0.93697  1.0000
  C   C708      1.0  0.47610  0.13532  0.92658  1.0000
  C   C709      1.0  0.48219  0.13523  0.91154  1.0000
  C   C710      1.0  0.49750  0.12928  0.90699  1.0000
  C   C711      1.0  0.50671  0.12351  0.91743  1.0000
  H   H1103     1.0  0.48064  0.13005  0.94855  1.0000
  H   H1104     1.0  0.46422  0.13969  0.93017  1.0000
  H   H1105     1.0  0.50223  0.12892  0.89546  1.0000
  H   H1106     1.0  0.51851  0.11882  0.91383  1.0000
  C   C712      1.0  0.64282  0.30503  0.89410  1.0000
  C   C713      1.0  0.61767  0.30702  0.89150  1.0000
  C   C714      1.0  0.49197  0.21736  0.83338  1.0000
  H   H1107     1.0  0.54997  0.19307  0.97241  1.0000
  H   H1108     1.0  0.52270  0.18380  0.91287  1.0000
  H   H1109     1.0  0.42232  0.07242  0.77762  1.0000
  S   S287      1.0  0.56706  0.23803  0.90153  1.0000
  H   H1110     1.0  0.44277  0.17349  0.93546  1.0000
  C   C715      1.0  0.58712  0.17900  0.96083  1.0000
  H   H1111     1.0  0.43735  0.05292  0.76370  1.0000
  H   H1112     1.0  0.52520  0.09753  0.80890  1.0000
  H   H1113     1.0  0.48676  0.17587  0.80544  1.0000
  H   H1114     1.0  0.65001  0.30848  0.89945  1.0000
  H   H1115     1.0  0.51772  0.02442  0.76460  1.0000
  H   H1116     1.0  0.50811  0.10679  0.79153  1.0000
  H   H1117     1.0  0.48975  0.08586  0.81420  1.0000
  C   C716      1.0  0.45951  0.19002  0.79959  1.0000
  C   C717      1.0  0.49851  0.30283  0.96878  1.0000
  S   S288      1.0  0.41637  0.32375  0.91211  1.0000
  H   H1118     1.0  0.52656  0.29169  0.98795  1.0000
  C   C718      1.0  0.45218  0.24124  0.92196  1.0000
  N   N67       1.0  0.51313  0.08426  0.80374  1.0000
  C   C719      1.0  0.50045  0.08655  0.81646  1.0000
  C   C720      1.0  0.51070  0.22385  0.86067  1.0000
  H   H1119     1.0  0.39095  0.07023  0.76230  1.0000
  H   H1120     1.0  0.43125  0.20055  0.93069  1.0000
  S   S289      1.0  0.52499  0.23342  0.91306  1.0000
  Fe  Fe143     1.0  0.56403  0.22396  0.86836  1.0000
  C   C721      1.0  0.47667  0.00473  0.79357  1.0000
  C   C722      1.0  0.48258  0.01746  0.78967  1.0000
  C   C723      1.0  0.47301  0.03165  0.78841  1.0000
  C   C724      1.0  0.45748  0.03314  0.79107  1.0000
  C   C725      1.0  0.45161  0.02044  0.79451  1.0000
  C   C726      1.0  0.46119  0.00625  0.79575  1.0000
  H   H1121     1.0  0.49455  0.01631  0.78802  1.0000
  H   H1122     1.0  0.47758  0.04142  0.78576  1.0000
  H   H1123     1.0  0.43961  0.02154  0.79660  1.0000
  H   H1124     1.0  0.41630  0.08429  0.76133  1.0000
  C   C727      1.0  0.43937  0.20215  0.93632  1.0000
  H   H1125     1.0  0.39417  0.30772  0.91563  1.0000
  C   C728      1.0  0.57033  0.16967  0.98322  1.0000
  Fe  Fe144     1.0  0.58072  0.21780  0.89279  1.0000
  H   H1126     1.0  0.52260  0.22390  0.85984  1.0000
  C   C729      1.0  0.47877  0.18182  0.81398  1.0000
  Fe  Fe145     1.0  0.56382  0.23502  0.97471  1.0000
  H   H1127     1.0  0.48153  0.21478  0.88816  1.0000
  H   H1128     1.0  0.53241  0.17475  0.89757  1.0000
  H   H1129     1.0  0.62861  0.31109  0.92102  1.0000
  N   N68       1.0  0.51093  0.03534  0.74389  1.0000
  C   C730      1.0  0.40965  0.05006  0.77849  1.0000
  H   H1130     1.0  0.54100  0.17189  0.91301  1.0000
  H   H1131     1.0  0.40270  0.07927  0.77770  1.0000
  C   C731      1.0  0.41374  0.07502  0.77076  1.0000
  H   H1132     1.0  0.61887  0.29473  0.89469  1.0000
  H   H1133     1.0  0.44130  0.08883  0.74348  1.0000
  S   S290      1.0  0.54484  0.22704  0.97213  1.0000
  H   H1134     1.0  0.49252  0.09521  0.74545  1.0000
  N   N69       1.0  0.41362  0.06185  0.76556  1.0000
  Fe  Fe146     1.0  0.42117  0.22284  0.98612  1.0000
  H   H1135     1.0  0.50350  0.15325  0.91803  1.0000
  N   N70       1.0  0.52324  0.16045  0.91731  1.0000
  C   C732      1.0  0.51270  0.19809  0.97711  1.0000
  N   N71       1.0  0.41694  0.32387  0.86714  1.0000
  C   C733      1.0  0.51983  0.15918  0.93358  1.0000
  C   C734      1.0  0.50961  0.09523  0.79027  1.0000
  C   C735      1.0  0.42865  0.05623  0.75690  1.0000
  C   C736      1.0  0.48756  0.21861  0.87665  1.0000
  S   S291      1.0  0.51009  0.07234  0.76441  1.0000
  H   H1136     1.0  0.53626  0.14713  0.90132  1.0000
  H   H1137     1.0  0.44928  0.20483  0.92765  1.0000
  C   C737      1.0  0.50923  0.16252  0.91225  1.0000
  H   H1138     1.0  0.41786  0.04672  0.78588  1.0000
  H   H1139     1.0  0.51842  0.06047  0.81109  1.0000
  S   S292      1.0  0.51704  0.13516  0.97623  1.0000
  H   H1140     1.0  0.43401  0.21216  0.94124  1.0000
  C   C738      1.0  0.56049  0.18958  0.96443  1.0000
  H   H1141     1.0  0.64673  0.30819  0.88186  1.0000
  H   H1142     1.0  0.45411  0.16565  0.94920  1.0000
  N   N72       1.0  0.46302  0.18220  0.81424  1.0000
  C   C739      1.0  0.45294  0.19013  0.82578  1.0000
  C   C740      1.0  0.46092  0.16683  0.81760  1.0000
  H   H1143     1.0  0.46698  0.18432  0.79065  1.0000
  H   H1144     1.0  0.45446  0.20167  0.82379  1.0000
  H   H1145     1.0  0.52979  0.07807  0.81706  1.0000
  H   H1146     1.0  0.44093  0.19078  0.82625  1.0000
  H   H1147     1.0  0.46374  0.16051  0.82847  1.0000
  H   H1148     1.0  0.46833  0.16056  0.80907  1.0000
  H   H1149     1.0  0.42158  0.18454  0.95427  1.0000
  H   H1150     1.0  0.51606  0.22749  0.88540  1.0000
  H   H1151     1.0  0.48078  0.19319  0.81176  1.0000
  C   C741      1.0  0.49827  0.22995  0.82817  1.0000
  H   H1152     1.0  0.56544  0.19222  0.87027  1.0000
  H   H1153     1.0  0.51472  0.32383  0.95854  1.0000
  C   C742      1.0  0.53382  0.14677  0.91348  1.0000
  H   H1154     1.0  0.49025  0.29693  0.97713  1.0000
  H   H1155     1.0  0.46474  0.19429  0.94636  1.0000
  H   H1156     1.0  0.52500  0.06708  0.79153  1.0000
  N   N73       1.0  0.50342  0.21811  0.87606  1.0000
  S   S293      1.0  0.45791  0.22907  0.93764  1.0000
  H   H1157     1.0  0.52869  0.32442  0.88019  1.0000
  C   C743      1.0  0.45068  0.17585  0.94083  1.0000
  C   C744      1.0  0.60475  0.21774  0.93855  1.0000
  C   C745      1.0  0.49876  0.02740  0.74690  1.0000
  C   C746      1.0  0.59518  0.20986  0.92150  1.0000
  H   H1158     1.0  0.49667  0.05730  0.74253  1.0000
  H   H1159     1.0  0.45521  0.18447  0.83700  1.0000
  H   H1160     1.0  0.46099  0.20165  0.79674  1.0000
  H   H1161     1.0  0.51190  0.16931  0.93694  1.0000
  H   H1162     1.0  0.40957  0.03992  0.77494  1.0000
  H   H1163     1.0  0.49910  0.09439  0.78782  1.0000
  H   H1164     1.0  0.53837  0.20936  0.83731  1.0000
  H   H1165     1.0  0.52920  0.13678  0.91925  1.0000
  S   S294      1.0  0.56097  0.21002  0.89147  1.0000
  H   H1166     1.0  0.48660  0.21140  0.86967  1.0000
  H   H1167     1.0  0.49834  0.20683  0.83061  1.0000
  H   H1168     1.0  0.61867  0.20714  0.92069  1.0000
  S   S295      1.0  0.41746  0.23301  0.96303  1.0000
  H   H1169     1.0  0.49860  0.09766  0.81906  1.0000
  H   H1170     1.0  0.48141  0.23007  0.87244  1.0000
  C   C747      1.0  0.51408  0.03578  0.75808  1.0000
  H   H1171     1.0  0.43214  0.06475  0.74712  1.0000
  H   H1172     1.0  0.51149  0.16279  0.90012  1.0000
  N   N74       1.0  0.44375  0.18890  0.94776  1.0000
  N   N75       1.0  0.57330  0.18304  0.97193  1.0000
  H   H1173     1.0  0.53014  0.25415  0.81988  1.0000
  H   H1174     1.0  0.42892  0.04631  0.75283  1.0000
  H   H1175     1.0  0.50552  0.06736  0.79877  1.0000
  C   C748      1.0  0.55185  0.30849  0.98870  1.0000
  C   C749      1.0  0.40243  0.06601  0.75610  1.0000
  H   H1176     1.0  0.42505  0.19547  0.96508  1.0000
  S   S296      1.0  0.59823  0.20325  0.90530  1.0000
  C   C750      1.0  0.53012  0.17332  0.90986  1.0000
  H   H1177     1.0  0.51067  0.21684  0.85309  1.0000
  H   H1178     1.0  0.50482  0.23539  0.85637  1.0000
  S   S297      1.0  0.58514  0.23002  0.86892  1.0000
  C   C751      1.0  0.45467  0.19156  0.95472  1.0000
  H   H1179     1.0  0.50243  0.07811  0.82670  1.0000
  H   H1180     1.0  0.44966  0.20108  0.96041  1.0000
  C   C752      1.0  0.46912  0.23224  0.84532  1.0000
  H   H1181     1.0  0.61415  0.21886  0.94222  1.0000
  H   H1182     1.0  0.52338  0.20183  0.88041  1.0000
  H   H1183     1.0  0.39980  0.01116  0.75149  1.0000
  C   C753      1.0  0.51129  0.20261  0.88102  1.0000
  H   H1184     1.0  0.50954  0.22906  0.82149  1.0000
  H   H1185     1.0  0.47226  0.23299  0.90695  1.0000
  H   H1186     1.0  0.58604  0.17098  0.95485  1.0000
  H   H1187     1.0  0.49816  0.23910  0.88254  1.0000
  H   H1188     1.0  0.43239  0.99661  0.75361  1.0000
  H   H1189     1.0  0.55833  0.25191  0.84124  1.0000
  H   H1190     1.0  0.57078  0.25393  0.92518  1.0000
  Fe  Fe147     1.0  0.44134  0.23498  0.95789  1.0000
  H   H1191     1.0  0.62354  0.29513  0.91872  1.0000
  H   H1192     1.0  0.53657  0.08457  0.79754  1.0000
  C   C754      1.0  0.52680  0.08616  0.80695  1.0000
  H   H1193     1.0  0.45778  0.23323  0.85186  1.0000
  H   H1194     1.0  0.56236  0.19956  0.95568  1.0000
  S   S298      1.0  0.54912  0.24461  0.87517  1.0000
  H   H1195     1.0  0.48820  0.03309  0.75350  1.0000
  H   H1196     1.0  0.49920  0.22321  0.89763  1.0000
  Fe  Fe148     1.0  0.54776  0.23117  0.89828  1.0000
  S   S299      1.0  0.44817  0.11631  0.74477  1.0000
  C   C755      1.0  0.51450  0.08084  0.74560  1.0000
  H   H1197     1.0  0.61009  0.31237  0.91889  1.0000
  Fe  Fe149     1.0  0.49825  0.15532  0.97758  1.0000
  H   H1198     1.0  0.56467  0.27179  0.98795  1.0000
  S   S300      1.0  0.58835  0.31847  0.94506  1.0000
  H   H1199     1.0  0.52886  0.26086  0.93138  1.0000
  H   H1200     1.0  0.52592  0.26472  0.85581  1.0000
  H   H1201     1.0  0.46897  0.28477  0.94611  1.0000
  C   C756      1.0  0.55969  0.29572  0.98322  1.0000
  H   H1202     1.0  0.50615  0.31471  0.88995  1.0000
  H   H1203     1.0  0.43601  0.31327  0.85268  1.0000
  Fe  Fe150     1.0  0.58081  0.31106  0.92842  1.0000
  S   S301      1.0  0.59282  0.28937  0.92156  1.0000
  H   H1204     1.0  0.52307  0.04190  0.75616  1.0000
  S   S302      1.0  0.57178  0.27360  0.87138  1.0000
  C   C757      1.0  0.41598  0.30511  0.93969  1.0000
  H   H1205     1.0  0.55092  0.27017  0.84520  1.0000
  H   H1206     1.0  0.52827  0.28644  0.83527  1.0000
  C   C758      1.0  0.52803  0.25800  0.84727  1.0000
  H   H1207     1.0  0.56710  0.29661  0.97238  1.0000
  H   H1208     1.0  0.42320  0.26917  0.91183  1.0000
  C   C759      1.0  0.51120  0.18343  0.98005  1.0000
  C   C760      1.0  0.39886  0.30390  0.92548  1.0000
  H   H1209     1.0  0.51486  0.32265  0.86222  1.0000
  H   H1210     1.0  0.46466  0.25236  0.96869  1.0000
  H   H1211     1.0  0.44975  0.00046  0.76696  1.0000
  Fe  Fe151     1.0  0.48412  0.27634  0.83931  1.0000
  S   S303      1.0  0.48205  0.26857  0.86386  1.0000
  Fe  Fe152     1.0  0.46589  0.30734  0.84186  1.0000
  S   S304      1.0  0.46190  0.30180  0.86668  1.0000
  Fe  Fe153     1.0  0.48609  0.29070  0.86305  1.0000
  S   S305      1.0  0.50087  0.29509  0.87522  1.0000
  Fe  Fe154     1.0  0.45798  0.28055  0.86490  1.0000
  H   H1212     1.0  0.59702  0.17392  0.96609  1.0000
  S   S306      1.0  0.49058  0.29746  0.83833  1.0000
  S   S307      1.0  0.45962  0.28696  0.84029  1.0000
  H   H1213     1.0  0.59093  0.25599  0.89178  1.0000
  C   C761      1.0  0.50216  0.25513  0.90319  1.0000
  Fe  Fe155     1.0  0.47424  0.13767  0.98747  1.0000
  H   H1214     1.0  0.57045  0.27033  0.93108  1.0000
  H   H1215     1.0  0.47561  0.29122  0.90464  1.0000
  H   H1216     1.0  0.54609  0.24805  0.92601  1.0000
  C   C762      1.0  0.51786  0.29047  0.98283  1.0000
  C   C763      1.0  0.47179  0.25516  0.97410  1.0000
  Fe  Fe156     1.0  0.41226  0.25476  0.97006  1.0000
  C   C764      1.0  0.52559  0.26208  0.90020  1.0000
  C   C765      1.0  0.52033  0.27585  0.89150  1.0000
  C   C766      1.0  0.50630  0.27893  0.88797  1.0000
  C   C767      1.0  0.49711  0.26868  0.89396  1.0000
  H   H1217     1.0  0.53694  0.25918  0.90182  1.0000
  H   H1218     1.0  0.52757  0.28363  0.88668  1.0000
  H   H1219     1.0  0.48615  0.27114  0.89138  1.0000
  C   C768      1.0  0.41105  0.29360  0.95094  1.0000
  N   N76       1.0  0.62680  0.31196  0.89880  1.0000
  C   C769      1.0  0.41007  0.31002  0.92683  1.0000
  H   H1220     1.0  0.44417  0.30100  0.91857  1.0000
  H   H1221     1.0  0.52654  0.30623  0.95554  1.0000
  H   H1222     1.0  0.58973  0.18895  0.95230  1.0000
  C   C770      1.0  0.47558  0.24462  0.84056  1.0000
  S   S308      1.0  0.50111  0.17874  0.96979  1.0000
  H   H1223     1.0  0.51112  0.30915  0.93211  1.0000
  C   C771      1.0  0.58833  0.28563  0.90641  1.0000
  C   C772      1.0  0.59261  0.27104  0.90416  1.0000
  C   C773      1.0  0.58794  0.26738  0.89311  1.0000
  C   C774      1.0  0.57933  0.27838  0.88394  1.0000
  C   C775      1.0  0.57579  0.29316  0.88560  1.0000
  C   C776      1.0  0.58010  0.29676  0.89696  1.0000
  H   H1224     1.0  0.59906  0.26239  0.91136  1.0000
  C   C777      1.0  0.51666  0.25163  0.90579  1.0000
  H   H1225     1.0  0.56913  0.30170  0.87853  1.0000
  H   H1226     1.0  0.57676  0.30806  0.89858  1.0000
  C   C778      1.0  0.58861  0.32285  0.98547  1.0000
  H   H1227     1.0  0.56511  0.19705  0.98792  1.0000
  H   H1228     1.0  0.41083  0.31314  0.89003  1.0000
  H   H1229     1.0  0.49524  0.24703  0.90755  1.0000
  H   H1230     1.0  0.41269  0.30199  0.87701  1.0000
  H   H1231     1.0  0.42902  0.30505  0.88064  1.0000
  C   C779      1.0  0.57519  0.19395  0.97927  1.0000
  S   S309      1.0  0.43588  0.25768  0.96277  1.0000
  C   C780      1.0  0.46161  0.24090  0.90799  1.0000
  H   H1232     1.0  0.48488  0.28818  0.91972  1.0000
  C   C781      1.0  0.39985  0.28744  0.94950  1.0000
  H   H1233     1.0  0.56032  0.26791  0.82666  1.0000
  H   H1234     1.0  0.54006  0.27397  0.95103  1.0000
  H   H1235     1.0  0.38493  0.28806  0.93580  1.0000
  H   H1236     1.0  0.54681  0.28837  0.93673  1.0000
  C   C782      1.0  0.49009  0.24358  0.83185  1.0000
  N   N77       1.0  0.54885  0.26825  0.92974  1.0000
  C   C783      1.0  0.54978  0.27591  0.91403  1.0000
  Fe  Fe157     1.0  0.53051  0.24895  0.97664  1.0000
  H   H1237     1.0  0.56875  0.16118  0.97814  1.0000
  H   H1238     1.0  0.55618  0.26826  0.90644  1.0000
  H   H1239     1.0  0.55551  0.28521  0.91136  1.0000
  H   H1240     1.0  0.45011  0.28266  0.94894  1.0000
  H   H1241     1.0  0.55850  0.18154  0.95905  1.0000
  C   C784      1.0  0.39361  0.29279  0.93689  1.0000
  H   H1242     1.0  0.52921  0.28412  0.93740  1.0000
  C   C785      1.0  0.41736  0.31046  0.87920  1.0000
  H   H1243     1.0  0.64484  0.29267  0.89717  1.0000
  H   H1244     1.0  0.44376  0.19197  0.99089  1.0000
  C   C786      1.0  0.45723  0.25083  0.89540  1.0000
  N   N78       1.0  0.53808  0.26372  0.83345  1.0000
  H   H1245     1.0  0.45461  0.30038  0.94036  1.0000
  H   H1246     1.0  0.57972  0.16446  0.98918  1.0000
  S   S310      1.0  0.49071  0.11585  0.98672  1.0000
  H   H1247     1.0  0.60551  0.31204  0.89479  1.0000
  H   H1248     1.0  0.50788  0.20629  0.96840  1.0000
  S   S311      1.0  0.39332  0.27323  0.96338  1.0000
  C   C787      1.0  0.54087  0.27921  0.93913  1.0000
  H   H1249     1.0  0.57706  0.20434  0.97120  1.0000
  H   H1250     1.0  0.52046  0.21382  0.98378  1.0000
  C   C788      1.0  0.44340  0.26103  0.89676  1.0000
  H   H1251     1.0  0.46028  0.26183  0.93581  1.0000
  C   C789      1.0  0.55252  0.26346  0.83677  1.0000
  H   H1252     1.0  0.62091  0.31012  0.87920  1.0000
  S   S312      1.0  0.51337  0.26293  0.96338  1.0000
  C   C790      1.0  0.56412  0.26166  0.93266  1.0000
  H   H1253     1.0  0.51697  0.25828  0.84521  1.0000
  H   H1254     1.0  0.41568  0.28963  0.96084  1.0000
  S   S313      1.0  0.49822  0.25909  0.82633  1.0000
  H   H1255     1.0  0.56384  0.25523  0.94426  1.0000
  C   C791      1.0  0.52048  0.31279  0.96421  1.0000
  H   H1256     1.0  0.47042  0.30443  0.91622  1.0000
  H   H1257     1.0  0.47042  0.26480  0.91704  1.0000
  H   H1258     1.0  0.53829  0.28395  0.81692  1.0000
  C   C792      1.0  0.47386  0.29234  0.91628  1.0000
  N   N79       1.0  0.46247  0.28437  0.92634  1.0000
  C   C793      1.0  0.46836  0.26816  0.92780  1.0000
  H   H1259     1.0  0.47909  0.26438  0.93175  1.0000
  N   N80       1.0  0.50971  0.30505  0.97570  1.0000
  H   H1260     1.0  0.53298  0.24630  0.85209  1.0000
  H   H1261     1.0  0.45101  0.28580  0.90917  1.0000
  H   H1262     1.0  0.43100  0.25179  0.93412  1.0000
  C   C794      1.0  0.45888  0.28819  0.94108  1.0000
  Fe  Fe158     1.0  0.43798  0.24544  0.98586  1.0000
  H   H1263     1.0  0.52020  0.27953  0.82420  1.0000
  H   H1264     1.0  0.59832  0.31472  0.98955  1.0000
  H   H1265     1.0  0.43984  0.28315  0.92758  1.0000
  C   C795      1.0  0.42421  0.31946  0.85276  1.0000
  H   H1266     1.0  0.45873  0.16644  0.98927  1.0000
  C   C796      1.0  0.43392  0.26129  0.91073  1.0000
  C   C797      1.0  0.49554  0.26052  0.97325  1.0000
  H   H1267     1.0  0.53845  0.28065  0.91139  1.0000
  C   C798      1.0  0.44877  0.28880  0.92017  1.0000
  H   H1268     1.0  0.54615  0.24257  0.82695  1.0000
  H   H1269     1.0  0.49213  0.31359  0.96322  1.0000
  H   H1270     1.0  0.48950  0.25691  0.95456  1.0000
  H   H1271     1.0  0.53387  0.31963  0.92394  1.0000
  S   S314      1.0  0.43805  0.27371  0.88112  1.0000
  C   C799      1.0  0.54057  0.25636  0.93308  1.0000
  H   H1272     1.0  0.46433  0.25031  0.88459  1.0000
  H   H1273     1.0  0.54833  0.25829  0.81203  1.0000
  H   H1274     1.0  0.46919  0.25503  0.84351  1.0000
  C   C800      1.0  0.43836  0.25146  0.92336  1.0000
  Fe  Fe159     1.0  0.56977  0.24967  0.87777  1.0000
  S   S315      1.0  0.55647  0.31664  0.93927  1.0000
  H   H1275     1.0  0.53991  0.25019  0.94477  1.0000
  C   C801      1.0  0.54080  0.25429  0.82260  1.0000
  C   C802      1.0  0.48588  0.25769  0.96611  1.0000
  C   C803      1.0  0.53092  0.27911  0.82718  1.0000
  S   S316      1.0  0.48006  0.32263  0.93216  1.0000
  S   S317      1.0  0.54997  0.25772  0.97656  1.0000
  H   H1276     1.0  0.53730  0.06803  0.74210  1.0000
  H   H1277     1.0  0.41835  0.31208  0.85034  1.0000
  H   H1278     1.0  0.40209  0.05635  0.75192  1.0000
  C   C804      1.0  0.51006  0.32102  0.92851  1.0000
  H   H1279     1.0  0.42451  0.30993  0.94087  1.0000
  S   S318      1.0  0.44561  0.22287  0.98034  1.0000
  H   H1280     1.0  0.52906  0.31469  0.96907  1.0000
  C   C805      1.0  0.52001  0.20233  0.98569  1.0000
  C   C806      1.0  0.62213  0.30742  0.91508  1.0000
  H   H1281     1.0  0.40504  0.07491  0.74624  1.0000
  H   H1282     1.0  0.47916  0.20746  0.98767  1.0000
  H   H1283     1.0  0.52358  0.28326  0.97468  1.0000
  C   C807      1.0  0.46724  0.25583  0.98914  1.0000
  C   C808      1.0  0.49103  0.26116  0.98828  1.0000
  H   H1284     1.0  0.49580  0.32522  0.98204  1.0000
  C   C809      1.0  0.50204  0.31411  0.98703  1.0000
  H   H1285     1.0  0.39475  0.32436  0.86522  1.0000
  H   H1286     1.0  0.47074  0.22559  0.99154  1.0000
  C   C810      1.0  0.51734  0.17288  0.99138  1.0000
  C   C811      1.0  0.66505  0.44977  0.04278  1.0000
  H   H1287     1.0  0.65669  0.55270  0.99727  1.0000
  C   C812      1.0  0.59341  0.34257  0.99359  1.0000
  H   H1288     1.0  0.53114  0.61029  0.00940  1.0000
  H   H1289     1.0  0.65928  0.52620  0.99831  1.0000
  H   H1290     1.0  0.52368  0.62433  0.99492  1.0000
  H   H1291     1.0  0.65689  0.42693  0.03779  1.0000
  H   H1292     1.0  0.66510  0.49386  0.99664  1.0000
  H   H1293     1.0  0.55816  0.59766  0.00501  1.0000
  H   H1294     1.0  0.55051  0.62439  0.00658  1.0000
  H   H1295     1.0  0.52887  0.60523  0.99347  1.0000
  C   C813      1.0  0.55839  0.60127  0.99289  1.0000
  H   H1296     1.0  0.33844  0.46889  0.00340  1.0000
  H   H1297     1.0  0.41196  0.65017  0.00066  1.0000
  H   H1298     1.0  0.60334  0.33503  0.99781  1.0000
  H   H1299     1.0  0.54309  0.63808  0.99189  1.0000
  C   C814      1.0  0.53214  0.61373  0.99716  1.0000
  H   H1300     1.0  0.66700  0.45634  0.04981  1.0000
  C   C815      1.0  0.66393  0.42822  0.06280  1.0000
  H   H1301     1.0  0.65276  0.45211  0.04341  1.0000
  H   H1302     1.0  0.58346  0.34228  0.00295  1.0000
  C   C816      1.0  0.55109  0.62720  0.99440  1.0000
  H   H1303     1.0  0.66557  0.43415  0.07061  1.0000
  H   H1304     1.0  0.65164  0.42987  0.06384  1.0000
  C   C817      1.0  0.37556  0.45947  0.89224  1.0000
  C   C818      1.0  0.39706  0.34772  0.94642  1.0000
  Fe  Fe160     1.0  0.63296  0.43198  0.96726  1.0000
  H   H1305     1.0  0.57008  0.60214  0.98712  1.0000
  S   S319      1.0  0.62083  0.45103  0.97858  1.0000
  H   H1306     1.0  0.63020  0.52320  0.90525  1.0000
  Fe  Fe161     1.0  0.62847  0.40609  0.95740  1.0000
  S   S320      1.0  0.60770  0.39788  0.95889  1.0000
  S   S321      1.0  0.62803  0.43005  0.94638  1.0000
  H   H1307     1.0  0.53806  0.58704  0.97809  1.0000
  Fe  Fe162     1.0  0.39335  0.65852  0.95273  1.0000
  S   S322      1.0  0.53758  0.34999  0.91204  1.0000
  H   H1308     1.0  0.37087  0.60138  0.92820  1.0000
  S   S323      1.0  0.60706  0.35014  0.92394  1.0000
  S   S324      1.0  0.56252  0.34924  0.93922  1.0000
  H   H1309     1.0  0.63842  0.54778  0.91376  1.0000
  H   H1310     1.0  0.34432  0.52917  0.90189  1.0000
  S   S325      1.0  0.34551  0.45507  0.97836  1.0000
  H   H1311     1.0  0.65387  0.45991  0.95480  1.0000
  H   H1312     1.0  0.65827  0.53998  0.91173  1.0000
  H   H1313     1.0  0.36732  0.45877  0.90297  1.0000
  Fe  Fe163     1.0  0.44914  0.35909  0.89687  1.0000
  S   S326      1.0  0.42494  0.36034  0.90750  1.0000
  S   S327      1.0  0.45499  0.37169  0.87350  1.0000
  Fe  Fe164     1.0  0.45990  0.33794  0.92353  1.0000
  S   S328      1.0  0.43652  0.33722  0.93666  1.0000
  Fe  Fe165     1.0  0.43183  0.33586  0.91541  1.0000
  H   H1314     1.0  0.62581  0.46101  0.94657  1.0000
  Fe  Fe166     1.0  0.43128  0.36192  0.92783  1.0000
  S   S329      1.0  0.41576  0.37666  0.94311  1.0000
  C   C819      1.0  0.49741  0.35226  0.87854  1.0000
  S   S330      1.0  0.45513  0.36288  0.91652  1.0000
  S   S331      1.0  0.36574  0.42677  0.91511  1.0000
  H   H1315     1.0  0.35452  0.49476  0.93953  1.0000
  C   C820      1.0  0.65065  0.56515  0.96209  1.0000
  H   H1316     1.0  0.34331  0.64738  0.93609  1.0000
  C   C821      1.0  0.34333  0.53660  0.92155  1.0000
  H   H1317     1.0  0.49733  0.33534  0.86024  1.0000
  C   C822      1.0  0.63304  0.53295  0.89656  1.0000
  S   S332      1.0  0.36101  0.45798  0.93600  1.0000
  C   C823      1.0  0.54830  0.61979  0.97325  1.0000
  H   H1318     1.0  0.60054  0.45295  0.95638  1.0000
  Fe  Fe167     1.0  0.35092  0.44346  0.92848  1.0000
  S   S333      1.0  0.34222  0.54584  0.94662  1.0000
  C   C824      1.0  0.40259  0.39147  0.93514  1.0000
  C   C825      1.0  0.40298  0.39452  0.91993  1.0000
  C   C826      1.0  0.39156  0.40533  0.91394  1.0000
  C   C827      1.0  0.37993  0.41352  0.92305  1.0000
  C   C828      1.0  0.37982  0.41097  0.93818  1.0000
  C   C829      1.0  0.39109  0.39986  0.94423  1.0000
  H   H1319     1.0  0.41206  0.38857  0.91273  1.0000
  H   H1320     1.0  0.39178  0.40738  0.90220  1.0000
  H   H1321     1.0  0.37093  0.41735  0.94525  1.0000
  H   H1322     1.0  0.39081  0.39766  0.95601  1.0000
  C   C830      1.0  0.45616  0.36078  0.86097  1.0000
  C   C831      1.0  0.44871  0.36658  0.84913  1.0000
  C   C832      1.0  0.44914  0.35751  0.83958  1.0000
  C   C833      1.0  0.45743  0.34280  0.84160  1.0000
  C   C834      1.0  0.46565  0.33740  0.85282  1.0000
  C   C835      1.0  0.46458  0.34616  0.86279  1.0000
  H   H1323     1.0  0.44227  0.37794  0.84762  1.0000
  H   H1324     1.0  0.44292  0.36182  0.83078  1.0000
  H   H1325     1.0  0.34127  0.58850  0.95967  1.0000
  H   H1326     1.0  0.47042  0.34163  0.87179  1.0000
  H   H1327     1.0  0.37610  0.44963  0.88784  1.0000
  H   H1328     1.0  0.39993  0.47353  0.90190  1.0000
  H   H1329     1.0  0.39702  0.43591  0.90049  1.0000
  C   C836      1.0  0.34573  0.52579  0.91326  1.0000
  C   C837      1.0  0.62261  0.48479  0.94248  1.0000
  C   C838      1.0  0.40106  0.46053  0.87977  1.0000
  H   H1330     1.0  0.37090  0.46967  0.88456  1.0000
  C   C839      1.0  0.58883  0.45543  0.96285  1.0000
  C   C840      1.0  0.52164  0.34230  0.91886  1.0000
  N   N81       1.0  0.59111  0.33814  0.98084  1.0000
  C   C841      1.0  0.49464  0.34567  0.92262  1.0000
  C   C842      1.0  0.50747  0.35160  0.91810  1.0000
  H   H1331     1.0  0.48380  0.35299  0.92211  1.0000
  H   H1332     1.0  0.50641  0.36345  0.91400  1.0000
  Fe  Fe168     1.0  0.34468  0.47670  0.92527  1.0000
  H   H1333     1.0  0.33998  0.54824  0.91658  1.0000
  H   H1334     1.0  0.66692  0.46586  0.96118  1.0000
  C   C843      1.0  0.44557  0.64274  0.94553  1.0000
  C   C844      1.0  0.60779  0.38490  0.94871  1.0000
  C   C845      1.0  0.62101  0.37795  0.94020  1.0000
  C   C846      1.0  0.62063  0.36745  0.93251  1.0000
  C   C847      1.0  0.60705  0.36379  0.93329  1.0000
  C   C848      1.0  0.59382  0.37080  0.94173  1.0000
  C   C849      1.0  0.59420  0.38129  0.94941  1.0000
  H   H1335     1.0  0.63154  0.38064  0.93957  1.0000
  H   H1336     1.0  0.63091  0.36211  0.92598  1.0000
  H   H1337     1.0  0.58327  0.36824  0.94223  1.0000
  H   H1338     1.0  0.58391  0.38672  0.95586  1.0000
  C   C850      1.0  0.62320  0.47054  0.95155  1.0000
  C   C851      1.0  0.62035  0.46873  0.96699  1.0000
  H   H1339     1.0  0.37803  0.37393  0.94779  1.0000
  H   H1340     1.0  0.38457  0.48341  0.89278  1.0000
  H   H1341     1.0  0.50268  0.36082  0.87002  1.0000
  S   S334      1.0  0.33590  0.46243  0.91612  1.0000
  H   H1342     1.0  0.36925  0.56147  0.93910  1.0000
  H   H1343     1.0  0.52741  0.34395  0.87265  1.0000
  H   H1344     1.0  0.38805  0.44493  0.91569  1.0000
  H   H1345     1.0  0.39007  0.34899  0.92085  1.0000
  C   C852      1.0  0.65956  0.52187  0.89395  1.0000
  H   H1346     1.0  0.47289  0.32647  0.85381  1.0000
  H   H1347     1.0  0.60297  0.33605  0.95862  1.0000
  H   H1348     1.0  0.53983  0.63016  0.97036  1.0000
  H   H1349     1.0  0.64795  0.60023  0.87125  1.0000
  S   S335      1.0  0.63180  0.40860  0.97897  1.0000
  Fe  Fe169     1.0  0.34196  0.45664  0.95575  1.0000
  S   S336      1.0  0.55046  0.65525  0.90797  1.0000
  C   C853      1.0  0.62456  0.32832  0.89459  1.0000
  H   H1350     1.0  0.66463  0.57720  0.94392  1.0000
  C   C854      1.0  0.38170  0.34559  0.93101  1.0000
  H   H1351     1.0  0.66197  0.55054  0.88491  1.0000
  N   N82       1.0  0.50651  0.33708  0.87783  1.0000
  H   H1352     1.0  0.55956  0.62171  0.96706  1.0000
  H   H1353     1.0  0.34586  0.57631  0.93164  1.0000
  H   H1354     1.0  0.40706  0.44581  0.90657  1.0000
  C   C855      1.0  0.64740  0.53794  0.91127  1.0000
  H   H1355     1.0  0.44602  0.63145  0.95181  1.0000
  S   S337      1.0  0.66519  0.43392  0.91775  1.0000
  C   C856      1.0  0.38897  0.47289  0.90026  1.0000
  H   H1356     1.0  0.39721  0.47072  0.87162  1.0000
  H   H1357     1.0  0.63285  0.53102  0.88565  1.0000
  C   C857      1.0  0.61957  0.49723  0.94876  1.0000
  N   N83       1.0  0.58310  0.44173  0.96940  1.0000
  H   H1358     1.0  0.49599  0.32879  0.90026  1.0000
  H   H1359     1.0  0.64517  0.52826  0.92036  1.0000
  H   H1360     1.0  0.41240  0.46070  0.88087  1.0000
  H   H1361     1.0  0.48597  0.35374  0.87664  1.0000
  Fe  Fe170     1.0  0.58657  0.34047  0.92910  1.0000
  Fe  Fe171     1.0  0.65643  0.40302  0.96925  1.0000
  N   N84       1.0  0.38183  0.35219  0.94329  1.0000
  C   C858      1.0  0.66285  0.57196  0.95558  1.0000
  H   H1362     1.0  0.40233  0.45076  0.87494  1.0000
  C   C859      1.0  0.52143  0.33568  0.88077  1.0000
  H   H1363     1.0  0.34738  0.56936  0.95828  1.0000
  S   S338      1.0  0.41589  0.64790  0.95881  1.0000
  N   N85       1.0  0.39038  0.45973  0.89425  1.0000
  C   C860      1.0  0.39592  0.44604  0.90468  1.0000
  H   H1364     1.0  0.38098  0.47266  0.91118  1.0000
  H   H1365     1.0  0.57601  0.34565  0.96579  1.0000
  Fe  Fe172     1.0  0.65295  0.42266  0.93947  1.0000
  H   H1366     1.0  0.40092  0.33541  0.94933  1.0000
  C   C861      1.0  0.66031  0.58248  0.88552  1.0000
  C   C862      1.0  0.61700  0.48119  0.97329  1.0000
  H   H1367     1.0  0.43691  0.32839  0.86987  1.0000
  H   H1368     1.0  0.61476  0.47985  0.98523  1.0000
  S   S339      1.0  0.35077  0.49727  0.90986  1.0000
  S   S340      1.0  0.65789  0.42664  0.95951  1.0000
  H   H1369     1.0  0.62460  0.48616  0.93056  1.0000
  H   H1370     1.0  0.37095  0.35164  0.96618  1.0000
  H   H1371     1.0  0.63107  0.33246  0.90012  1.0000
  H   H1372     1.0  0.65164  0.47929  0.95406  1.0000
  H   H1373     1.0  0.66080  0.51989  0.88269  1.0000
  C   C863      1.0  0.34557  0.53237  0.93610  1.0000
  H   H1374     1.0  0.59508  0.43138  0.95091  1.0000
  C   C864      1.0  0.64753  0.59311  0.88218  1.0000
  C   C865      1.0  0.61676  0.49540  0.96419  1.0000
  S   S341      1.0  0.50562  0.64761  0.97590  1.0000
  H   H1375     1.0  0.65375  0.46571  0.92801  1.0000
  C   C866      1.0  0.58346  0.43443  0.95746  1.0000
  H   H1376     1.0  0.57948  0.42389  0.96202  1.0000
  H   H1377     1.0  0.38053  0.56988  0.94537  1.0000
  H   H1378     1.0  0.39541  0.33531  0.87755  1.0000
  H   H1379     1.0  0.38528  0.37288  0.92870  1.0000
  C   C867      1.0  0.50836  0.33418  0.86293  1.0000
  S   S342      1.0  0.65323  0.39837  0.94849  1.0000
  C   C868      1.0  0.65106  0.54829  0.88499  1.0000
  Fe  Fe173     1.0  0.52913  0.64912  0.92196  1.0000
  C   C869      1.0  0.42496  0.33388  0.86966  1.0000
  Fe  Fe174     1.0  0.51608  0.62193  0.93315  1.0000
  S   S343      1.0  0.49491  0.63340  0.94653  1.0000
  S   S344      1.0  0.52246  0.59824  0.93087  1.0000
  C   C870      1.0  0.66027  0.47430  0.92629  1.0000
  Fe  Fe175     1.0  0.51011  0.64367  0.95295  1.0000
  S   S345      1.0  0.51545  0.63978  0.91254  1.0000
  S   S346      1.0  0.53132  0.63034  0.94159  1.0000
  Fe  Fe176     1.0  0.61347  0.53435  0.94817  1.0000
  S   S347      1.0  0.60442  0.53543  0.97225  1.0000
  S   S348      1.0  0.61989  0.51477  0.93702  1.0000
  Fe  Fe177     1.0  0.61400  0.56713  0.93876  1.0000
  S   S349      1.0  0.60513  0.57109  0.96181  1.0000
  S   S350      1.0  0.61621  0.58652  0.91966  1.0000
  Fe  Fe178     1.0  0.62097  0.54955  0.96834  1.0000
  Fe  Fe179     1.0  0.58927  0.55692  0.96367  1.0000
  S   S351      1.0  0.56555  0.56527  0.97525  1.0000
  S   S352      1.0  0.63136  0.54668  0.94504  1.0000
  S   S353      1.0  0.59683  0.55470  0.93990  1.0000
  H   H1380     1.0  0.36598  0.37247  0.93681  1.0000
  H   H1381     1.0  0.54991  0.60557  0.91673  1.0000
  H   H1382     1.0  0.53181  0.65714  0.95612  1.0000
  H   H1383     1.0  0.65167  0.54667  0.87373  1.0000
  H   H1384     1.0  0.57918  0.62715  0.90791  1.0000
  H   H1385     1.0  0.66394  0.53016  0.97043  1.0000
  H   H1386     1.0  0.57098  0.58364  0.91666  1.0000
  H   H1387     1.0  0.58469  0.61696  0.89333  1.0000
  H   H1388     1.0  0.65215  0.48515  0.92686  1.0000
  H   H1389     1.0  0.40046  0.34175  0.85779  1.0000
  H   H1390     1.0  0.58306  0.59919  0.93320  1.0000
  H   H1391     1.0  0.61443  0.50490  0.96914  1.0000
  C   C871      1.0  0.37267  0.57206  0.93783  1.0000
  H   H1392     1.0  0.57948  0.59197  0.89823  1.0000
  H   H1393     1.0  0.35191  0.51398  0.95364  1.0000
  C   C872      1.0  0.36438  0.59791  0.93960  1.0000
  S   S354      1.0  0.45559  0.33429  0.90292  1.0000
  C   C873      1.0  0.63344  0.58511  0.90694  1.0000
  C   C874      1.0  0.63413  0.59441  0.89286  1.0000
  C   C875      1.0  0.64631  0.57473  0.91047  1.0000
  H   H1394     1.0  0.62425  0.60255  0.89012  1.0000
  H   H1395     1.0  0.64596  0.56786  0.92148  1.0000
  C   C876      1.0  0.34944  0.58664  0.93093  1.0000
  H   H1396     1.0  0.64297  0.56541  0.95546  1.0000
  C   C877      1.0  0.45868  0.64672  0.93633  1.0000
  H   H1397     1.0  0.38460  0.33323  0.93403  1.0000
  C   C878      1.0  0.40117  0.33168  0.86690  1.0000
  H   H1398     1.0  0.46905  0.63841  0.93535  1.0000
  H   H1399     1.0  0.62799  0.33221  0.88239  1.0000
  C   C879      1.0  0.53348  0.58789  0.94379  1.0000
  C   C880      1.0  0.54550  0.57622  0.94011  1.0000
  C   C881      1.0  0.55537  0.56904  0.94980  1.0000
  C   C882      1.0  0.55289  0.57320  0.96336  1.0000
  C   C883      1.0  0.54034  0.58425  0.96737  1.0000
  C   C884      1.0  0.53086  0.59186  0.95746  1.0000
  H   H1400     1.0  0.54737  0.57297  0.92965  1.0000
  H   H1401     1.0  0.56470  0.56012  0.94690  1.0000
  H   H1402     1.0  0.35505  0.59034  0.91921  1.0000
  H   H1403     1.0  0.52137  0.60066  0.96046  1.0000
  H   H1404     1.0  0.58984  0.58584  0.91277  1.0000
  H   H1405     1.0  0.55835  0.61420  0.89852  1.0000
  C   C885      1.0  0.34948  0.51068  0.91980  1.0000
  C   C886      1.0  0.58335  0.61578  0.90548  1.0000
  N   N86       1.0  0.64778  0.53526  0.89666  1.0000
  C   C887      1.0  0.49588  0.33038  0.92777  1.0000
  H   H1406     1.0  0.61257  0.33390  0.89800  1.0000
  C   C888      1.0  0.35154  0.50642  0.93443  1.0000
  C   C889      1.0  0.35001  0.51729  0.94243  1.0000
  S   S355      1.0  0.34891  0.63500  0.96607  1.0000
  C   C890      1.0  0.65974  0.57335  0.89972  1.0000
  C   C891      1.0  0.43188  0.65319  0.94653  1.0000
  Fe  Fe180     1.0  0.49546  0.65215  0.92656  1.0000
  C   C892      1.0  0.59262  0.43150  0.97954  1.0000
  H   H1407     1.0  0.58906  0.46104  0.97159  1.0000
  N   N87       1.0  0.35946  0.58410  0.94126  1.0000
  H   H1408     1.0  0.60702  0.35000  0.96527  1.0000
  H   H1409     1.0  0.52044  0.33757  0.89201  1.0000
  H   H1410     1.0  0.37900  0.57489  0.92622  1.0000
  C   C893      1.0  0.57856  0.59123  0.91024  1.0000
  H   H1411     1.0  0.55328  0.62377  0.91349  1.0000
  C   C894      1.0  0.55798  0.61269  0.91055  1.0000
  C   C895      1.0  0.57193  0.60447  0.93013  1.0000
  H   H1412     1.0  0.59471  0.61129  0.90812  1.0000
  N   N88       1.0  0.57297  0.60604  0.91410  1.0000
  H   H1413     1.0  0.56741  0.34794  0.98434  1.0000
  H   H1414     1.0  0.56398  0.59740  0.93699  1.0000
  C   C896      1.0  0.66010  0.46881  0.95252  1.0000
  C   C897      1.0  0.37112  0.34684  0.95673  1.0000
  Fe  Fe181     1.0  0.56392  0.32659  0.95397  1.0000
  C   C898      1.0  0.35132  0.57972  0.95668  1.0000
  C   C899      1.0  0.64868  0.55778  0.97701  1.0000
  H   H1415     1.0  0.56793  0.61546  0.93337  1.0000
  H   H1416     1.0  0.35463  0.60730  0.94165  1.0000
  H   H1417     1.0  0.39763  0.35235  0.95573  1.0000
  H   H1418     1.0  0.54604  0.61105  0.96904  1.0000
  H   H1419     1.0  0.37417  0.33450  0.96030  1.0000
  H   H1420     1.0  0.66724  0.47513  0.91483  1.0000
  H   H1421     1.0  0.64236  0.55857  0.88676  1.0000
  S   S356      1.0  0.38405  0.64860  0.93938  1.0000
  H   H1422     1.0  0.37049  0.34901  0.92805  1.0000
  C   C900      1.0  0.57786  0.34845  0.97563  1.0000
  Fe  Fe182     1.0  0.55668  0.33873  0.92374  1.0000
  H   H1423     1.0  0.40529  0.35194  0.93662  1.0000
  H   H1424     1.0  0.60441  0.42854  0.97352  1.0000
  H   H1425     1.0  0.42493  0.34409  0.86072  1.0000
  S   S357      1.0  0.58062  0.33247  0.91179  1.0000
  H   H1426     1.0  0.37153  0.59664  0.94759  1.0000
  H   H1427     1.0  0.65700  0.51180  0.90226  1.0000
  H   H1428     1.0  0.41983  0.33739  0.88045  1.0000
  C   C901      1.0  0.37754  0.36857  0.93898  1.0000
  H   H1429     1.0  0.51429  0.34205  0.85412  1.0000
  H   H1430     1.0  0.35853  0.57770  0.96480  1.0000
  H   H1431     1.0  0.35950  0.34992  0.95475  1.0000
  H   H1432     1.0  0.39955  0.65697  0.98786  1.0000
  H   H1433     1.0  0.42451  0.32930  0.84340  1.0000
  C   C902      1.0  0.65841  0.55798  0.98562  1.0000
  H   H1434     1.0  0.56257  0.62890  0.98879  1.0000
  H   H1435     1.0  0.57914  0.36014  0.97242  1.0000
  S   S358      1.0  0.45653  0.33076  0.83105  1.0000
  H   H1436     1.0  0.58187  0.46353  0.95525  1.0000
  H   H1437     1.0  0.62387  0.54275  0.89890  1.0000
  H   H1438     1.0  0.49598  0.35485  0.88959  1.0000
  H   H1439     1.0  0.57637  0.44175  0.94958  1.0000
  C   C903      1.0  0.60453  0.33873  0.96868  1.0000
  H   H1440     1.0  0.33912  0.59536  0.93342  1.0000
  H   H1441     1.0  0.61468  0.33074  0.97202  1.0000
  C   C904      1.0  0.33722  0.63868  0.94135  1.0000
  H   H1442     1.0  0.56000  0.45325  0.97050  1.0000
  C   C905      1.0  0.56752  0.44553  0.97781  1.0000
  H   H1443     1.0  0.59278  0.43662  0.98866  1.0000
  H   H1444     1.0  0.56691  0.45106  0.98690  1.0000
  Fe  Fe183     1.0  0.36237  0.65283  0.95593  1.0000
  C   C906      1.0  0.51735  0.65802  0.97768  1.0000
  H   H1445     1.0  0.58884  0.42091  0.98455  1.0000
  C   C907      1.0  0.66523  0.50253  0.98621  1.0000
  C   C908      1.0  0.52294  0.32696  0.92402  1.0000
  H   H1446     1.0  0.56289  0.43542  0.98293  1.0000
  C   C909      1.0  0.33785  0.63117  0.95597  1.0000
  H   H1447     1.0  0.65353  0.50928  0.98642  1.0000
  H   H1448     1.0  0.59532  0.35407  0.99045  1.0000
  S   S359      1.0  0.63503  0.54712  0.98465  1.0000
  N   N89       1.0  0.54749  0.61548  0.98944  1.0000
  H   H1449     1.0  0.55598  0.59215  0.98934  1.0000
  C   C910      1.0  0.49892  0.32612  0.88911  1.0000
  S   S360      1.0  0.55329  0.32617  0.97799  1.0000
  C   C911      1.0  0.45596  0.74026  0.01785  1.0000
  H   H1450     1.0  0.57177  0.97076  0.14409  1.0000
  C   C912      1.0  0.49944  0.89504  0.22488  1.0000
  H   H1451     1.0  0.50946  0.73063  0.06411  1.0000
  H   H1452     1.0  0.47245  0.68707  0.00407  1.0000
  Fe  Fe184     1.0  0.42073  0.71389  0.01067  1.0000
  H   H1453     1.0  0.43687  0.72352  0.03568  1.0000
  S   S361      1.0  0.51135  0.70638  0.00356  1.0000
  S   S362      1.0  0.50868  0.72056  0.03882  1.0000
  H   H1454     1.0  0.61859  0.96129  0.21462  1.0000
  C   C913      1.0  0.36770  0.72091  0.99344  1.0000
  Fe  Fe185     1.0  0.51664  0.72183  0.01431  1.0000
  S   S363      1.0  0.36793  0.71235  0.02316  1.0000
  H   H1455     1.0  0.44420  0.74680  0.02031  1.0000
  C   C914      1.0  0.48857  0.91314  0.24040  1.0000
  H   H1456     1.0  0.35507  0.69133  0.01691  1.0000
  H   H1457     1.0  0.48283  0.72648  0.02434  1.0000
  H   H1458     1.0  0.41228  0.93991  0.15072  1.0000
  H   H1459     1.0  0.54004  0.79020  0.00115  1.0000
  C   C915      1.0  0.47477  0.71927  0.02656  1.0000
  S   S364      1.0  0.50944  0.74219  0.99763  1.0000
  S   S365      1.0  0.40456  0.71542  0.03223  1.0000
  H   H1460     1.0  0.45093  0.70789  0.04193  1.0000
  S   S366      1.0  0.54114  0.71807  0.00330  1.0000
  C   C916      1.0  0.44882  0.71764  0.03273  1.0000
  H   H1461     1.0  0.55230  0.97194  0.14607  1.0000
  N   N90       1.0  0.45908  0.72759  0.03026  1.0000
  H   H1462     1.0  0.57746  0.97636  0.22522  1.0000
  H   H1463     1.0  0.48771  0.99051  0.23652  1.0000
  S   S367      1.0  0.52849  0.94377  0.22755  1.0000
  H   H1464     1.0  0.39258  0.66239  0.01926  1.0000
  H   H1465     1.0  0.46351  0.74799  0.01567  1.0000
  H   H1466     1.0  0.47680  0.71469  0.01649  1.0000
  H   H1467     1.0  0.52216  0.67451  0.00299  1.0000
  H   H1468     1.0  0.60491  0.96210  0.20433  1.0000
  H   H1469     1.0  0.56669  0.98177  0.10530  1.0000
  C   C917      1.0  0.50101  0.73781  0.04396  1.0000
  H   H1470     1.0  0.47935  0.91913  0.21475  1.0000
  H   H1471     1.0  0.47770  0.70982  0.03579  1.0000
  H   H1472     1.0  0.50016  0.77436  0.00899  1.0000
  H   H1473     1.0  0.45757  0.73644  0.00739  1.0000
  H   H1474     1.0  0.45011  0.71336  0.02263  1.0000
  Fe  Fe186     1.0  0.38704  0.72370  0.01828  1.0000
  C   C918      1.0  0.50314  0.73975  0.05718  1.0000
  H   H1475     1.0  0.61375  0.97984  0.23024  1.0000
  C   C919      1.0  0.42454  0.93600  0.15040  1.0000
  H   H1476     1.0  0.51217  0.92491  0.22458  1.0000
  H   H1477     1.0  0.53351  0.75919  0.00642  1.0000
  N   N91       1.0  0.56191  0.98678  0.12693  1.0000
  Fe  Fe187     1.0  0.47943  0.82220  0.01012  1.0000
  S   S368      1.0  0.48359  0.82147  0.03239  1.0000
  H   H1478     1.0  0.48523  0.89354  0.04809  1.0000
  Fe  Fe188     1.0  0.44877  0.81519  0.02276  1.0000
  S   S369      1.0  0.44982  0.81401  0.04619  1.0000
  S   S370      1.0  0.43079  0.81089  0.01419  1.0000
  Fe  Fe189     1.0  0.45972  0.83423  0.03713  1.0000
  S   S371      1.0  0.45161  0.85146  0.05156  1.0000
  Fe  Fe190     1.0  0.47351  0.80147  0.04014  1.0000
  S   S372      1.0  0.48319  0.78286  0.05726  1.0000
  S   S373      1.0  0.45624  0.83675  0.01404  1.0000
  S   S374      1.0  0.47170  0.80088  0.01747  1.0000
  Fe  Fe191     1.0  0.47336  0.88827  0.12653  1.0000
  S   S375      1.0  0.48215  0.90780  0.12595  1.0000
  S   S376      1.0  0.45914  0.87724  0.14692  1.0000
  Fe  Fe192     1.0  0.48917  0.88588  0.09484  1.0000
  S   S377      1.0  0.49972  0.90512  0.09181  1.0000
  S   S378      1.0  0.49585  0.87379  0.07584  1.0000
  Fe  Fe193     1.0  0.50392  0.89516  0.11483  1.0000
  S   S379      1.0  0.52558  0.89352  0.12133  1.0000
  Fe  Fe194     1.0  0.47704  0.91605  0.10327  1.0000
  S   S380      1.0  0.46530  0.93999  0.09710  1.0000
  S   S381      1.0  0.49557  0.87489  0.11683  1.0000
  S   S382      1.0  0.46606  0.89758  0.10477  1.0000
  Fe  Fe195     1.0  0.53461  0.92215  0.18367  1.0000
  S   S383      1.0  0.54585  0.93585  0.16309  1.0000
  S   S384      1.0  0.52345  0.90391  0.18455  1.0000
  Fe  Fe196     1.0  0.40519  0.74360  0.99449  1.0000
  Fe  Fe197     1.0  0.56093  0.93678  0.17722  1.0000
  S   S385      1.0  0.58548  0.93492  0.16704  1.0000
  S   S386      1.0  0.55123  0.92090  0.19710  1.0000
  H   H1479     1.0  0.45852  0.91389  0.06497  1.0000
  H   H1480     1.0  0.53291  0.97294  0.21655  1.0000
  S   S387      1.0  0.44015  0.69463  0.00707  1.0000
  C   C920      1.0  0.51293  0.91321  0.22425  1.0000
  C   C921      1.0  0.48513  0.87237  0.17439  1.0000
  H   H1481     1.0  0.44874  0.83610  0.08470  1.0000
  C   C922      1.0  0.47448  0.93118  0.04333  1.0000
  C   C923      1.0  0.43075  0.94435  0.12378  1.0000
  S   S388      1.0  0.42292  0.95567  0.18300  1.0000
  S   S389      1.0  0.42215  0.91399  0.19611  1.0000
  N   N92       1.0  0.52028  0.78123  0.00769  1.0000
  H   H1482     1.0  0.56065  0.93881  0.21644  1.0000
  H   H1483     1.0  0.42378  0.67893  0.99346  1.0000
  C   C924      1.0  0.51297  0.79029  0.01906  1.0000
  C   C925      1.0  0.52425  0.67082  0.99272  1.0000
  H   H1484     1.0  0.44491  0.73923  0.04712  1.0000
  C   C926      1.0  0.50210  0.95738  0.08531  1.0000
  H   H1485     1.0  0.48192  0.84559  0.17395  1.0000
  H   H1486     1.0  0.47763  0.98113  0.13313  1.0000
  H   H1487     1.0  0.58004  0.98571  0.17218  1.0000
  H   H1488     1.0  0.50014  0.90320  0.05915  1.0000
  C   C927      1.0  0.60638  0.96434  0.21465  1.0000
  H   H1489     1.0  0.48319  0.87167  0.18654  1.0000
  H   H1490     1.0  0.48786  0.88330  0.16860  1.0000
  H   H1491     1.0  0.51512  0.87018  0.16810  1.0000
  C   C928      1.0  0.59055  0.95214  0.16226  1.0000
  C   C929      1.0  0.58339  0.96295  0.17077  1.0000
  C   C930      1.0  0.47298  0.81671  0.07410  1.0000
  H   H1492     1.0  0.45342  0.92802  0.13696  1.0000
  C   C931      1.0  0.60354  0.96998  0.14404  1.0000
  C   C932      1.0  0.60101  0.95554  0.14913  1.0000
  H   H1493     1.0  0.57589  0.96020  0.18128  1.0000
  H   H1494     1.0  0.61126  0.97269  0.13363  1.0000
  C   C933      1.0  0.44691  0.82497  0.08520  1.0000
  H   H1495     1.0  0.60672  0.94717  0.14261  1.0000
  H   H1496     1.0  0.46706  0.82324  0.10098  1.0000
  C   C934      1.0  0.42853  0.96085  0.13979  1.0000
  H   H1497     1.0  0.48780  0.90724  0.03127  1.0000
  H   H1498     1.0  0.51397  0.77264  0.99228  1.0000
  H   H1499     1.0  0.42630  0.93627  0.16138  1.0000
  H   H1500     1.0  0.47411  0.90140  0.07208  1.0000
  H   H1501     1.0  0.51783  0.94705  0.14592  1.0000
  H   H1502     1.0  0.46298  0.93256  0.04161  1.0000
  H   H1503     1.0  0.48332  0.80767  0.07433  1.0000
  C   C935      1.0  0.47718  0.95236  0.09320  1.0000
  C   C936      1.0  0.49263  0.94756  0.08839  1.0000
  H   H1504     1.0  0.51124  0.92388  0.12412  1.0000
  H   H1505     1.0  0.43279  0.98837  0.16811  1.0000
  Fe  Fe198     1.0  0.41910  0.96519  0.20303  1.0000
  C   C937      1.0  0.47122  0.96710  0.09493  1.0000
  H   H1506     1.0  0.49732  0.93633  0.08682  1.0000
  C   C938      1.0  0.56586  0.97603  0.11718  1.0000
  C   C939      1.0  0.59565  0.98103  0.15208  1.0000
  H   H1507     1.0  0.45925  0.97092  0.09858  1.0000
  C   C940      1.0  0.44900  0.88803  0.16016  1.0000
  C   C941      1.0  0.45362  0.90027  0.16137  1.0000
  C   C942      1.0  0.44555  0.90828  0.17248  1.0000
  C   C943      1.0  0.43282  0.90411  0.18231  1.0000
  C   C944      1.0  0.42833  0.89184  0.18111  1.0000
  C   C945      1.0  0.43645  0.88377  0.17016  1.0000
  H   H1508     1.0  0.46357  0.90333  0.15406  1.0000
  H   H1509     1.0  0.44915  0.91767  0.17343  1.0000
  H   H1510     1.0  0.41852  0.88855  0.18872  1.0000
  H   H1511     1.0  0.43291  0.87424  0.16938  1.0000
  C   C946      1.0  0.52479  0.89597  0.13915  1.0000
  C   C947      1.0  0.51111  0.89884  0.14921  1.0000
  C   C948      1.0  0.51076  0.90122  0.16317  1.0000
  C   C949      1.0  0.52405  0.90119  0.16696  1.0000
  C   C950      1.0  0.53770  0.89851  0.15687  1.0000
  C   C951      1.0  0.53809  0.89562  0.14311  1.0000
  H   H1512     1.0  0.50080  0.89921  0.14627  1.0000
  H   H1513     1.0  0.50017  0.90339  0.17094  1.0000
  H   H1514     1.0  0.54802  0.89835  0.15981  1.0000
  H   H1515     1.0  0.54872  0.89339  0.13540  1.0000
  C   C952      1.0  0.46406  0.85743  0.05833  1.0000
  C   C953      1.0  0.45826  0.86565  0.06960  1.0000
  C   C954      1.0  0.46787  0.87046  0.07535  1.0000
  C   C955      1.0  0.48336  0.86718  0.06976  1.0000
  C   C956      1.0  0.48914  0.85900  0.05848  1.0000
  C   C957      1.0  0.47955  0.85409  0.05283  1.0000
  H   H1516     1.0  0.44627  0.86831  0.07388  1.0000
  H   H1517     1.0  0.46327  0.87676  0.08402  1.0000
  H   H1518     1.0  0.50110  0.85652  0.05402  1.0000
  H   H1519     1.0  0.48414  0.84791  0.04407  1.0000
  C   C958      1.0  0.42617  0.79347  0.02210  1.0000
  C   C959      1.0  0.41755  0.78842  0.01547  1.0000
  C   C960      1.0  0.41375  0.77457  0.02158  1.0000
  C   C961      1.0  0.41810  0.76592  0.03467  1.0000
  C   C962      1.0  0.42666  0.77098  0.04137  1.0000
  C   C963      1.0  0.43089  0.78462  0.03498  1.0000
  S   S390      1.0  0.45828  0.94084  0.23173  1.0000
  H   H1520     1.0  0.40708  0.77078  0.01639  1.0000
  H   H1521     1.0  0.42996  0.76440  0.05156  1.0000
  H   H1522     1.0  0.43747  0.78846  0.04021  1.0000
  H   H1523     1.0  0.46918  0.90545  0.04127  1.0000
  H   H1524     1.0  0.49034  0.84404  0.18921  1.0000
  H   H1525     1.0  0.50006  0.94705  0.14256  1.0000
  C   C964      1.0  0.49267  0.74957  0.03515  1.0000
  C   C965      1.0  0.48220  0.97729  0.14308  1.0000
  C   C966      1.0  0.48666  0.76328  0.03948  1.0000
  C   C967      1.0  0.48934  0.76540  0.05238  1.0000
  H   H1526     1.0  0.42583  0.98828  0.21494  1.0000
  H   H1527     1.0  0.43516  0.96803  0.13082  1.0000
  C   C968      1.0  0.53131  0.78868  0.99626  1.0000
  H   H1528     1.0  0.47991  0.77214  0.03287  1.0000
  H   H1529     1.0  0.49947  0.75508  0.07136  1.0000
  H   H1530     1.0  0.41644  0.96545  0.13953  1.0000
  H   H1531     1.0  0.47366  0.95985  0.17928  1.0000
  N   N93       1.0  0.51891  0.94278  0.12464  1.0000
  S   S391      1.0  0.51839  0.94174  0.19161  1.0000
  H   H1532     1.0  0.52040  0.85042  0.17031  1.0000
  H   H1533     1.0  0.48182  0.93395  0.03222  1.0000
  H   H1534     1.0  0.60623  0.98819  0.19226  1.0000
  Fe  Fe199     1.0  0.42979  0.93356  0.19759  1.0000
  C   C969      1.0  0.51223  0.94166  0.14064  1.0000
  H   H1535     1.0  0.50319  0.87234  0.14735  1.0000
  S   S392      1.0  0.45413  0.93394  0.19323  1.0000
  C   C970      1.0  0.46494  0.81245  0.10073  1.0000
  S   S393      1.0  0.39952  0.98411  0.20756  1.0000
  S   S394      1.0  0.42307  0.94285  0.21821  1.0000
  C   C971      1.0  0.53500  0.93537  0.12267  1.0000
  H   H1536     1.0  0.37200  0.73024  0.99346  1.0000
  C   C972      1.0  0.49248  0.84577  0.17690  1.0000
  H   H1537     1.0  0.51648  0.93525  0.10634  1.0000
  Fe  Fe200     1.0  0.40633  0.73931  0.02685  1.0000
  C   C973      1.0  0.49970  0.86176  0.15331  1.0000
  C   C974      1.0  0.47419  0.96993  0.15616  1.0000
  C   C975      1.0  0.51116  0.85977  0.17367  1.0000
  H   H1538     1.0  0.50340  0.91676  0.04231  1.0000
  H   H1539     1.0  0.51340  0.92989  0.14668  1.0000
  H   H1540     1.0  0.49910  0.94145  0.11861  1.0000
  C   C976      1.0  0.50883  0.77967  0.00068  1.0000
  H   H1541     1.0  0.58170  0.98152  0.20540  1.0000
  C   C977      1.0  0.60738  0.98981  0.20298  1.0000
  H   H1542     1.0  0.42780  0.92415  0.14940  1.0000
  H   H1543     1.0  0.50868  0.85259  0.14922  1.0000
  H   H1544     1.0  0.43738  0.82285  0.09461  1.0000
  H   H1545     1.0  0.53677  0.76705  0.02002  1.0000
  Fe  Fe201     1.0  0.44688  0.94522  0.21268  1.0000
  N   N94       1.0  0.49714  0.85993  0.16958  1.0000
  H   H1546     1.0  0.58480  0.98819  0.12404  1.0000
  H   H1547     1.0  0.40975  0.68728  0.00739  1.0000
  C   C978      1.0  0.41403  0.67706  0.00268  1.0000
  Fe  Fe202     1.0  0.53578  0.94164  0.20356  1.0000
  Fe  Fe203     1.0  0.44679  0.95674  0.17975  1.0000
  H   H1548     1.0  0.54046  0.93617  0.11071  1.0000
  C   C979      1.0  0.51108  0.93555  0.11814  1.0000
  H   H1549     1.0  0.54115  0.94033  0.12780  1.0000
  H   H1550     1.0  0.50122  0.83611  0.17350  1.0000
  H   H1551     1.0  0.46977  0.81817  0.06338  1.0000
  C   C980      1.0  0.54309  0.94612  0.23428  1.0000
  C   C981      1.0  0.55799  0.94286  0.22659  1.0000
  C   C982      1.0  0.36408  0.71083  0.00670  1.0000
  H   H1552     1.0  0.43678  0.95162  0.11430  1.0000
  H   H1553     1.0  0.50644  0.89278  0.21399  1.0000
  C   C983      1.0  0.49075  0.92078  0.21385  1.0000
  C   C984      1.0  0.44944  0.93973  0.13831  1.0000
  H   H1554     1.0  0.46407  0.74099  0.04233  1.0000
  C   C985      1.0  0.50253  0.97377  0.15545  1.0000
  H   H1555     1.0  0.49058  0.74808  0.02516  1.0000
  H   H1556     1.0  0.47932  0.95341  0.24123  1.0000
  H   H1557     1.0  0.50536  0.96446  0.11776  1.0000
  S   S395      1.0  0.50889  0.98342  0.08414  1.0000
  H   H1558     1.0  0.48482  0.96899  0.22779  1.0000
  H   H1559     1.0  0.50301  0.79065  0.99498  1.0000
  H   H1560     1.0  0.45931  0.72396  0.05340  1.0000
  H   H1561     1.0  0.49828  0.96402  0.17876  1.0000
  H   H1562     1.0  0.50961  0.85866  0.18584  1.0000
  N   N95       1.0  0.59978  0.98002  0.21575  1.0000
  H   H1563     1.0  0.45640  0.94646  0.12915  1.0000
  H   H1564     1.0  0.43024  0.96189  0.15049  1.0000
  H   H1565     1.0  0.47429  0.87240  0.17195  1.0000
  H   H1566     1.0  0.43491  0.93283  0.12178  1.0000
  H   H1567     1.0  0.50715  0.97307  0.21517  1.0000
  H   H1568     1.0  0.45593  0.80975  0.11053  1.0000
  C   C986      1.0  0.52585  0.98296  0.21162  1.0000
  C   C987      1.0  0.35632  0.69696  0.99324  1.0000
  H   H1569     1.0  0.37995  0.66980  0.00663  1.0000
  C   C988      1.0  0.52797  0.76635  0.01471  1.0000
  H   H1570     1.0  0.60093  0.95665  0.22416  1.0000
  C   C989      1.0  0.56955  0.94457  0.23217  1.0000
  H   H1571     1.0  0.52269  0.96454  0.12201  1.0000
  S   S396      1.0  0.54657  0.95754  0.18459  1.0000
  H   H1572     1.0  0.52041  0.91107  0.21353  1.0000
  C   C990      1.0  0.58588  0.97739  0.16566  1.0000
  C   C991      1.0  0.47020  0.91288  0.06595  1.0000
  H   H1573     1.0  0.61958  0.98758  0.20276  1.0000
  C   C992      1.0  0.48077  0.97691  0.09208  1.0000
  H   H1574     1.0  0.51405  0.95362  0.08141  1.0000
  C   C993      1.0  0.51736  0.95857  0.11707  1.0000
  C   C994      1.0  0.49551  0.91459  0.05318  1.0000
  H   H1575     1.0  0.51995  0.76048  0.02345  1.0000
  H   H1576     1.0  0.49563  0.92256  0.05974  1.0000
  H   H1577     1.0  0.50490  0.88701  0.23372  1.0000
  C   C995      1.0  0.56098  0.97864  0.14252  1.0000
  H   H1578     1.0  0.47537  0.80377  0.10212  1.0000
  H   H1579     1.0  0.44330  0.82578  0.07478  1.0000
  H   H1580     1.0  0.47588  0.82721  0.07402  1.0000
  H   H1581     1.0  0.48941  0.93261  0.21424  1.0000
  H   H1582     1.0  0.52270  0.95976  0.10506  1.0000
  N   N96       1.0  0.46066  0.81321  0.08673  1.0000
  C   C996      1.0  0.38935  0.67185  0.01017  1.0000
  H   H1583     1.0  0.52122  0.79155  0.02473  1.0000
  S   S397      1.0  0.38726  0.74791  0.01467  1.0000
  H   H1584     1.0  0.46979  0.92069  0.07293  1.0000
  H   H1585     1.0  0.43062  0.96330  0.23163  1.0000
  H   H1586     1.0  0.53658  0.92338  0.12790  1.0000
  H   H1587     1.0  0.46805  0.78962  0.08786  1.0000
  S   S398      1.0  0.42404  0.73705  0.00639  1.0000
  Fe  Fe204     1.0  0.53079  0.95550  0.17190  1.0000
  N   N97       1.0  0.48020  0.91595  0.05124  1.0000
  H   H1588     1.0  0.41364  0.79527  0.00566  1.0000
  C   C997      1.0  0.47994  0.96527  0.16905  1.0000
  C   C998      1.0  0.51122  0.98314  0.21098  1.0000
  H   H1589     1.0  0.50725  0.80163  0.01402  1.0000
  N   N98       1.0  0.43331  0.94523  0.13808  1.0000
  H   H1590     1.0  0.44858  0.79573  0.09617  1.0000
  H   H1591     1.0  0.48934  0.86190  0.14985  1.0000
  S   S399      1.0  0.41311  0.74870  0.04267  1.0000
  S   S400      1.0  0.45710  0.96634  0.15640  1.0000
  S   S401      1.0  0.52113  0.97406  0.15449  1.0000
  H   H1592     1.0  0.47392  0.93958  0.04971  1.0000
  H   H1593     1.0  0.51860  0.90597  0.23330  1.0000
  H   H1594     1.0  0.45476  0.79889  0.07636  1.0000
  C   C999      1.0  0.48060  0.90511  0.04256  1.0000
  C   C1000     1.0  0.45786  0.79874  0.08685  1.0000
  S   S402      1.0  0.44258  0.96805  0.19855  1.0000
  C   C1001     1.0  0.49405  0.96732  0.16870  1.0000
  C   C1002     1.0  0.49637  0.97931  0.14276  1.0000
  C   C1003     1.0  0.60171  0.98248  0.22968  1.0000
  N   N99       1.0  0.49792  0.91054  0.22585  1.0000
  H   H1595     1.0  0.50437  0.78520  0.02774  1.0000
  H   H1596     1.0  0.45179  0.94022  0.14895  1.0000
  H   H1597     1.0  0.47618  0.98821  0.09360  1.0000
  C   C1004     1.0  0.49746  0.75356  0.06130  1.0000
  C   C1005     1.0  0.49625  0.97201  0.08727  1.0000
  H   H1598     1.0  0.41863  0.94789  0.12340  1.0000
  H   H1599     1.0  0.50512  0.66078  0.99964  1.0000
  H   H1600     1.0  0.53816  0.99075  0.12838  1.0000
  C   C1006     1.0  0.35810  0.69902  0.00663  1.0000
  H   H1601     1.0  0.49748  0.91916  0.20270  1.0000
  C   C1007     1.0  0.45676  0.73319  0.04388  1.0000
  C   C1008     1.0  0.58361  0.98345  0.21566  1.0000
  H   H1602     1.0  0.38490  0.68199  0.01501  1.0000
  H   H1603     1.0  0.48829  0.89268  0.22604  1.0000
  H   H1604     1.0  0.57686  0.96821  0.11829  1.0000
  H   H1605     1.0  0.50272  0.98465  0.13253  1.0000
  C   C1009     1.0  0.45421  0.70338  0.99568  1.0000
  C   C1010     1.0  0.47787  0.96567  0.23891  1.0000
  H   H1606     1.0  0.35171  0.68782  0.99322  1.0000
  H   H1607     1.0  0.50562  0.96689  0.24093  1.0000
  H   H1608     1.0  0.55728  0.96925  0.12004  1.0000
  C   C1011     1.0  0.46917  0.69777  0.99697  1.0000
  H   H1609     1.0  0.45513  0.99113  0.17512  1.0000
  S   S403      1.0  0.40331  0.72021  0.99717  1.0000
  H   H1610     1.0  0.55829  0.98628  0.15028  1.0000
  H   H1611     1.0  0.46596  0.97073  0.23807  1.0000
  C   C1012     1.0  0.40818  0.65978  0.99193  1.0000
  N   N100      1.0  0.40220  0.67366  0.99759  1.0000
  H   H1612     1.0  0.58107  0.94173  0.22632  1.0000
  H   H1613     1.0  0.41828  0.66791  0.01155  1.0000
  H   H1614     1.0  0.59598  0.97538  0.23953  1.0000
  H   H1615     1.0  0.48721  0.92477  0.24142  1.0000
  H   H1616     1.0  0.36655  0.97987  0.41766  1.0000
  H   H1617     1.0  0.65436  0.95635  0.45361  1.0000
  H   H1618     1.0  0.63886  0.94423  0.32318  1.0000
  Fe  Fe205     1.0  0.62968  0.98683  0.48956  1.0000
  Fe  Fe206     1.0  0.42777  0.97101  0.33023  1.0000
  H   H1619     1.0  0.66673  0.97668  0.42582  1.0000
  Fe  Fe207     1.0  0.57482  0.97795  0.29419  1.0000
  H   H1620     1.0  0.47470  0.96970  0.27380  1.0000
  S   S404      1.0  0.58236  0.96920  0.31613  1.0000
  Fe  Fe208     1.0  0.57359  0.96926  0.26606  1.0000
  C   C1013     1.0  0.63682  0.98136  0.31115  1.0000
  S   S405      1.0  0.58083  0.95207  0.25203  1.0000
  H   H1621     1.0  0.64940  0.97627  0.45033  1.0000
  H   H1622     1.0  0.47470  0.98667  0.30105  1.0000
  H   H1623     1.0  0.49986  0.95102  0.25353  1.0000
  C   C1014     1.0  0.38043  0.97034  0.32557  1.0000
  S   S406      1.0  0.59080  0.97723  0.27221  1.0000
  S   S407      1.0  0.55878  0.96766  0.28879  1.0000
  H   H1624     1.0  0.39183  0.95670  0.37778  1.0000
  H   H1625     1.0  0.59712  0.96337  0.34028  1.0000
  H   H1626     1.0  0.37312  0.97416  0.39214  1.0000
  H   H1627     1.0  0.38191  0.98691  0.41817  1.0000
  H   H1628     1.0  0.64537  0.95609  0.33050  1.0000
  H   H1629     1.0  0.62578  0.95922  0.33088  1.0000
  C   C1015     1.0  0.60451  0.97632  0.40144  1.0000
  H   H1630     1.0  0.37763  0.97917  0.45236  1.0000
  N   N101      1.0  0.63921  0.96597  0.30934  1.0000
  C   C1016     1.0  0.65750  0.96627  0.45477  1.0000
  C   C1017     1.0  0.55129  0.95362  0.25268  1.0000
  H   H1631     1.0  0.62929  0.97285  0.29009  1.0000
  H   H1632     1.0  0.54799  0.97003  0.33806  1.0000
  S   S408      1.0  0.34030  0.97975  0.40536  1.0000
  Fe  Fe209     1.0  0.45686  0.96704  0.30749  1.0000
  H   H1633     1.0  0.34911  0.98634  0.34799  1.0000
  C   C1018     1.0  0.47220  0.96591  0.26492  1.0000
  H   H1634     1.0  0.50093  0.96623  0.26052  1.0000
  H   H1635     1.0  0.50633  0.98085  0.34186  1.0000
  H   H1636     1.0  0.36783  0.95476  0.35203  1.0000
  C   C1019     1.0  0.42348  0.96801  0.25351  1.0000
  H   H1637     1.0  0.38495  0.95874  0.35297  1.0000
  C   C1020     1.0  0.38200  0.97808  0.38355  1.0000
  S   S409      1.0  0.44711  0.98482  0.28997  1.0000
  H   H1638     1.0  0.58068  0.98705  0.42116  1.0000
  H   H1639     1.0  0.54268  0.95293  0.33966  1.0000
  H   H1640     1.0  0.65687  0.94967  0.29941  1.0000
  H   H1641     1.0  0.52927  0.97003  0.28174  1.0000
  H   H1642     1.0  0.64480  0.98221  0.31741  1.0000
  C   C1021     1.0  0.63719  0.95593  0.32411  1.0000
  H   H1643     1.0  0.51272  0.95215  0.28884  1.0000
  C   C1022     1.0  0.43945  0.95404  0.27082  1.0000
  H   H1644     1.0  0.36718  0.96778  0.36270  1.0000
  H   H1645     1.0  0.63197  0.97691  0.43273  1.0000
  N   N102      1.0  0.48198  0.97043  0.25050  1.0000
  H   H1646     1.0  0.53049  0.96286  0.31109  1.0000
  C   C1023     1.0  0.44904  0.94652  0.25984  1.0000
  H   H1647     1.0  0.45881  0.93808  0.26239  1.0000
  C   C1024     1.0  0.37783  0.98809  0.34039  1.0000
  C   C1025     1.0  0.50803  0.96356  0.28999  1.0000
  C   C1026     1.0  0.42667  0.96483  0.26765  1.0000
  H   H1648     1.0  0.66317  0.96170  0.30671  1.0000
  C   C1027     1.0  0.48658  0.98297  0.29684  1.0000
  H   H1649     1.0  0.54867  0.95774  0.26277  1.0000
  H   H1650     1.0  0.37870  0.96961  0.43026  1.0000
  N   N103      1.0  0.52831  0.97261  0.32958  1.0000
  C   C1028     1.0  0.56621  0.95000  0.24519  1.0000
  C   C1029     1.0  0.39261  0.96818  0.37542  1.0000
  N   N104      1.0  0.36322  0.98915  0.43671  1.0000
  H   H1651     1.0  0.44189  0.95143  0.28177  1.0000
  H   H1652     1.0  0.66123  0.97362  0.48796  1.0000
  C   C1030     1.0  0.51740  0.97366  0.28600  1.0000
  H   H1653     1.0  0.46018  0.97075  0.26455  1.0000
  C   C1031     1.0  0.65461  0.96128  0.30088  1.0000
  H   H1654     1.0  0.62528  0.98533  0.31735  1.0000
  S   S410      1.0  0.48105  0.95539  0.30122  1.0000
  C   C1032     1.0  0.35581  0.98170  0.33809  1.0000
  H   H1655     1.0  0.62969  0.95386  0.29962  1.0000
  H   H1656     1.0  0.47377  0.95362  0.26834  1.0000
  C   C1033     1.0  0.59538  0.97517  0.33561  1.0000
  H   H1657     1.0  0.52835  0.95389  0.25346  1.0000
  S   S411      1.0  0.41484  0.97474  0.28105  1.0000
  H   H1658     1.0  0.37609  0.96124  0.32417  1.0000
  H   H1659     1.0  0.33601  0.87637  0.41000  1.0000
  H   H1660     1.0  0.49361  0.90561  0.24974  1.0000
  C   C1034     1.0  0.53978  0.95144  0.24738  1.0000
  S   S412      1.0  0.33529  0.96536  0.37260  1.0000
  H   H1661     1.0  0.55148  0.96241  0.32203  1.0000
  S   S413      1.0  0.41558  0.96091  0.35266  1.0000
  S   S414      1.0  0.43747  0.95591  0.31393  1.0000
  C   C1035     1.0  0.44592  0.94983  0.24564  1.0000
  H   H1662     1.0  0.38999  0.98430  0.34047  1.0000
  H   H1663     1.0  0.51155  0.97073  0.31921  1.0000
  S   S415      1.0  0.56127  0.99200  0.25665  1.0000
  H   H1664     1.0  0.39250  0.96581  0.32609  1.0000
  C   C1036     1.0  0.49264  0.96816  0.29563  1.0000
  H   H1665     1.0  0.41360  0.97630  0.25097  1.0000
  S   S416      1.0  0.44814  0.98054  0.32517  1.0000
  H   H1666     1.0  0.65591  0.96574  0.46685  1.0000
  C   C1037     1.0  0.40387  0.97319  0.36388  1.0000
  C   C1038     1.0  0.60044  0.98435  0.34159  1.0000
  Fe  Fe210     1.0  0.42692  0.97515  0.29804  1.0000
  H   H1667     1.0  0.58767  0.98734  0.38077  1.0000
  H   H1668     1.0  0.60604  0.97961  0.35082  1.0000
  S   S417      1.0  0.63947  0.98193  0.40112  1.0000
  C   C1039     1.0  0.52270  0.96453  0.32180  1.0000
  H   H1669     1.0  0.52141  0.95336  0.32855  1.0000
  C   C1040     1.0  0.58818  0.98116  0.32356  1.0000
  S   S418      1.0  0.63539  0.98022  0.36250  1.0000
  C   C1041     1.0  0.37301  0.96377  0.35225  1.0000
  C   C1042     1.0  0.51767  0.97444  0.34376  1.0000
  H   H1670     1.0  0.35625  0.96955  0.45078  1.0000
  H   H1671     1.0  0.52153  0.98050  0.34994  1.0000
  C   C1043     1.0  0.54322  0.96411  0.33251  1.0000
  C   C1044     1.0  0.49776  0.96335  0.25141  1.0000
  C   C1045     1.0  0.62822  0.96530  0.30123  1.0000
  H   H1672     1.0  0.51633  0.96349  0.35108  1.0000
  C   C1046     1.0  0.43313  0.96060  0.24252  1.0000
  C   C1047     1.0  0.35140  0.98113  0.44549  1.0000
  H   H1673     1.0  0.47708  0.91139  0.24193  1.0000
  H   H1674     1.0  0.34400  0.98052  0.43847  1.0000
  C   C1048     1.0  0.63071  0.98876  0.42853  1.0000
  H   H1675     1.0  0.48219  0.99072  0.25596  1.0000
  C   C1049     1.0  0.47995  0.98676  0.24699  1.0000
  H   H1676     1.0  0.35067  0.97274  0.33767  1.0000
  H   H1677     1.0  0.37996  0.97927  0.31538  1.0000
  H   H1678     1.0  0.61543  0.97621  0.39337  1.0000
  H   H1679     1.0  0.59978  0.96751  0.40002  1.0000
  H   H1680     1.0  0.65658  0.96860  0.28968  1.0000
  H   H1681     1.0  0.34412  0.98676  0.45452  1.0000
  H   H1682     1.0  0.61648  0.96866  0.30737  1.0000
  N   N105      1.0  0.37176  0.97598  0.33906  1.0000
  Fe  Fe211     1.0  0.65685  0.98381  0.34656  1.0000
  H   H1683     1.0  0.60716  0.97308  0.41271  1.0000
  H   H1684     1.0  0.53764  0.98644  0.30950  1.0000
  C   C1050     1.0  0.37305  0.98099  0.42526  1.0000
  H   H1685     1.0  0.57433  0.98226  0.40731  1.0000
  C   C1051     1.0  0.51140  0.98828  0.28788  1.0000
  C   C1052     1.0  0.52963  0.98740  0.32023  1.0000
  C   C1053     1.0  0.40490  0.98803  0.36091  1.0000
  H   H1686     1.0  0.63846  0.98921  0.30024  1.0000
  C   C1054     1.0  0.57950  0.99042  0.40936  1.0000
  S   S419      1.0  0.41572  0.98951  0.31469  1.0000
  Fe  Fe212     1.0  0.64237  0.99162  0.37651  1.0000
  C   C1055     1.0  0.37220  0.99034  0.44664  1.0000
  H   H1687     1.0  0.35442  0.99068  0.32809  1.0000
  N   N106      1.0  0.59418  0.99109  0.39916  1.0000
  H   H1688     1.0  0.37213  0.99209  0.35087  1.0000
  Fe  Fe213     1.0  0.54777  0.99115  0.27985  1.0000
  H   H1689     1.0  0.41358  0.99196  0.35199  1.0000
  H   H1690     1.0  0.46832  0.99244  0.24554  1.0000
  H   H1691     1.0  0.49574  0.93414  0.70483  1.0000
  S   S420      1.0  0.45141  0.96647  0.71180  1.0000
  H   H1692     1.0  0.51184  0.90228  0.70184  1.0000
  Fe  Fe214     1.0  0.52770  0.97340  0.72106  1.0000
  H   H1693     1.0  0.46129  0.98675  0.65044  1.0000
  C   C1056     1.0  0.60507  0.97636  0.52763  1.0000
  H   H1694     1.0  0.51047  0.92882  0.68970  1.0000
  H   H1695     1.0  0.53653  0.92503  0.70480  1.0000
  H   H1696     1.0  0.58277  0.97392  0.55168  1.0000
  C   C1057     1.0  0.45947  0.98182  0.64192  1.0000
  S   S421      1.0  0.56827  0.95158  0.70875  1.0000
  Fe  Fe215     1.0  0.44750  0.94961  0.68106  1.0000
  C   C1058     1.0  0.36791  0.98823  0.56384  1.0000
  S   S422      1.0  0.43917  0.97374  0.68132  1.0000
  H   H1697     1.0  0.42251  0.98720  0.56186  1.0000
  C   C1059     1.0  0.53331  0.96431  0.64075  1.0000
  S   S423      1.0  0.57484  0.97845  0.73046  1.0000
  Fe  Fe216     1.0  0.43046  0.96628  0.70550  1.0000
  S   S424      1.0  0.55973  0.97245  0.66998  1.0000
  C   C1060     1.0  0.61032  0.95577  0.54787  1.0000
  Fe  Fe217     1.0  0.45849  0.94277  0.70945  1.0000
  H   H1698     1.0  0.51609  0.93236  0.72555  1.0000
  H   H1699     1.0  0.51224  0.94150  0.69965  1.0000
  H   H1700     1.0  0.40307  0.98975  0.56130  1.0000
  H   H1701     1.0  0.64215  0.94083  0.52249  1.0000
  Fe  Fe218     1.0  0.46071  0.97166  0.68746  1.0000
  H   H1702     1.0  0.54540  0.97881  0.62348  1.0000
  H   H1703     1.0  0.46355  0.95906  0.62874  1.0000
  C   C1061     1.0  0.65026  0.95754  0.50440  1.0000
  S   S425      1.0  0.54557  0.98482  0.70649  1.0000
  C   C1062     1.0  0.54989  0.96844  0.65901  1.0000
  Fe  Fe219     1.0  0.56011  0.96957  0.72183  1.0000
  H   H1704     1.0  0.48149  0.96102  0.61705  1.0000
  H   H1705     1.0  0.37346  0.97658  0.56580  1.0000
  C   C1063     1.0  0.58485  0.96587  0.54446  1.0000
  C   C1064     1.0  0.42793  0.95521  0.65632  1.0000
  C   C1065     1.0  0.41573  0.95834  0.66795  1.0000
  C   C1066     1.0  0.40190  0.96701  0.66486  1.0000
  C   C1067     1.0  0.40039  0.97301  0.65014  1.0000
  C   C1068     1.0  0.41265  0.97007  0.63852  1.0000
  C   C1069     1.0  0.42634  0.96100  0.64161  1.0000
  H   H1706     1.0  0.41689  0.95383  0.67934  1.0000
  H   H1707     1.0  0.39243  0.96921  0.67386  1.0000
  H   H1708     1.0  0.41153  0.97461  0.62713  1.0000
  H   H1709     1.0  0.43572  0.95860  0.63258  1.0000
  C   C1070     1.0  0.53124  0.95723  0.65578  1.0000
  C   C1071     1.0  0.50815  0.93134  0.70091  1.0000
  C   C1072     1.0  0.48126  0.96189  0.64500  1.0000
  S   S426      1.0  0.35608  0.98152  0.54383  1.0000
  H   H1710     1.0  0.43940  0.98463  0.74042  1.0000
  H   H1711     1.0  0.49220  0.95567  0.63948  1.0000
  C   C1073     1.0  0.54371  0.97330  0.63496  1.0000
  S   S427      1.0  0.47004  0.94801  0.68547  1.0000
  H   H1712     1.0  0.45172  0.97424  0.64768  1.0000
  C   C1074     1.0  0.50948  0.90548  0.71274  1.0000
  C   C1075     1.0  0.48728  0.97534  0.70040  1.0000
  H   H1713     1.0  0.60350  0.98464  0.53448  1.0000
  C   C1076     1.0  0.48368  0.98422  0.62641  1.0000
  H   H1714     1.0  0.48654  0.96524  0.69791  1.0000
  H   H1715     1.0  0.60890  0.96338  0.55539  1.0000
  H   H1716     1.0  0.58935  0.98167  0.65920  1.0000
  H   H1717     1.0  0.47419  0.95370  0.65096  1.0000
  H   H1718     1.0  0.48621  0.98936  0.63434  1.0000
  C   C1077     1.0  0.66170  0.96534  0.49813  1.0000
  N   N107      1.0  0.51528  0.91869  0.71139  1.0000
  C   C1078     1.0  0.47087  0.96712  0.62319  1.0000
  H   H1719     1.0  0.61706  0.97419  0.52182  1.0000
  S   S428      1.0  0.43666  0.94205  0.70493  1.0000
  C   C1079     1.0  0.53173  0.91536  0.70587  1.0000
  H   H1720     1.0  0.59827  0.98166  0.51897  1.0000
  N   N108      1.0  0.47382  0.97376  0.63413  1.0000
  C   C1080     1.0  0.65089  0.94696  0.51766  1.0000
  N   N109      1.0  0.60077  0.96250  0.53678  1.0000
  H   H1721     1.0  0.51459  0.89576  0.72062  1.0000
  H   H1722     1.0  0.44040  0.94376  0.73698  1.0000
  H   H1723     1.0  0.60754  0.94518  0.55488  1.0000
  H   H1724     1.0  0.58122  0.95571  0.55162  1.0000
  S   S429      1.0  0.44539  0.94487  0.66015  1.0000
  H   H1725     1.0  0.46608  0.97188  0.73580  1.0000
  S   S430      1.0  0.54810  0.91924  0.73338  1.0000
  H   H1726     1.0  0.61483  0.94898  0.52141  1.0000
  C   C1081     1.0  0.60288  0.95202  0.52713  1.0000
  S   S431      1.0  0.38348  0.98495  0.64638  1.0000
  H   H1727     1.0  0.49710  0.90757  0.71696  1.0000
  H   H1728     1.0  0.56017  0.98214  0.63926  1.0000
  C   C1082     1.0  0.51177  0.92254  0.72611  1.0000
  S   S432      1.0  0.40861  0.97817  0.71744  1.0000
  H   H1729     1.0  0.52315  0.95030  0.66032  1.0000
  S   S433      1.0  0.52260  0.96264  0.62915  1.0000
  C   C1083     1.0  0.55211  0.97519  0.64398  1.0000
  H   H1730     1.0  0.62244  0.95327  0.54241  1.0000
  S   S434      1.0  0.53252  0.95621  0.70750  1.0000
  H   H1731     1.0  0.51691  0.91323  0.73434  1.0000
  H   H1732     1.0  0.48360  0.96651  0.65346  1.0000
  C   C1084     1.0  0.66267  0.94459  0.52492  1.0000
  Fe  Fe220     1.0  0.52526  0.98101  0.60902  1.0000
  H   H1733     1.0  0.49886  0.96385  0.71821  1.0000
  C   C1085     1.0  0.49429  0.97455  0.71184  1.0000
  Fe  Fe221     1.0  0.55214  0.96611  0.69459  1.0000
  H   H1734     1.0  0.53783  0.95403  0.67657  1.0000
  C   C1086     1.0  0.53949  0.95937  0.66497  1.0000
  C   C1087     1.0  0.41238  0.99218  0.72346  1.0000
  S   S435      1.0  0.47008  0.92696  0.72701  1.0000
  Fe  Fe222     1.0  0.54807  0.94309  0.72276  1.0000
  S   S436      1.0  0.54289  0.98995  0.55283  1.0000
  H   H1735     1.0  0.53484  0.91237  0.69479  1.0000
  H   H1736     1.0  0.57730  0.97082  0.53640  1.0000
  S   S437      1.0  0.54168  0.95957  0.73728  1.0000
  S   S438      1.0  0.51252  0.98728  0.59083  1.0000
  H   H1737     1.0  0.59943  0.94155  0.53357  1.0000
  H   H1738     1.0  0.53746  0.90598  0.71364  1.0000
  H   H1739     1.0  0.59621  0.95697  0.51830  1.0000
  H   H1740     1.0  0.49947  0.92521  0.73060  1.0000
  S   S439      1.0  0.54679  0.98523  0.59361  1.0000
  S   S440      1.0  0.33694  0.98015  0.51178  1.0000
  S   S441      1.0  0.47274  0.99000  0.67786  1.0000
  H   H1741     1.0  0.66303  0.93661  0.53531  1.0000
  S   S442      1.0  0.63455  0.96210  0.49637  1.0000
  H   H1742     1.0  0.46518  0.97576  0.61485  1.0000
  Fe  Fe223     1.0  0.33638  0.98762  0.53246  1.0000
  H   H1743     1.0  0.49459  0.97843  0.62047  1.0000
  H   H1744     1.0  0.40434  0.98819  0.68132  1.0000
  C   C1088     1.0  0.49521  0.98759  0.71511  1.0000
  H   H1745     1.0  0.57408  0.99178  0.68143  1.0000
  H   H1746     1.0  0.41827  0.99143  0.65570  1.0000
  C   C1089     1.0  0.48146  0.98917  0.69208  1.0000
  S   S443      1.0  0.50482  0.98667  0.72866  1.0000
  H   H1747     1.0  0.52063  0.98780  0.66635  1.0000
  H   H1748     1.0  0.46813  0.99146  0.57619  1.0000
  H   H1749     1.0  0.45367  0.99094  0.63400  1.0000
  H   H1750     1.0  0.66153  0.99181  0.54677  1.0000
  H   H1751     1.0  0.54913  0.67048  0.95969  1.0000
  C   C1090     1.0  0.36555  0.71908  0.98015  1.0000
  C   C1091     1.0  0.46809  0.66848  0.95906  1.0000
  H   H1752     1.0  0.46845  0.70383  0.93967  1.0000
  N   N110      1.0  0.46719  0.68449  0.95725  1.0000
  S   S444      1.0  0.48740  0.73273  0.97397  1.0000
  H   H1753     1.0  0.45871  0.66657  0.95543  1.0000
  H   H1754     1.0  0.55404  0.69931  0.93493  1.0000
  C   C1092     1.0  0.46906  0.69175  0.94135  1.0000
  S   S445      1.0  0.38755  0.68174  0.93981  1.0000
  H   H1755     1.0  0.38341  0.72838  0.89791  1.0000
  C   C1093     1.0  0.50103  0.69042  0.89776  1.0000
  H   H1756     1.0  0.47832  0.68077  0.97523  1.0000
  C   C1094     1.0  0.53188  0.79532  0.90007  1.0000
  H   H1757     1.0  0.54773  0.70005  0.95415  1.0000
  H   H1758     1.0  0.45793  0.81001  0.94847  1.0000
  S   S446      1.0  0.37862  0.67755  0.90318  1.0000
  C   C1095     1.0  0.37808  0.72546  0.87854  1.0000
  C   C1096     1.0  0.41506  0.69026  0.90445  1.0000
  C   C1097     1.0  0.34749  0.74024  0.94306  1.0000
  H   H1759     1.0  0.43661  0.70063  0.88271  1.0000
  S   S447      1.0  0.47501  0.66667  0.91796  1.0000
  H   H1760     1.0  0.37743  0.75554  0.92506  1.0000
  S   S448      1.0  0.37979  0.74326  0.86821  1.0000
  Fe  Fe224     1.0  0.39800  0.74951  0.87428  1.0000
  H   H1761     1.0  0.47458  0.76403  0.93535  1.0000
  H   H1762     1.0  0.35284  0.73753  0.91455  1.0000
  S   S449      1.0  0.35681  0.70546  0.96327  1.0000
  C   C1098     1.0  0.55172  0.67335  0.90727  1.0000
  H   H1763     1.0  0.52800  0.68150  0.91457  1.0000
  C   C1099     1.0  0.41297  0.73518  0.93531  1.0000
  H   H1764     1.0  0.48866  0.69468  0.89928  1.0000
  S   S450      1.0  0.48351  0.72210  0.91313  1.0000
  H   H1765     1.0  0.44179  0.82484  0.94608  1.0000
  H   H1766     1.0  0.36836  0.72698  0.97000  1.0000
  C   C1100     1.0  0.44667  0.94135  0.74559  1.0000
  H   H1767     1.0  0.47878  0.69829  0.96235  1.0000
  C   C1101     1.0  0.53667  0.91795  0.75126  1.0000
  S   S451      1.0  0.52044  0.73368  0.88784  1.0000
  C   C1102     1.0  0.47920  0.68635  0.96331  1.0000
  H   H1768     1.0  0.34292  0.73108  0.94210  1.0000
  H   H1769     1.0  0.52187  0.93937  0.74614  1.0000
  H   H1770     1.0  0.41926  0.72857  0.96998  1.0000
  H   H1771     1.0  0.47877  0.97492  0.74511  1.0000
  H   H1772     1.0  0.58945  0.68769  0.94848  1.0000
  H   H1773     1.0  0.54796  0.71693  0.94028  1.0000
  H   H1774     1.0  0.52945  0.67756  0.87084  1.0000
  N   N111      1.0  0.56971  0.70445  0.94434  1.0000
  C   C1103     1.0  0.45009  0.71700  0.98624  1.0000
  H   H1775     1.0  0.43788  0.97701  0.75986  1.0000
  H   H1776     1.0  0.57798  0.68277  0.93911  1.0000
  C   C1104     1.0  0.44080  0.98650  0.75092  1.0000
  N   N112      1.0  0.36101  0.74222  0.93137  1.0000
  C   C1105     1.0  0.48320  0.73218  0.88363  1.0000
  C   C1106     1.0  0.37951  0.70651  0.90115  1.0000
  H   H1777     1.0  0.42738  0.83723  0.96718  1.0000
  H   H1778     1.0  0.53004  0.70705  0.91289  1.0000
  Fe  Fe225     1.0  0.36571  0.68342  0.95642  1.0000
  H   H1779     1.0  0.45495  0.80999  0.98802  1.0000
  C   C1107     1.0  0.37479  0.71558  0.87209  1.0000
  H   H1780     1.0  0.53953  0.98105  0.77582  1.0000
  S   S452      1.0  0.45502  0.73623  0.85740  1.0000
  C   C1108     1.0  0.44460  0.67181  0.92930  1.0000
  S   S453      1.0  0.52973  0.72346  0.97222  1.0000
  C   C1109     1.0  0.57768  0.68872  0.94776  1.0000
  C   C1110     1.0  0.56576  0.67703  0.90258  1.0000
  C   C1111     1.0  0.46413  0.73025  0.87227  1.0000
  C   C1112     1.0  0.55419  0.70524  0.94340  1.0000
  H   H1781     1.0  0.57856  0.70628  0.92092  1.0000
  H   H1782     1.0  0.44664  0.71997  0.88715  1.0000
  H   H1783     1.0  0.49257  0.70449  0.87189  1.0000
  C   C1113     1.0  0.53886  0.68420  0.91105  1.0000
  H   H1784     1.0  0.45851  0.82870  0.94804  1.0000
  H   H1785     1.0  0.34792  0.75679  0.91572  1.0000
  H   H1786     1.0  0.43166  0.80545  0.98532  1.0000
  H   H1787     1.0  0.45120  0.70350  0.96404  1.0000
  H   H1788     1.0  0.51162  0.95940  0.79874  1.0000
  H   H1789     1.0  0.52269  0.98122  0.79007  1.0000
  H   H1790     1.0  0.44749  0.77755  0.94163  1.0000
  C   C1114     1.0  0.37255  0.72816  0.93226  1.0000
  H   H1791     1.0  0.37009  0.75108  0.94458  1.0000
  H   H1792     1.0  0.35001  0.73731  0.95434  1.0000
  H   H1793     1.0  0.51929  0.94358  0.79020  1.0000
  C   C1115     1.0  0.53953  0.66840  0.96840  1.0000
  H   H1794     1.0  0.44651  0.68310  0.87793  1.0000
  H   H1795     1.0  0.57573  0.66870  0.89958  1.0000
  C   C1116     1.0  0.36705  0.75397  0.93350  1.0000
  H   H1796     1.0  0.52194  0.78497  0.96785  1.0000
  H   H1797     1.0  0.50292  0.68056  0.90682  1.0000
  C   C1117     1.0  0.44462  0.76645  0.94491  1.0000
  H   H1798     1.0  0.33843  0.75052  0.94252  1.0000
  H   H1799     1.0  0.57207  0.68275  0.95856  1.0000
  H   H1800     1.0  0.42092  0.67597  0.93943  1.0000
  C   C1118     1.0  0.38056  0.72087  0.89303  1.0000
  H   H1801     1.0  0.44310  0.69003  0.96104  1.0000
  C   C1119     1.0  0.41689  0.68676  0.87991  1.0000
  C   C1120     1.0  0.46315  0.72027  0.89860  1.0000
  C   C1121     1.0  0.54003  0.69873  0.90996  1.0000
  Fe  Fe226     1.0  0.37633  0.67220  0.92791  1.0000
  H   H1802     1.0  0.49304  0.73612  0.88265  1.0000
  H   H1803     1.0  0.56337  0.72377  0.95395  1.0000
  C   C1122     1.0  0.52401  0.68068  0.88175  1.0000
  C   C1123     1.0  0.56936  0.71190  0.95616  1.0000
  H   H1804     1.0  0.43292  0.76808  0.94361  1.0000
  C   C1124     1.0  0.36000  0.70704  0.97999  1.0000
  C   C1125     1.0  0.47610  0.72507  0.89743  1.0000
  S   S454      1.0  0.35386  0.67578  0.94336  1.0000
  H   H1805     1.0  0.45479  0.98070  0.77334  1.0000
  S   S455      1.0  0.55564  0.72043  0.90438  1.0000
  H   H1806     1.0  0.45754  0.71484  0.90926  1.0000
  H   H1807     1.0  0.45687  0.73693  0.97322  1.0000
  C   C1126     1.0  0.37458  0.70097  0.87991  1.0000
  H   H1808     1.0  0.37293  0.71906  0.86087  1.0000
  H   H1809     1.0  0.42607  0.81156  0.96777  1.0000
  H   H1810     1.0  0.37263  0.69318  0.87465  1.0000
  H   H1811     1.0  0.41186  0.86415  0.87181  1.0000
  H   H1812     1.0  0.44207  0.79649  0.97024  1.0000
  C   C1127     1.0  0.50482  0.70000  0.87134  1.0000
  C   C1128     1.0  0.37699  0.69639  0.89443  1.0000
  S   S456      1.0  0.41490  0.72571  0.92145  1.0000
  H   H1813     1.0  0.57785  0.69430  0.89814  1.0000
  C   C1129     1.0  0.56697  0.69149  0.90178  1.0000
  C   C1130     1.0  0.55409  0.70239  0.90533  1.0000
  H   H1814     1.0  0.42076  0.71525  0.95061  1.0000
  C   C1131     1.0  0.45237  0.69138  0.96530  1.0000
  H   H1815     1.0  0.38127  0.70310  0.91237  1.0000
  H   H1816     1.0  0.48284  0.74015  0.86038  1.0000
  N   N113      1.0  0.45621  0.98788  0.74978  1.0000
  C   C1132     1.0  0.45546  0.76231  0.92002  1.0000
  H   H1817     1.0  0.49054  0.68134  0.95739  1.0000
  C   C1133     1.0  0.57763  0.71194  0.92999  1.0000
  H   H1818     1.0  0.42408  0.68208  0.87024  1.0000
  H   H1819     1.0  0.37616  0.72477  0.94307  1.0000
  Fe  Fe227     1.0  0.41349  0.74165  0.89980  1.0000
  C   C1134     1.0  0.46701  0.97418  0.74629  1.0000
  S   S457      1.0  0.37235  0.66086  0.97049  1.0000
  H   H1820     1.0  0.55182  0.94729  0.78230  1.0000
  H   H1821     1.0  0.35878  0.76482  0.93269  1.0000
  H   H1822     1.0  0.50591  0.69904  0.89939  1.0000
  S   S458      1.0  0.41632  0.73057  0.88123  1.0000
  N   N114      1.0  0.50766  0.68657  0.88308  1.0000
  H   H1823     1.0  0.57153  0.72367  0.92669  1.0000
  C   C1135     1.0  0.41669  0.72718  0.94884  1.0000
  H   H1824     1.0  0.43411  0.66357  0.90722  1.0000
  C   C1136     1.0  0.41550  0.73466  0.95996  1.0000
  C   C1137     1.0  0.45706  0.72305  0.88605  1.0000
  H   H1825     1.0  0.47873  0.66308  0.95242  1.0000
  H   H1826     1.0  0.58920  0.71206  0.93042  1.0000
  Fe  Fe228     1.0  0.53314  0.73565  0.90358  1.0000
  H   H1827     1.0  0.51862  0.95954  0.76503  1.0000
  H   H1828     1.0  0.40660  0.68766  0.97588  1.0000
  C   C1138     1.0  0.35691  0.74647  0.91667  1.0000
  H   H1829     1.0  0.46566  0.80155  0.97261  1.0000
  Fe  Fe229     1.0  0.50096  0.73542  0.90719  1.0000
  N   N115      1.0  0.53025  0.80859  0.90595  1.0000
  H   H1830     1.0  0.36825  0.71888  0.93121  1.0000
  S   S459      1.0  0.51406  0.73552  0.92341  1.0000
  C   C1139     1.0  0.46129  0.93261  0.74387  1.0000
  C   C1140     1.0  0.47741  0.73449  0.87099  1.0000
  H   H1831     1.0  0.52959  0.68901  0.88290  1.0000
  H   H1832     1.0  0.44426  0.68319  0.92336  1.0000
  H   H1833     1.0  0.44718  0.79928  0.85557  1.0000
  S   S460      1.0  0.46593  0.92964  0.81252  1.0000
  Fe  Fe230     1.0  0.43170  0.74551  0.86855  1.0000
  Fe  Fe231     1.0  0.46459  0.94424  0.82782  1.0000
  S   S461      1.0  0.45811  0.93741  0.85263  1.0000
  Fe  Fe232     1.0  0.45011  0.86096  0.89080  1.0000
  S   S462      1.0  0.47065  0.86462  0.89526  1.0000
  S   S463      1.0  0.43613  0.87726  0.87533  1.0000
  Fe  Fe233     1.0  0.45419  0.82921  0.90886  1.0000
  S   S464      1.0  0.47532  0.82995  0.91470  1.0000
  S   S465      1.0  0.44390  0.80928  0.91888  1.0000
  Fe  Fe234     1.0  0.46289  0.85261  0.91854  1.0000
  S   S466      1.0  0.46101  0.86113  0.93879  1.0000
  Fe  Fe235     1.0  0.48118  0.84179  0.89092  1.0000
  S   S467      1.0  0.50321  0.83772  0.87491  1.0000
  S   S468      1.0  0.44121  0.85105  0.91448  1.0000
  S   S469      1.0  0.46125  0.83891  0.88467  1.0000
  Fe  Fe236     1.0  0.51446  0.75859  0.88318  1.0000
  S   S470      1.0  0.49378  0.76010  0.90108  1.0000
  S   S471      1.0  0.51358  0.77430  0.86124  1.0000
  C   C1141     1.0  0.51420  0.81447  0.91178  1.0000
  Fe  Fe237     1.0  0.48875  0.93419  0.80216  1.0000
  C   C1142     1.0  0.40321  0.86906  0.89928  1.0000
  Fe  Fe238     1.0  0.50894  0.76028  0.91523  1.0000
  H   H1834     1.0  0.38426  0.85037  0.88776  1.0000
  H   H1835     1.0  0.58087  0.71151  0.95722  1.0000
  H   H1836     1.0  0.52608  0.97601  0.75970  1.0000
  H   H1837     1.0  0.48009  0.68689  0.93483  1.0000
  C   C1143     1.0  0.53333  0.97393  0.78529  1.0000
  H   H1838     1.0  0.46507  0.96438  0.75525  1.0000
  H   H1839     1.0  0.45888  0.73330  0.93433  1.0000
  H   H1840     1.0  0.47361  0.85003  0.98721  1.0000
  H   H1841     1.0  0.44436  0.84078  0.96888  1.0000
  C   C1144     1.0  0.48806  0.83450  0.97403  1.0000
  H   H1842     1.0  0.50112  0.82127  0.95795  1.0000
  H   H1843     1.0  0.41110  0.84487  0.87646  1.0000
  C   C1145     1.0  0.46049  0.72581  0.97934  1.0000
  C   C1146     1.0  0.47747  0.79087  0.84928  1.0000
  H   H1844     1.0  0.53433  0.79571  0.92722  1.0000
  N   N116      1.0  0.45529  0.75602  0.93596  1.0000
  S   S472      1.0  0.43041  0.75532  0.88778  1.0000
  C   C1147     1.0  0.54455  0.95254  0.77404  1.0000
  H   H1845     1.0  0.47878  0.74537  0.93253  1.0000
  C   C1148     1.0  0.51488  0.77347  0.94020  1.0000
  C   C1149     1.0  0.39722  0.68596  0.98559  1.0000
  H   H1846     1.0  0.52908  0.94721  0.80204  1.0000
  H   H1847     1.0  0.52654  0.67059  0.89054  1.0000
  S   S473      1.0  0.39377  0.75964  0.89401  1.0000
  C   C1150     1.0  0.40996  0.75004  0.95786  1.0000
  C   C1151     1.0  0.47050  0.75354  0.93873  1.0000
  H   H1848     1.0  0.40481  0.68572  0.90918  1.0000
  S   S474      1.0  0.48084  0.95447  0.78559  1.0000
  H   H1849     1.0  0.52811  0.75427  0.93145  1.0000
  H   H1850     1.0  0.41470  0.84001  0.90881  1.0000
  H   H1851     1.0  0.43316  0.83105  0.98469  1.0000
  H   H1852     1.0  0.50252  0.66495  0.89028  1.0000
  C   C1152     1.0  0.40815  0.75067  0.93284  1.0000
  H   H1853     1.0  0.50953  0.70899  0.87248  1.0000
  C   C1153     1.0  0.42821  0.66677  0.89782  1.0000
  C   C1154     1.0  0.52454  0.92964  0.75463  1.0000
  H   H1854     1.0  0.54487  0.74655  0.94915  1.0000
  H   H1855     1.0  0.44418  0.76419  0.91755  1.0000
  H   H1856     1.0  0.38823  0.68378  0.98152  1.0000
  C   C1155     1.0  0.53968  0.90519  0.76222  1.0000
  H   H1857     1.0  0.39479  0.87141  0.90947  1.0000
  H   H1858     1.0  0.50966  0.97479  0.77395  1.0000
  C   C1156     1.0  0.46864  0.85511  0.96552  1.0000
  H   H1859     1.0  0.41454  0.86690  0.90172  1.0000
  H   H1860     1.0  0.54381  0.79064  0.89535  1.0000
  H   H1861     1.0  0.40215  0.87939  0.89047  1.0000
  H   H1862     1.0  0.38277  0.72916  0.92339  1.0000
  H   H1863     1.0  0.53052  0.82305  0.88445  1.0000
  N   N117      1.0  0.44581  0.81812  0.96830  1.0000
  C   C1157     1.0  0.47324  0.77163  0.87109  1.0000
  H   H1864     1.0  0.45958  0.86456  0.96771  1.0000
  C   C1158     1.0  0.43376  0.80619  0.90754  1.0000
  C   C1159     1.0  0.43272  0.81553  0.89369  1.0000
  C   C1160     1.0  0.51882  0.91606  0.78008  1.0000
  C   C1161     1.0  0.41846  0.80039  0.88908  1.0000
  C   C1162     1.0  0.41940  0.79104  0.90296  1.0000
  C   C1163     1.0  0.42678  0.79415  0.91230  1.0000
  H   H1865     1.0  0.42434  0.81985  0.87373  1.0000
  H   H1866     1.0  0.41423  0.78158  0.90658  1.0000
  H   H1867     1.0  0.42705  0.78724  0.92322  1.0000
  C   C1164     1.0  0.50577  0.82040  0.87062  1.0000
  C   C1165     1.0  0.49733  0.81032  0.87987  1.0000
  C   C1166     1.0  0.49974  0.79622  0.87692  1.0000
  C   C1167     1.0  0.51030  0.79223  0.86449  1.0000
  C   C1168     1.0  0.51849  0.80245  0.85498  1.0000
  C   C1169     1.0  0.51639  0.81646  0.85817  1.0000
  H   H1868     1.0  0.48911  0.81324  0.88952  1.0000
  H   H1869     1.0  0.49326  0.78855  0.88426  1.0000
  H   H1870     1.0  0.52672  0.79939  0.84537  1.0000
  H   H1871     1.0  0.52293  0.82425  0.85096  1.0000
  C   C1170     1.0  0.45086  0.92133  0.85922  1.0000
  C   C1171     1.0  0.45218  0.91282  0.87340  1.0000
  C   C1172     1.0  0.44743  0.89939  0.87850  1.0000
  C   C1173     1.0  0.44120  0.89451  0.86949  1.0000
  C   C1174     1.0  0.43946  0.90322  0.85548  1.0000
  C   C1175     1.0  0.44440  0.91657  0.85029  1.0000
  H   H1872     1.0  0.45708  0.91654  0.88037  1.0000
  H   H1873     1.0  0.44851  0.89290  0.88946  1.0000
  H   H1874     1.0  0.43452  0.89954  0.84851  1.0000
  C   C1176     1.0  0.51558  0.92863  0.76898  1.0000
  C   C1177     1.0  0.45871  0.81215  0.97571  1.0000
  H   H1875     1.0  0.50619  0.93759  0.77141  1.0000
  S   S475      1.0  0.54348  0.75720  0.97472  1.0000
  C   C1178     1.0  0.44812  0.94418  0.76961  1.0000
  C   C1179     1.0  0.44007  0.94706  0.75847  1.0000
  S   S476      1.0  0.52934  0.76043  0.89689  1.0000
  C   C1180     1.0  0.43597  0.80743  0.97309  1.0000
  C   C1181     1.0  0.46911  0.92914  0.75532  1.0000
  C   C1182     1.0  0.46256  0.93499  0.76816  1.0000
  H   H1876     1.0  0.42884  0.95402  0.75960  1.0000
  H   H1877     1.0  0.44502  0.68593  0.89615  1.0000
  H   H1878     1.0  0.41329  0.69902  0.87603  1.0000
  H   H1879     1.0  0.46878  0.93258  0.77681  1.0000
  H   H1880     1.0  0.37726  0.86170  0.90147  1.0000
  C   C1183     1.0  0.48411  0.83903  0.94889  1.0000
  H   H1881     1.0  0.39500  0.84431  0.91679  1.0000
  H   H1882     1.0  0.48703  0.83599  0.93821  1.0000
  C   C1184     1.0  0.43728  0.83241  0.97244  1.0000
  H   H1883     1.0  0.55074  0.80004  0.91405  1.0000
  S   S477      1.0  0.44067  0.95349  0.78439  1.0000
  C   C1185     1.0  0.38609  0.85972  0.89142  1.0000
  Fe  Fe239     1.0  0.45788  0.95105  0.79742  1.0000
  C   C1186     1.0  0.47222  0.85112  0.95174  1.0000
  C   C1187     1.0  0.53442  0.76508  0.95982  1.0000
  C   C1188     1.0  0.40652  0.75809  0.94418  1.0000
  H   H1884     1.0  0.48833  0.78378  0.84468  1.0000
  H   H1885     1.0  0.54021  0.96946  0.79395  1.0000
  H   H1886     1.0  0.53477  0.83044  0.89780  1.0000
  S   S478      1.0  0.48819  0.94702  0.81875  1.0000
  C   C1189     1.0  0.52223  0.95258  0.79343  1.0000
  H   H1887     1.0  0.48422  0.76441  0.86702  1.0000
  H   H1888     1.0  0.47531  0.77794  0.87827  1.0000
  C   C1190     1.0  0.53856  0.80448  0.91805  1.0000
  C   C1191     1.0  0.42491  0.81275  0.88456  1.0000
  H   H1889     1.0  0.46563  0.76429  0.87818  1.0000
  H   H1890     1.0  0.47295  0.79871  0.83978  1.0000
  H   H1891     1.0  0.52545  0.79792  0.89114  1.0000
  H   H1892     1.0  0.45882  0.78029  0.84009  1.0000
  C   C1192     1.0  0.46364  0.77301  0.84966  1.0000
  C   C1193     1.0  0.49213  0.83078  0.96002  1.0000
  H   H1893     1.0  0.47400  0.76525  0.84520  1.0000
  N   N118      1.0  0.49036  0.88889  0.83992  1.0000
  C   C1194     1.0  0.49116  0.90357  0.84150  1.0000
  C   C1195     1.0  0.48027  0.89098  0.82978  1.0000
  C   C1196     1.0  0.48450  0.88023  0.85462  1.0000
  C   C1197     1.0  0.50552  0.88082  0.83375  1.0000
  H   H1894     1.0  0.49854  0.90251  0.84918  1.0000
  H   H1895     1.0  0.47990  0.91003  0.84597  1.0000
  H   H1896     1.0  0.49556  0.91039  0.83061  1.0000
  H   H1897     1.0  0.47920  0.88015  0.82847  1.0000
  H   H1898     1.0  0.46878  0.89725  0.83398  1.0000
  H   H1899     1.0  0.48449  0.89733  0.81852  1.0000
  H   H1900     1.0  0.48378  0.86905  0.85391  1.0000
  H   H1901     1.0  0.47305  0.88601  0.85953  1.0000
  H   H1902     1.0  0.49177  0.87850  0.86262  1.0000
  H   H1903     1.0  0.51344  0.87910  0.84111  1.0000
  H   H1904     1.0  0.51023  0.88708  0.82262  1.0000
  H   H1905     1.0  0.50533  0.86968  0.83243  1.0000
  H   H1906     1.0  0.43868  0.72101  0.98468  1.0000
  C   C1198     1.0  0.53086  0.90431  0.77665  1.0000
  H   H1907     1.0  0.46768  0.66253  0.97085  1.0000
  H   H1908     1.0  0.45449  0.79835  0.87141  1.0000
  C   C1199     1.0  0.45259  0.79154  0.86459  1.0000
  H   H1909     1.0  0.45541  0.76619  0.85639  1.0000
  H   H1910     1.0  0.54258  0.94341  0.77013  1.0000
  S   S479      1.0  0.40766  0.75925  0.97214  1.0000
  N   N119      1.0  0.46675  0.78177  0.85863  1.0000
  H   H1911     1.0  0.40554  0.75690  0.92226  1.0000
  H   H1912     1.0  0.50441  0.79219  0.95069  1.0000
  C   C1200     1.0  0.52079  0.96831  0.76929  1.0000
  C   C1201     1.0  0.40330  0.84287  0.90628  1.0000
  H   H1913     1.0  0.38427  0.86983  0.88248  1.0000
  H   H1914     1.0  0.48014  0.79752  0.85578  1.0000
  H   H1915     1.0  0.44304  0.92325  0.83947  1.0000
  H   H1916     1.0  0.43795  0.82486  0.88997  1.0000
  H   H1917     1.0  0.53341  0.89452  0.78516  1.0000
  C   C1202     1.0  0.45056  0.74176  0.94008  1.0000
  H   H1918     1.0  0.52758  0.78641  0.90892  1.0000
  N   N120      1.0  0.53024  0.96183  0.78050  1.0000
  H   H1919     1.0  0.40195  0.83308  0.90299  1.0000
  C   C1203     1.0  0.52338  0.77831  0.95985  1.0000
  C   C1204     1.0  0.47647  0.84679  0.97664  1.0000
  C   C1205     1.0  0.53631  0.82005  0.89391  1.0000
  H   H1920     1.0  0.50760  0.81740  0.90299  1.0000
  S   S480      1.0  0.50831  0.91496  0.79837  1.0000
  H   H1921     1.0  0.46024  0.69057  0.93636  1.0000
  C   C1206     1.0  0.52671  0.76100  0.93934  1.0000
  H   H1922     1.0  0.44904  0.73718  0.95221  1.0000
  H   H1923     1.0  0.40250  0.77004  0.94241  1.0000
  H   H1924     1.0  0.54849  0.81612  0.88945  1.0000
  Fe  Fe240     1.0  0.41110  0.77227  0.87978  1.0000
  S   S481      1.0  0.41379  0.76359  0.85936  1.0000
  S   S482      1.0  0.50185  0.77761  0.92896  1.0000
  H   H1925     1.0  0.47078  0.74912  0.95067  1.0000
  H   H1926     1.0  0.46333  0.75459  0.91304  1.0000
  S   S483      1.0  0.40981  0.79659  0.87694  1.0000
  C   C1207     1.0  0.53634  0.75671  0.94927  1.0000
  H   H1927     1.0  0.40658  0.68226  0.88332  1.0000
  H   H1928     1.0  0.55107  0.95922  0.76439  1.0000
  C   C1208     1.0  0.45126  0.82050  0.95202  1.0000
  H   H1929     1.0  0.44450  0.76221  0.95698  1.0000
  H   H1930     1.0  0.44431  0.78496  0.87176  1.0000
  C   C1209     1.0  0.43887  0.68840  0.88705  1.0000
  C   C1210     1.0  0.51345  0.78241  0.95015  1.0000
  H   H1931     1.0  0.56349  0.70652  0.96716  1.0000
  H   H1932     1.0  0.51242  0.82466  0.91610  1.0000
  N   N121      1.0  0.40129  0.85640  0.89445  1.0000
  C   C1211     1.0  0.41258  0.85394  0.88078  1.0000
  H   H1933     1.0  0.53737  0.81420  0.92291  1.0000
  H   H1934     1.0  0.54901  0.89610  0.75964  1.0000
  S   S484      1.0  0.45457  0.96556  0.81355  1.0000
  H   H1935     1.0  0.42419  0.85092  0.88277  1.0000
  H   H1936     1.0  0.43972  0.74314  0.93695  1.0000
  H   H1937     1.0  0.45063  0.68628  0.97738  1.0000
  H   H1938     1.0  0.45889  0.77316  0.91644  1.0000
  Fe  Fe241     1.0  0.47842  0.96713  0.80300  1.0000
  H   H1939     1.0  0.41793  0.66073  0.98245  1.0000
  H   H1940     1.0  0.36665  0.74854  0.90753  1.0000
  H   H1941     1.0  0.50925  0.80617  0.92097  1.0000
  H   H1942     1.0  0.39260  0.69660  0.98948  1.0000
  H   H1943     1.0  0.48035  0.92225  0.75415  1.0000
  C   C1212     1.0  0.50069  0.67520  0.88152  1.0000
  H   H1944     1.0  0.50535  0.67201  0.87055  1.0000
  H   H1945     1.0  0.41140  0.70246  0.90061  1.0000
  H   H1946     1.0  0.53716  0.78212  0.98754  1.0000
  H   H1947     1.0  0.48831  0.67927  0.88271  1.0000
  H   H1948     1.0  0.42085  0.68852  0.91363  1.0000
  H   H1949     1.0  0.50995  0.69762  0.86008  1.0000
  N   N122      1.0  0.42478  0.68305  0.89229  1.0000
  C   C1213     1.0  0.43139  0.66776  0.93837  1.0000
  C   C1214     1.0  0.52971  0.66088  0.96637  1.0000
  S   S485      1.0  0.50919  0.66330  0.93409  1.0000
  S   S486      1.0  0.48888  0.98710  0.79574  1.0000
  C   C1215     1.0  0.45830  0.66129  0.92835  1.0000
  H   H1950     1.0  0.46610  0.82013  0.97270  1.0000
  H   H1951     1.0  0.39609  0.98973  0.74400  1.0000
  C   C1216     1.0  0.47524  0.72068  0.98124  1.0000
  H   H1952     1.0  0.43545  0.66089  0.88894  1.0000
  C   C1217     1.0  0.53672  0.67350  0.98154  1.0000
  H   H1953     1.0  0.41774  0.66245  0.90194  1.0000
  Fe  Fe242     1.0  0.50643  0.72647  0.98568  1.0000
  S   S487      1.0  0.49661  0.82319  0.98862  1.0000
  S   S488      1.0  0.54881  0.68317  0.98397  1.0000
  Fe  Fe243     1.0  0.53344  0.73739  0.98572  1.0000
  C   C1218     1.0  0.45755  0.99009  0.76407  1.0000
  H   H1954     1.0  0.46915  0.99080  0.76375  1.0000
  C   C1219     1.0  0.47978  0.70637  0.98948  1.0000
  H   H1955     1.0  0.52576  0.79986  0.99062  1.0000
  H   H1956     1.0  0.49136  0.70200  0.99025  1.0000
  Fe  Fe244     1.0  0.53510  0.70440  0.99090  1.0000
  C   C1220     1.0  0.51465  0.66298  0.99085  1.0000
  H   H1957     1.0  0.74098  0.99576  0.45762  1.0000
  C   C1221     1.0  0.71868  0.01759  0.48146  1.0000
  S   S489      1.0  0.73148  0.05316  0.47476  1.0000
  H   H1958     1.0  0.92120  0.17633  0.42468  1.0000
  H   H1959     1.0  0.90954  0.20233  0.42678  1.0000
  H   H1960     1.0  0.79649  0.02988  0.45473  1.0000
  H   H1961     1.0  0.88039  0.19708  0.47196  1.0000
  H   H1962     1.0  0.99019  0.18114  0.48624  1.0000
  S   S490      1.0  0.92114  0.15345  0.47607  1.0000
  H   H1963     1.0  0.99740  0.32349  0.43348  1.0000
  Fe  Fe245     1.0  0.79721  0.07435  0.47098  1.0000
  S   S491      1.0  0.79125  0.05800  0.46193  1.0000
  C   C1222     1.0  0.93102  0.18047  0.41714  1.0000
  Fe  Fe246     1.0  0.81900  0.08439  0.44285  1.0000
  S   S492      1.0  0.81539  0.06872  0.43090  1.0000
  S   S493      1.0  0.83237  0.10229  0.43257  1.0000
  Fe  Fe247     1.0  0.79102  0.07553  0.44109  1.0000
  S   S494      1.0  0.77330  0.08080  0.42772  1.0000
  Fe  Fe248     1.0  0.81589  0.05201  0.45242  1.0000
  S   S495      1.0  0.82808  0.02810  0.45334  1.0000
  S   S496      1.0  0.79434  0.09275  0.45115  1.0000
  S   S497      1.0  0.82205  0.06691  0.46336  1.0000
  Fe  Fe249     1.0  0.89267  0.16114  0.43623  1.0000
  S   S498      1.0  0.89437  0.17559  0.45037  1.0000
  S   S499      1.0  0.90128  0.16428  0.41165  1.0000
  Fe  Fe250     1.0  0.87900  0.13939  0.46204  1.0000
  C   C1223     1.0  0.68883  0.05818  0.34368  1.0000
  H   H1964     1.0  0.86342  0.09062  0.46979  1.0000
  Fe  Fe251     1.0  0.87152  0.17222  0.46259  1.0000
  H   H1965     1.0  0.85598  0.23103  0.46281  1.0000
  Fe  Fe252     1.0  0.90249  0.15411  0.46533  1.0000
  C   C1224     1.0  0.73578  0.00471  0.33988  1.0000
  S   S500      1.0  0.86888  0.15979  0.44693  1.0000
  S   S501      1.0  0.90282  0.13976  0.45013  1.0000
  H   H1966     1.0  0.74603  0.07823  0.45172  1.0000
  Fe  Fe253     1.0  0.89655  0.26984  0.40479  1.0000
  H   H1967     1.0  0.70880  0.02713  0.48116  1.0000
  C   C1225     1.0  0.87311  0.21356  0.48564  1.0000
  C   C1226     1.0  0.95459  0.15003  0.43960  1.0000
  H   H1968     1.0  0.95603  0.14836  0.42851  1.0000
  C   C1227     1.0  0.96677  0.15174  0.44413  1.0000
  H   H1969     1.0  0.94564  0.18046  0.43817  1.0000
  H   H1970     1.0  0.74820  0.10956  0.46624  1.0000
  H   H1971     1.0  0.81136  0.00868  0.38276  1.0000
  Fe  Fe254     1.0  0.70132  0.06250  0.41291  1.0000
  S   S502      1.0  0.72165  0.06102  0.39445  1.0000
  S   S503      1.0  0.69161  0.07975  0.42669  1.0000
  Fe  Fe255     1.0  0.69823  0.03161  0.41505  1.0000
  S   S504      1.0  0.71868  0.02677  0.39716  1.0000
  C   C1228     1.0  0.95673  0.23518  0.41998  1.0000
  Fe  Fe256     1.0  0.72942  0.03827  0.40783  1.0000
  S   S505      1.0  0.75199  0.02923  0.41458  1.0000
  Fe  Fe257     1.0  0.70918  0.04972  0.38541  1.0000
  S   S506      1.0  0.70825  0.05470  0.36134  1.0000
  S   S507      1.0  0.70980  0.04051  0.42684  1.0000
  S   S508      1.0  0.68803  0.05370  0.40253  1.0000
  H   H1972     1.0  0.73646  0.11898  0.43694  1.0000
  C   C1229     1.0  0.80855  0.01910  0.38702  1.0000
  C   C1230     1.0  0.98912  0.20507  0.46384  1.0000
  C   C1231     1.0  0.67110  0.04269  0.34795  1.0000
  C   C1232     1.0  0.69280  0.05093  0.35730  1.0000
  C   C1233     1.0  0.68542  0.03992  0.36661  1.0000
  N   N123      1.0  0.73669  0.10040  0.45553  1.0000
  H   H1973     1.0  0.71616  0.09369  0.46750  1.0000
  H   H1974     1.0  0.69446  0.06669  0.33647  1.0000
  H   H1975     1.0  0.68841  0.03428  0.37720  1.0000
  C   C1234     1.0  0.71172  0.00863  0.46348  1.0000
  C   C1235     1.0  0.93531  0.18924  0.43685  1.0000
  H   H1976     1.0  0.93634  0.19895  0.44052  1.0000
  C   C1236     1.0  0.98384  0.25757  0.48161  1.0000
  H   H1977     1.0  0.84440  0.26784  0.43873  1.0000
  H   H1978     1.0  0.67005  0.99509  0.39236  1.0000
  C   C1237     1.0  0.93875  0.15234  0.46384  1.0000
  C   C1238     1.0  0.95103  0.15372  0.46847  1.0000
  C   C1239     1.0  0.94057  0.15042  0.44940  1.0000
  H   H1979     1.0  0.88067  0.24861  0.45025  1.0000
  H   H1980     1.0  0.93120  0.14923  0.44578  1.0000
  C   C1240     1.0  0.89957  0.18294  0.40236  1.0000
  C   C1241     1.0  0.89266  0.19454  0.40996  1.0000
  C   C1242     1.0  0.89236  0.20936  0.40240  1.0000
  C   C1243     1.0  0.89882  0.21253  0.38724  1.0000
  C   C1244     1.0  0.90531  0.20094  0.37962  1.0000
  C   C1245     1.0  0.90581  0.18618  0.38719  1.0000
  H   H1981     1.0  0.88749  0.19213  0.42160  1.0000
  H   H1982     1.0  0.73809  0.02857  0.45777  1.0000
  H   H1983     1.0  0.91012  0.20339  0.36786  1.0000
  H   H1984     1.0  0.91109  0.17727  0.38125  1.0000
  C   C1246     1.0  0.94677  0.19798  0.41133  1.0000
  H   H1985     1.0  0.83843  0.99779  0.45063  1.0000
  H   H1986     1.0  0.84504  0.26908  0.47027  1.0000
  C   C1247     1.0  0.87118  0.25203  0.45930  1.0000
  H   H1987     1.0  0.71439  0.00003  0.32923  1.0000
  H   H1988     1.0  0.67509  0.05981  0.32846  1.0000
  H   H1989     1.0  0.98476  0.31416  0.44799  1.0000
  H   H1990     1.0  0.97896  0.20442  0.46053  1.0000
  H   H1991     1.0  0.72747  0.02141  0.48420  1.0000
  C   C1248     1.0  0.98587  0.24013  0.40995  1.0000
  C   C1249     1.0  0.84325  0.10638  0.44267  1.0000
  C   C1250     1.0  0.84558  0.12083  0.43960  1.0000
  C   C1251     1.0  0.85412  0.12447  0.44753  1.0000
  C   C1252     1.0  0.86065  0.11357  0.45839  1.0000
  C   C1253     1.0  0.85838  0.09911  0.46141  1.0000
  C   C1254     1.0  0.84965  0.09553  0.45364  1.0000
  H   H1992     1.0  0.84057  0.12930  0.43119  1.0000
  H   H1993     1.0  0.85557  0.13570  0.44529  1.0000
  C   C1255     1.0  0.94347  0.26168  0.45463  1.0000
  H   H1994     1.0  0.84804  0.08432  0.45598  1.0000
  C   C1256     1.0  0.76813  0.06603  0.42406  1.0000
  C   C1257     1.0  0.77264  0.05123  0.43127  1.0000
  C   C1258     1.0  0.76776  0.03988  0.42833  1.0000
  C   C1259     1.0  0.75844  0.04331  0.41810  1.0000
  C   C1260     1.0  0.75429  0.05803  0.41073  1.0000
  C   C1261     1.0  0.75898  0.06934  0.41378  1.0000
  H   H1995     1.0  0.77970  0.04859  0.43923  1.0000
  H   H1996     1.0  0.77105  0.02852  0.43409  1.0000
  H   H1997     1.0  0.74752  0.06079  0.40255  1.0000
  H   H1998     1.0  0.75550  0.08071  0.40809  1.0000
  C   C1262     1.0  0.72074  0.06194  0.46118  1.0000
  C   C1263     1.0  0.72721  0.06203  0.44622  1.0000
  C   C1264     1.0  0.71835  0.06821  0.43551  1.0000
  C   C1265     1.0  0.70305  0.07446  0.43971  1.0000
  C   C1266     1.0  0.69673  0.07497  0.45459  1.0000
  C   C1267     1.0  0.70560  0.06865  0.46529  1.0000
  H   H1999     1.0  0.73895  0.05698  0.44296  1.0000
  H   H2000     1.0  0.72330  0.06787  0.42399  1.0000
  H   H2001     1.0  0.98626  0.28246  0.37078  1.0000
  H   H2002     1.0  0.70065  0.06878  0.47674  1.0000
  N   N124      1.0  0.71940  0.01027  0.34432  1.0000
  H   H2003     1.0  0.81724  0.10885  0.46414  1.0000
  H   H2004     1.0  0.80301  0.02779  0.42064  1.0000
  C   C1268     1.0  0.92003  0.20572  0.41997  1.0000
  S   S509      1.0  0.90020  0.24507  0.41242  1.0000
  C   C1269     1.0  0.98077  0.23427  0.42497  1.0000
  C   C1270     1.0  0.82249  0.00695  0.40638  1.0000
  H   H2005     1.0  0.95696  0.18881  0.41207  1.0000
  H   H2006     1.0  0.76914  0.04063  0.47943  1.0000
  H   H2007     1.0  0.73302  0.02189  0.44439  1.0000
  C   C1271     1.0  0.79537  0.00808  0.45356  1.0000
  C   C1272     1.0  0.80280  0.01882  0.45375  1.0000
  C   C1273     1.0  0.81835  0.01514  0.45272  1.0000
  H   H2008     1.0  0.99204  0.30524  0.37378  1.0000
  C   C1274     1.0  0.72887  0.02505  0.45540  1.0000
  H   H2009     1.0  0.71859  0.02616  0.32369  1.0000
  S   S510      1.0  0.93808  0.23346  0.42637  1.0000
  H   H2010     1.0  0.91624  0.11653  0.40955  1.0000
  N   N125      1.0  0.98605  0.20503  0.47984  1.0000
  H   H2011     1.0  0.76121  0.99822  0.42759  1.0000
  N   N126      1.0  0.85653  0.25413  0.45548  1.0000
  H   H2012     1.0  0.96626  0.31032  0.47021  1.0000
  H   H2013     1.0  0.92894  0.18341  0.40567  1.0000
  H   H2014     1.0  0.92568  0.18495  0.44467  1.0000
  H   H2015     1.0  0.67595  0.05538  0.44886  1.0000
  H   H2016     1.0  0.90500  0.31559  0.47374  1.0000
  C   C1275     1.0  0.96620  0.23174  0.42999  1.0000
  N   N127      1.0  0.89212  0.12327  0.41370  1.0000
  C   C1276     1.0  0.89095  0.11800  0.40096  1.0000
  C   C1277     1.0  0.88041  0.13693  0.41548  1.0000
  C   C1278     1.0  0.89001  0.11166  0.42735  1.0000
  H   H2017     1.0  0.89962  0.10769  0.39927  1.0000
  H   H2018     1.0  0.89243  0.12654  0.39050  1.0000
  H   H2019     1.0  0.87976  0.11545  0.40268  1.0000
  H   H2020     1.0  0.88080  0.14103  0.42518  1.0000
  H   H2021     1.0  0.88194  0.14612  0.40559  1.0000
  H   H2022     1.0  0.86897  0.13503  0.41719  1.0000
  H   H2023     1.0  0.89027  0.11547  0.43730  1.0000
  H   H2024     1.0  0.89892  0.10134  0.42661  1.0000
  H   H2025     1.0  0.87903  0.10858  0.42945  1.0000
  N   N128      1.0  0.80780  0.01582  0.40319  1.0000
  H   H2026     1.0  0.95601  0.31970  0.37788  1.0000
  H   H2027     1.0  0.88697  0.21834  0.40823  1.0000
  H   H2028     1.0  0.70270  0.02972  0.33837  1.0000
  C   C1279     1.0  0.82641  0.00074  0.45135  1.0000
  C   C1280     1.0  0.67491  0.00381  0.40873  1.0000
  H   H2029     1.0  0.74211  0.01194  0.34187  1.0000
  C   C1281     1.0  0.99591  0.27605  0.37607  1.0000
  C   C1282     1.0  0.96211  0.24032  0.40491  1.0000
  H   H2030     1.0  0.76324  0.00297  0.39992  1.0000
  H   H2031     1.0  0.73925  0.00416  0.32794  1.0000
  H   H2032     1.0  0.92093  0.21534  0.42378  1.0000
  H   H2033     1.0  0.82217  0.00378  0.41854  1.0000
  S   S511      1.0  0.87153  0.11760  0.46853  1.0000
  S   S512      1.0  0.87962  0.15174  0.47880  1.0000
  H   H2034     1.0  0.85645  0.27660  0.44346  1.0000
  C   C1283     1.0  0.79612  0.00730  0.41095  1.0000
  N   N129      1.0  0.93328  0.19334  0.42134  1.0000
  C   C1284     1.0  0.74589  0.08526  0.45936  1.0000
  S   S513      1.0  0.98205  0.28191  0.45855  1.0000
  H   H2035     1.0  0.78489  0.01367  0.40875  1.0000
  H   H2036     1.0  0.94459  0.31231  0.36106  1.0000
  S   S514      1.0  0.98379  0.15266  0.43128  1.0000
  H   H2037     1.0  0.92115  0.18007  0.49128  1.0000
  H   H2038     1.0  0.99872  0.17833  0.41980  1.0000
  H   H2039     1.0  0.96214  0.22747  0.44165  1.0000
  H   H2040     1.0  0.73894  0.00258  0.41697  1.0000
  S   S515      1.0  0.68251  0.01675  0.42711  1.0000
  C   C1285     1.0  0.97667  0.24275  0.39987  1.0000
  H   H2041     1.0  0.94097  0.17107  0.41754  1.0000
  H   H2042     1.0  0.89884  0.30146  0.38998  1.0000
  H   H2043     1.0  0.91871  0.20973  0.40824  1.0000
  N   N130      1.0  0.94813  0.27431  0.44319  1.0000
  H   H2044     1.0  0.83227  0.09333  0.48241  1.0000
  C   C1286     1.0  0.73660  0.10918  0.46615  1.0000
  C   C1287     1.0  0.71537  0.01018  0.36039  1.0000
  H   H2045     1.0  0.70972  0.99913  0.41486  1.0000
  C   C1288     1.0  0.96503  0.15341  0.45864  1.0000
  C   C1289     1.0  0.96432  0.27003  0.43676  1.0000
  H   H2046     1.0  0.97440  0.15469  0.46223  1.0000
  C   C1290     1.0  0.97394  0.21800  0.48321  1.0000
  H   H2047     1.0  0.74152  0.07958  0.47084  1.0000
  H   H2048     1.0  0.97724  0.22865  0.47728  1.0000
  H   H2049     1.0  0.89748  0.31798  0.37566  1.0000
  H   H2050     1.0  0.74338  0.10106  0.43208  1.0000
  H   H2051     1.0  0.72080  0.09341  0.44809  1.0000
  C   C1291     1.0  0.74310  0.10755  0.44030  1.0000
  H   H2052     1.0  0.84434  0.24123  0.44985  1.0000
  H   H2053     1.0  0.95116  0.28450  0.45927  1.0000
  C   C1292     1.0  0.72116  0.09956  0.45632  1.0000
  C   C1293     1.0  0.80406  0.02988  0.40840  1.0000
  H   H2054     1.0  0.78335  0.01094  0.45442  1.0000
  H   H2055     1.0  0.73013  0.12081  0.46335  1.0000
  H   H2056     1.0  0.71943  0.03496  0.45442  1.0000
  S   S516      1.0  0.85269  0.19045  0.47008  1.0000
  C   C1294     1.0  0.98136  0.19119  0.48849  1.0000
  N   N131      1.0  0.72403  0.01275  0.46714  1.0000
  C   C1295     1.0  0.90707  0.12653  0.41103  1.0000
  H   H2057     1.0  0.90826  0.13055  0.42047  1.0000
  H   H2058     1.0  0.91547  0.30619  0.37762  1.0000
  H   H2059     1.0  0.75777  0.08543  0.45853  1.0000
  H   H2060     1.0  0.98801  0.23175  0.43270  1.0000
  H   H2061     1.0  0.94553  0.20130  0.39955  1.0000
  H   H2062     1.0  0.90895  0.13544  0.40095  1.0000
  H   H2063     1.0  0.79145  0.01145  0.48962  1.0000
  C   C1296     1.0  0.68622  0.00504  0.41486  1.0000
  H   H2064     1.0  0.71375  0.11079  0.45394  1.0000
  H   H2065     1.0  0.94884  0.20765  0.41417  1.0000
  C   C1297     1.0  0.67789  0.05423  0.33912  1.0000
  H   H2066     1.0  0.79763  0.02576  0.38423  1.0000
  H   H2067     1.0  0.90931  0.26258  0.45381  1.0000
  C   C1298     1.0  0.99683  0.31405  0.44320  1.0000
  H   H2068     1.0  0.79519  0.00468  0.42318  1.0000
  H   H2069     1.0  0.68396  0.03918  0.47664  1.0000
  H   H2070     1.0  0.97100  0.26522  0.44554  1.0000
  H   H2071     1.0  0.99272  0.21533  0.45699  1.0000
  H   H2072     1.0  0.96873  0.27975  0.42957  1.0000
  S   S517      1.0  0.89869  0.23085  0.37744  1.0000
  H   H2073     1.0  0.79326  0.03706  0.40577  1.0000
  C   C1299     1.0  0.96241  0.27815  0.48491  1.0000
  H   H2074     1.0  0.71528  0.00502  0.45268  1.0000
  C   C1300     1.0  0.71506  0.02557  0.33586  1.0000
  S   S518      1.0  0.93057  0.24358  0.38513  1.0000
  H   H2075     1.0  0.87249  0.26241  0.46147  1.0000
  C   C1301     1.0  0.84434  0.25857  0.46789  1.0000
  H   H2076     1.0  0.88406  0.31687  0.40810  1.0000
  H   H2077     1.0  0.94985  0.25833  0.46368  1.0000
  H   H2078     1.0  0.75490  0.10821  0.43923  1.0000
  H   H2079     1.0  0.73135  0.10432  0.47768  1.0000
  H   H2080     1.0  0.83292  0.20870  0.48924  1.0000
  C   C1302     1.0  0.85525  0.24008  0.45279  1.0000
  H   H2081     1.0  0.80071  0.12245  0.46955  1.0000
  H   H2082     1.0  0.94922  0.29681  0.44181  1.0000
  H   H2083     1.0  0.93308  0.30806  0.48680  1.0000
  H   H2084     1.0  0.96662  0.26172  0.42984  1.0000
  H   H2085     1.0  0.73959  0.99335  0.34633  1.0000
  H   H2086     1.0  0.90318  0.18490  0.48636  1.0000
  H   H2087     1.0  0.90859  0.30043  0.41199  1.0000
  H   H2088     1.0  0.86435  0.26281  0.43233  1.0000
  H   H2089     1.0  0.70180  0.01811  0.46267  1.0000
  H   H2090     1.0  0.83309  0.26019  0.46547  1.0000
  H   H2091     1.0  0.71989  0.99912  0.36696  1.0000
  H   H2092     1.0  0.86437  0.23630  0.44360  1.0000
  H   H2093     1.0  0.79875  0.99655  0.40735  1.0000
  S   S519      1.0  0.90525  0.28397  0.47138  1.0000
  H   H2094     1.0  0.84496  0.24997  0.47831  1.0000
  C   C1303     1.0  0.85535  0.26586  0.44193  1.0000
  C   C1304     1.0  0.90425  0.31093  0.38392  1.0000
  H   H2095     1.0  0.99147  0.27358  0.38828  1.0000
  C   C1305     1.0  0.99984  0.20577  0.48374  1.0000
  H   H2096     1.0  0.87243  0.24332  0.46951  1.0000
  Fe  Fe258     1.0  0.90591  0.24515  0.38804  1.0000
  Fe  Fe259     1.0  0.92443  0.24564  0.40898  1.0000
  H   H2097     1.0  0.68489  0.07969  0.45795  1.0000
  H   H2098     1.0  0.95501  0.24255  0.39711  1.0000
  H   H2099     1.0  0.98063  0.24702  0.38819  1.0000
  H   H2100     1.0  0.93310  0.29110  0.45457  1.0000
  H   H2101     1.0  0.92730  0.28193  0.43581  1.0000
  H   H2102     1.0  0.72012  0.03342  0.33864  1.0000
  S   S520      1.0  0.96753  0.30243  0.40405  1.0000
  H   H2103     1.0  0.89920  0.26375  0.43235  1.0000
  S   S521      1.0  0.90002  0.27002  0.38070  1.0000
  S   S522      1.0  0.87952  0.28685  0.41627  1.0000
  H   H2104     1.0  0.71973  0.01860  0.36306  1.0000
  H   H2105     1.0  0.94110  0.26871  0.42616  1.0000
  Fe  Fe260     1.0  0.92418  0.26850  0.37987  1.0000
  S   S523      1.0  0.93679  0.28457  0.36311  1.0000
  S   S524      1.0  0.92022  0.27037  0.40349  1.0000
  H   H2106     1.0  0.81284  0.03642  0.40310  1.0000
  C   C1306     1.0  0.96025  0.29768  0.39151  1.0000
  C   C1307     1.0  0.95937  0.28293  0.39365  1.0000
  C   C1308     1.0  0.95281  0.27889  0.38434  1.0000
  C   C1309     1.0  0.94728  0.28947  0.37278  1.0000
  C   C1310     1.0  0.94884  0.30412  0.37010  1.0000
  C   C1311     1.0  0.95519  0.30830  0.37962  1.0000
  H   H2107     1.0  0.96351  0.27464  0.40266  1.0000
  H   H2108     1.0  0.95178  0.26758  0.38619  1.0000
  H   H2109     1.0  0.69888  0.00491  0.34407  1.0000
  C   C1312     1.0  0.70109  0.99813  0.41002  1.0000
  H   H2110     1.0  0.94517  0.25183  0.44979  1.0000
  H   H2111     1.0  0.94300  0.28762  0.42250  1.0000
  H   H2112     1.0  0.67754  0.04549  0.43481  1.0000
  H   H2113     1.0  0.93142  0.26458  0.45995  1.0000
  C   C1313     1.0  0.89761  0.28481  0.45639  1.0000
  C   C1314     1.0  0.90152  0.27252  0.44979  1.0000
  C   C1315     1.0  0.89587  0.27323  0.43751  1.0000
  C   C1316     1.0  0.88585  0.28602  0.43208  1.0000
  C   C1317     1.0  0.88159  0.29823  0.43887  1.0000
  C   C1318     1.0  0.88774  0.29773  0.45087  1.0000
  H   H2114     1.0  0.87375  0.30812  0.43478  1.0000
  H   H2115     1.0  0.88462  0.30722  0.45605  1.0000
  C   C1319     1.0  0.93950  0.27830  0.43137  1.0000
  C   C1320     1.0  0.97585  0.27186  0.47625  1.0000
  H   H2116     1.0  0.79570  0.02945  0.48316  1.0000
  H   H2117     1.0  0.99432  0.25274  0.47498  1.0000
  C   C1321     1.0  0.94525  0.28726  0.45000  1.0000
  H   H2118     1.0  0.99907  0.20025  0.39026  1.0000
  H   H2119     1.0  0.81728  0.02547  0.38079  1.0000
  C   C1322     1.0  0.95857  0.32090  0.47084  1.0000
  N   N132      1.0  0.90547  0.31944  0.39419  1.0000
  H   H2120     1.0  0.95630  0.28919  0.48090  1.0000
  H   H2121     1.0  0.83150  0.01320  0.40113  1.0000
  H   H2122     1.0  0.82591  0.99654  0.40203  1.0000
  C   C1323     1.0  0.91427  0.30947  0.40511  1.0000
  H   H2123     1.0  0.70300  0.01253  0.36452  1.0000
  H   H2124     1.0  0.76386  0.07639  0.48496  1.0000
  C   C1324     1.0  0.73690  0.99985  0.46815  1.0000
  H   H2125     1.0  0.99827  0.19542  0.46102  1.0000
  C   C1325     1.0  0.87094  0.20332  0.47864  1.0000
  H   H2126     1.0  0.92561  0.30411  0.39949  1.0000
  H   H2127     1.0  0.91580  0.31559  0.41278  1.0000
  H   H2128     1.0  0.76590  0.02222  0.48538  1.0000
  H   H2129     1.0  0.99973  0.21626  0.39613  1.0000
  C   C1326     1.0  0.71128  0.00073  0.34113  1.0000
  H   H2130     1.0  0.99798  0.20065  0.42900  1.0000
  C   C1327     1.0  0.80766  0.11133  0.47345  1.0000
  H   H2131     1.0  0.70777  0.99932  0.47204  1.0000
  H   H2132     1.0  0.99093  0.30317  0.47272  1.0000
  H   H2133     1.0  0.80076  0.10303  0.47554  1.0000
  H   H2134     1.0  0.94968  0.15517  0.47963  1.0000
  H   H2135     1.0  0.74646  0.00267  0.47065  1.0000
  H   H2136     1.0  0.99830  0.29544  0.39050  1.0000
  C   C1328     1.0  0.67475  0.03558  0.36180  1.0000
  C   C1329     1.0  0.82161  0.12222  0.48374  1.0000
  H   H2137     1.0  0.96349  0.21796  0.48002  1.0000
  C   C1330     1.0  0.67463  0.04121  0.48580  1.0000
  C   C1331     1.0  0.67870  0.99583  0.39740  1.0000
  H   H2138     1.0  0.97099  0.19031  0.48578  1.0000
  H   H2139     1.0  0.83145  0.12052  0.47444  1.0000
  H   H2140     1.0  0.98736  0.20450  0.40747  1.0000
  H   H2141     1.0  0.71545  0.00843  0.49072  1.0000
  C   C1332     1.0  0.99866  0.20451  0.40014  1.0000
  H   H2142     1.0  0.88424  0.21524  0.48435  1.0000
  H   H2143     1.0  0.00008  0.26521  0.37251  1.0000
  Fe  Fe261     1.0  0.90503  0.26153  0.48643  1.0000
  H   H2144     1.0  0.66949  0.02668  0.36873  1.0000
  Fe  Fe262     1.0  0.00120  0.26832  0.44532  1.0000
  H   H2145     1.0  0.67276  0.03681  0.45385  1.0000
  C   C1333     1.0  0.76569  0.03218  0.48937  1.0000
  C   C1334     1.0  0.90617  0.32280  0.48057  1.0000
  C   C1335     1.0  0.85638  0.20167  0.47986  1.0000
  S   S525      1.0  0.90289  0.24123  0.48029  1.0000
  S   S526      1.0  0.93573  0.20826  0.49143  1.0000
  H   H2146     1.0  0.68142  0.05931  0.48940  1.0000
  H   H2147     1.0  0.95144  0.32238  0.45085  1.0000
  H   H2148     1.0  0.81476  0.13360  0.48050  1.0000
  C   C1336     1.0  0.67101  0.04761  0.44582  1.0000
  H   H2149     1.0  0.99656  0.32533  0.40137  1.0000
  H   H2150     1.0  0.92283  0.29503  0.48623  1.0000
  C   C1337     1.0  0.84417  0.20992  0.48831  1.0000
  N   N133      1.0  0.81283  0.11078  0.48691  1.0000
  C   C1338     1.0  0.80353  0.99374  0.45198  1.0000
  C   C1339     1.0  0.82235  0.09593  0.49138  1.0000
  C   C1340     1.0  0.89027  0.32574  0.40206  1.0000
  Fe  Fe263     1.0  0.68616  0.06479  0.51540  1.0000
  H   H2151     1.0  0.95375  0.24883  0.55205  1.0000
  H   H2152     1.0  0.82601  0.12195  0.49352  1.0000
  S   S527      1.0  0.90043  0.25150  0.54145  1.0000
  C   C1341     1.0  0.86074  0.22185  0.49402  1.0000
  Fe  Fe264     1.0  0.97237  0.22647  0.53135  1.0000
  Fe  Fe265     1.0  0.91836  0.22884  0.49587  1.0000
  C   C1342     1.0  0.97823  0.24960  0.49571  1.0000
  H   H2153     1.0  0.94272  0.20681  0.54056  1.0000
  S   S528      1.0  0.97452  0.29328  0.56783  1.0000
  C   C1343     1.0  0.84635  0.21985  0.49545  1.0000
  C   C1344     1.0  0.74130  0.00322  0.50889  1.0000
  S   S529      1.0  0.96001  0.17773  0.55001  1.0000
  S   S530      1.0  0.72127  0.09157  0.52425  1.0000
  S   S531      1.0  0.99540  0.19143  0.55331  1.0000
  C   C1345     1.0  0.92347  0.30278  0.49277  1.0000
  Fe  Fe266     1.0  0.71032  0.04198  0.52943  1.0000
  H   H2154     1.0  0.79876  0.01878  0.50098  1.0000
  H   H2155     1.0  0.76398  0.04778  0.50948  1.0000
  H   H2156     1.0  0.95918  0.16557  0.52571  1.0000
  C   C1346     1.0  0.98702  0.24929  0.58401  1.0000
  H   H2157     1.0  0.77402  0.09014  0.51971  1.0000
  H   H2158     1.0  0.93386  0.21900  0.51735  1.0000
  H   H2159     1.0  0.95002  0.26773  0.55395  1.0000
  Fe  Fe267     1.0  0.97282  0.19473  0.54814  1.0000
  C   C1347     1.0  0.95331  0.17712  0.52400  1.0000
  S   S532      1.0  0.96910  0.31954  0.49516  1.0000
  C   C1348     1.0  0.74489  0.08358  0.50186  1.0000
  C   C1349     1.0  0.95131  0.18532  0.53479  1.0000
  H   H2160     1.0  0.94893  0.31244  0.60698  1.0000
  H   H2161     1.0  0.95025  0.17784  0.50222  1.0000
  H   H2162     1.0  0.91444  0.15700  0.50773  1.0000
  C   C1350     1.0  0.94150  0.19927  0.50818  1.0000
  C   C1351     1.0  0.95672  0.27013  0.49877  1.0000
  S   S533      1.0  0.99524  0.22592  0.53394  1.0000
  H   H2163     1.0  0.93052  0.27691  0.57342  1.0000
  N   N134      1.0  0.90243  0.17921  0.50986  1.0000
  Fe  Fe268     1.0  0.90261  0.24740  0.51889  1.0000
  C   C1352     1.0  0.88673  0.18742  0.51386  1.0000
  H   H2164     1.0  0.74709  0.00764  0.49791  1.0000
  S   S534      1.0  0.71375  0.01922  0.54387  1.0000
  Fe  Fe269     1.0  0.71759  0.05709  0.49692  1.0000
  C   C1353     1.0  0.91111  0.18013  0.52020  1.0000
  H   H2165     1.0  0.93491  0.23327  0.56708  1.0000
  H   H2166     1.0  0.91169  0.19181  0.51927  1.0000
  H   H2167     1.0  0.76971  0.00744  0.51056  1.0000
  S   S535      1.0  0.70102  0.04346  0.50989  1.0000
  C   C1354     1.0  0.79968  0.11360  0.49908  1.0000
  S   S536      1.0  0.89998  0.22583  0.51603  1.0000
  S   S537      1.0  0.69438  0.06239  0.53605  1.0000
  S   S538      1.0  0.96368  0.21661  0.55496  1.0000
  C   C1355     1.0  0.94847  0.18413  0.51065  1.0000
  H   H2168     1.0  0.88140  0.18296  0.52548  1.0000
  C   C1356     1.0  0.89688  0.30657  0.50324  1.0000
  C   C1357     1.0  0.94412  0.20037  0.53236  1.0000
  H   H2169     1.0  0.89878  0.29996  0.51433  1.0000
  H   H2170     1.0  0.93793  0.26189  0.54629  1.0000
  H   H2171     1.0  0.83676  0.22624  0.50189  1.0000
  H   H2172     1.0  0.95159  0.31223  0.58770  1.0000
  H   H2173     1.0  0.99149  0.15782  0.52015  1.0000
  H   H2174     1.0  0.92003  0.24042  0.58123  1.0000
  H   H2175     1.0  0.74698  0.09590  0.53132  1.0000
  C   C1358     1.0  0.68519  0.01261  0.52295  1.0000
  H   H2176     1.0  0.91771  0.26573  0.58523  1.0000
  C   C1359     1.0  0.72494  0.00708  0.53244  1.0000
  S   S539      1.0  0.97950  0.20498  0.52416  1.0000
  S   S540      1.0  0.72859  0.05355  0.51590  1.0000
  H   H2177     1.0  0.98453  0.26967  0.59081  1.0000
  C   C1360     1.0  0.76591  0.08855  0.51454  1.0000
  H   H2178     1.0  0.79285  0.10510  0.50172  1.0000
  C   C1361     1.0  0.75063  0.09180  0.52113  1.0000
  C   C1362     1.0  0.79101  0.02174  0.49318  1.0000
  Fe  Fe270     1.0  0.71182  0.07431  0.52052  1.0000
  C   C1363     1.0  0.93913  0.20730  0.51915  1.0000
  H   H2179     1.0  0.87977  0.18665  0.50651  1.0000
  C   C1364     1.0  0.98137  0.25194  0.56010  1.0000
  C   C1365     1.0  0.74013  0.08903  0.51499  1.0000
  H   H2180     1.0  0.99601  0.11433  0.51319  1.0000
  N   N135      1.0  0.90930  0.31404  0.49512  1.0000
  H   H2181     1.0  0.97088  0.21799  0.49530  1.0000
  C   C1366     1.0  0.99967  0.10756  0.50448  1.0000
  C   C1367     1.0  0.73232  0.01279  0.51816  1.0000
  H   H2182     1.0  0.99795  0.20615  0.49561  1.0000
  H   H2183     1.0  0.90888  0.19776  0.49327  1.0000
  S   S541      1.0  0.88553  0.26116  0.50563  1.0000
  C   C1368     1.0  0.90206  0.26932  0.54131  1.0000
  C   C1369     1.0  0.91075  0.32400  0.50386  1.0000
  H   H2184     1.0  0.98038  0.24708  0.55157  1.0000
  H   H2185     1.0  0.90606  0.17580  0.53195  1.0000
  H   H2186     1.0  0.73122  0.02457  0.51425  1.0000
  C   C1370     1.0  0.94470  0.25845  0.55495  1.0000
  C   C1371     1.0  0.96457  0.25592  0.50417  1.0000
  H   H2187     1.0  0.68906  0.01589  0.53139  1.0000
  C   C1372     1.0  0.98589  0.24280  0.57300  1.0000
  C   C1373     1.0  0.92718  0.24358  0.57012  1.0000
  N   N136      1.0  0.77555  0.02851  0.50010  1.0000
  H   H2188     1.0  0.75382  0.03680  0.49438  1.0000
  H   H2189     1.0  0.88126  0.27356  0.55713  1.0000
  S   S542      1.0  0.86234  0.23575  0.50191  1.0000
  H   H2190     1.0  0.95176  0.25641  0.58092  1.0000
  H   H2191     1.0  0.91970  0.24797  0.56197  1.0000
  C   C1374     1.0  0.90918  0.18580  0.49452  1.0000
  N   N137      1.0  0.67920  0.99905  0.52929  1.0000
  Fe  Fe271     1.0  0.88481  0.23979  0.50080  1.0000
  H   H2192     1.0  0.97900  0.19065  0.50066  1.0000
  Fe  Fe272     1.0  0.96158  0.30780  0.55057  1.0000
  H   H2193     1.0  0.98379  0.31516  0.57859  1.0000
  C   C1375     1.0  0.97899  0.27392  0.56940  1.0000
  S   S543      1.0  0.92243  0.24932  0.49999  1.0000
  S   S544      1.0  0.93959  0.32186  0.55967  1.0000
  H   H2194     1.0  0.99051  0.24230  0.59399  1.0000
  S   S545      1.0  0.95678  0.24636  0.52143  1.0000
  C   C1376     1.0  0.97485  0.32556  0.57786  1.0000
  H   H2195     1.0  0.98429  0.23858  0.49999  1.0000
  H   H2196     1.0  0.99165  0.10029  0.50676  1.0000
  C   C1377     1.0  0.90274  0.16347  0.51083  1.0000
  H   H2197     1.0  0.99845  0.11553  0.49379  1.0000
  C   C1378     1.0  0.98362  0.26478  0.58221  1.0000
  H   H2198     1.0  0.92345  0.26804  0.52603  1.0000
  C   C1379     1.0  0.95730  0.31262  0.59631  1.0000
  H   H2199     1.0  0.80314  0.11324  0.50943  1.0000
  C   C1380     1.0  0.97797  0.26751  0.55828  1.0000
  H   H2200     1.0  0.81608  0.08702  0.49391  1.0000
  H   H2201     1.0  0.77712  0.01483  0.52175  1.0000
  H   H2202     1.0  0.77994  0.05039  0.49479  1.0000
  H   H2203     1.0  0.69492  0.01097  0.51356  1.0000
  H   H2204     1.0  0.94628  0.27496  0.50545  1.0000
  Fe  Fe273     1.0  0.93110  0.31714  0.54210  1.0000
  S   S546      1.0  0.90793  0.31294  0.54720  1.0000
  S   S547      1.0  0.95239  0.30128  0.53456  1.0000
  H   H2205     1.0  0.91692  0.27291  0.56608  1.0000
  C   C1381     1.0  0.90588  0.29631  0.54441  1.0000
  C   C1382     1.0  0.89283  0.29130  0.55198  1.0000
  C   C1383     1.0  0.89110  0.27768  0.55072  1.0000
  C   C1384     1.0  0.91483  0.27464  0.53313  1.0000
  C   C1385     1.0  0.91696  0.28794  0.53502  1.0000
  H   H2206     1.0  0.88424  0.29771  0.55925  1.0000
  Fe  Fe274     1.0  0.95870  0.32176  0.51883  1.0000
  H   H2207     1.0  0.92716  0.29166  0.52929  1.0000
  H   H2208     1.0  0.99917  0.17647  0.52813  1.0000
  H   H2209     1.0  0.92284  0.17356  0.51786  1.0000
  C   C1386     1.0  0.94537  0.24831  0.58079  1.0000
  C   C1387     1.0  0.92470  0.26813  0.57389  1.0000
  H   H2210     1.0  0.98046  0.31603  0.60531  1.0000
  H   H2211     1.0  0.95379  0.23816  0.57804  1.0000
  H   H2212     1.0  0.89565  0.29876  0.49707  1.0000
  H   H2213     1.0  0.97467  0.27452  0.54824  1.0000
  H   H2214     1.0  0.92613  0.29594  0.50351  1.0000
  C   C1388     1.0  0.77551  0.04221  0.50447  1.0000
  N   N138      1.0  0.93549  0.25460  0.56995  1.0000
  C   C1389     1.0  0.67420  0.99509  0.51777  1.0000
  C   C1390     1.0  0.76994  0.01789  0.51342  1.0000
  H   H2215     1.0  0.75832  0.02268  0.51899  1.0000
  S   S548      1.0  0.98983  0.22329  0.57586  1.0000
  H   H2216     1.0  0.89780  0.15808  0.52224  1.0000
  S   S549      1.0  0.70204  0.07880  0.50050  1.0000
  H   H2217     1.0  0.67654  0.02221  0.51872  1.0000
  H   H2218     1.0  0.93886  0.24514  0.59224  1.0000
  C   C1391     1.0  0.76018  0.08075  0.49499  1.0000
  H   H2219     1.0  0.73675  0.08144  0.49713  1.0000
  H   H2220     1.0  0.88598  0.31472  0.50511  1.0000
  H   H2221     1.0  0.96617  0.30220  0.59752  1.0000
  Fe  Fe275     1.0  0.98697  0.21476  0.55737  1.0000
  H   H2222     1.0  0.89638  0.16237  0.50307  1.0000
  S   S550      1.0  0.78998  0.07815  0.49423  1.0000
  H   H2223     1.0  0.88605  0.19943  0.51293  1.0000
  H   H2224     1.0  0.78263  0.03988  0.51274  1.0000
  C   C1392     1.0  0.77070  0.08296  0.50153  1.0000
  H   H2225     1.0  0.79218  0.12466  0.49608  1.0000
  H   H2226     1.0  0.82657  0.09514  0.50142  1.0000
  C   C1393     1.0  0.67323  0.05261  0.49296  1.0000
  H   H2227     1.0  0.66972  0.00487  0.55060  1.0000
  H   H2228     1.0  0.91332  0.31771  0.51483  1.0000
  H   H2229     1.0  0.68344  0.99351  0.50792  1.0000
  Fe  Fe276     1.0  0.70430  0.46287  0.01268  1.0000
  S   S551      1.0  0.72134  0.44321  0.02134  1.0000
  H   H2230     1.0  0.72917  0.54488  0.02563  1.0000
  C   C1394     1.0  0.68764  0.43129  0.04657  1.0000
  H   H2231     1.0  0.84622  0.52741  0.21859  1.0000
  S   S552      1.0  0.77451  0.48488  0.03565  1.0000
  S   S553      1.0  0.70575  0.40871  0.02004  1.0000
  C   C1395     1.0  0.78194  0.47050  0.01228  1.0000
  H   H2232     1.0  0.86042  0.48042  0.07294  1.0000
  C   C1396     1.0  0.85274  0.47534  0.16723  1.0000
  H   H2233     1.0  0.95807  0.48278  0.20706  1.0000
  C   C1397     1.0  0.87152  0.49190  0.00013  1.0000
  C   C1398     1.0  0.77697  0.54416  0.00295  1.0000
  C   C1399     1.0  0.78645  0.55298  0.00299  1.0000
  S   S554      1.0  0.81960  0.47909  0.02704  1.0000
  H   H2234     1.0  0.00082  0.49986  0.17989  1.0000
  H   H2235     1.0  0.92810  0.45724  0.11372  1.0000
  S   S555      1.0  0.89624  0.46665  0.21441  1.0000
  C   C1400     1.0  0.87119  0.48882  0.16637  1.0000
  H   H2236     1.0  0.99861  0.51866  0.16943  1.0000
  Fe  Fe277     1.0  0.89728  0.48969  0.21455  1.0000
  H   H2237     1.0  0.72662  0.52716  0.05796  1.0000
  S   S556      1.0  0.94974  0.44867  0.16716  1.0000
  Fe  Fe278     1.0  0.71223  0.43070  0.01020  1.0000
  C   C1401     1.0  0.92390  0.48897  0.18660  1.0000
  C   C1402     1.0  0.91626  0.48069  0.18249  1.0000
  C   C1403     1.0  0.92425  0.46855  0.17603  1.0000
  C   C1404     1.0  0.93991  0.46497  0.17330  1.0000
  C   C1405     1.0  0.94760  0.47386  0.17653  1.0000
  H   H2238     1.0  0.95453  0.52932  0.24113  1.0000
  H   H2239     1.0  0.90268  0.53218  0.23504  1.0000
  H   H2240     1.0  0.91828  0.46157  0.17381  1.0000
  H   H2241     1.0  0.95972  0.47124  0.17425  1.0000
  H   H2242     1.0  0.93915  0.46744  0.12768  1.0000
  H   H2243     1.0  0.85993  0.50121  0.02597  1.0000
  C   C1406     1.0  0.76776  0.54871  0.99255  1.0000
  Fe  Fe279     1.0  0.97107  0.44191  0.17550  1.0000
  H   H2244     1.0  0.94058  0.40915  0.23168  1.0000
  C   C1407     1.0  0.92791  0.47067  0.13487  1.0000
  H   H2245     1.0  0.87968  0.50064  0.02080  1.0000
  N   N139      1.0  0.87318  0.48331  0.01518  1.0000
  C   C1408     1.0  0.75301  0.46571  0.01713  1.0000
  C   C1409     1.0  0.75632  0.47319  0.02623  1.0000
  C   C1410     1.0  0.77077  0.47563  0.02384  1.0000
  H   H2246     1.0  0.85641  0.52763  0.23179  1.0000
  H   H2247     1.0  0.87588  0.48774  0.18766  1.0000
  H   H2248     1.0  0.74181  0.46397  0.01905  1.0000
  H   H2249     1.0  0.74764  0.47704  0.03519  1.0000
  H   H2250     1.0  0.99609  0.48450  0.14977  1.0000
  H   H2251     1.0  0.86257  0.46658  0.01405  1.0000
  H   H2252     1.0  0.93603  0.44133  0.13712  1.0000
  Fe  Fe280     1.0  0.71453  0.54467  0.99656  1.0000
  H   H2253     1.0  0.67037  0.45423  0.03114  1.0000
  H   H2254     1.0  0.92977  0.47042  0.14591  1.0000
  C   C1411     1.0  0.90290  0.46615  0.14454  1.0000
  Fe  Fe281     1.0  0.87143  0.47532  0.22035  1.0000
  C   C1412     1.0  0.95954  0.46274  0.23319  1.0000
  H   H2255     1.0  0.71281  0.48955  0.00955  1.0000
  H   H2256     1.0  0.99523  0.57527  0.17017  1.0000
  H   H2257     1.0  0.94549  0.49237  0.18631  1.0000
  H   H2258     1.0  0.70220  0.38018  0.01983  1.0000
  S   S557      1.0  0.69407  0.44990  0.00346  1.0000
  C   C1413     1.0  0.92451  0.44555  0.14328  1.0000
  C   C1414     1.0  0.96018  0.49121  0.10150  1.0000
  C   C1415     1.0  0.76423  0.46029  0.00578  1.0000
  H   H2259     1.0  0.98802  0.58652  0.23696  1.0000
  H   H2260     1.0  0.98198  0.49171  0.10405  1.0000
  C   C1416     1.0  0.84697  0.49836  0.05977  1.0000
  S   S558      1.0  0.83912  0.48628  0.05459  1.0000
  H   H2261     1.0  0.00109  0.47973  0.16760  1.0000
  H   H2262     1.0  0.90326  0.46673  0.15589  1.0000
  C   C1417     1.0  0.85930  0.47531  0.19005  1.0000
  H   H2263     1.0  0.88983  0.46667  0.02558  1.0000
  H   H2264     1.0  0.90979  0.45306  0.12106  1.0000
  H   H2265     1.0  0.97271  0.50154  0.15886  1.0000
  H   H2266     1.0  0.84314  0.46400  0.18885  1.0000
  S   S559      1.0  0.68788  0.47694  0.02793  1.0000
  H   H2267     1.0  0.91751  0.43767  0.14408  1.0000
  C   C1418     1.0  0.69563  0.40339  0.01006  1.0000
  C   C1419     1.0  0.93445  0.43571  0.21343  1.0000
  C   C1420     1.0  0.70565  0.49721  0.01631  1.0000
  C   C1421     1.0  0.85736  0.49234  0.06908  1.0000
  H   H2268     1.0  0.99425  0.48826  0.21671  1.0000
  S   S560      1.0  0.85648  0.46944  0.20944  1.0000
  C   C1422     1.0  0.85100  0.47089  0.18263  1.0000
  H   H2269     1.0  0.79372  0.57344  0.99295  1.0000
  C   C1423     1.0  0.67092  0.51930  0.99765  1.0000
  H   H2270     1.0  0.94426  0.43358  0.21861  1.0000
  H   H2271     1.0  0.89759  0.47748  0.13908  1.0000
  C   C1424     1.0  0.98713  0.54911  0.17731  1.0000
  C   C1425     1.0  0.86272  0.48435  0.15906  1.0000
  N   N140      1.0  0.91803  0.46076  0.13589  1.0000
  H   H2272     1.0  0.89519  0.45885  0.14568  1.0000
  H   H2273     1.0  0.67404  0.41343  0.04029  1.0000
  H   H2274     1.0  0.91839  0.43254  0.19590  1.0000
  H   H2275     1.0  0.69354  0.43515  0.03507  1.0000
  H   H2276     1.0  0.96369  0.48000  0.09959  1.0000
  N   N141      1.0  0.93165  0.42165  0.21242  1.0000
  H   H2277     1.0  0.67450  0.50051  0.04393  1.0000
  C   C1426     1.0  0.77872  0.46269  0.00339  1.0000
  S   S561      1.0  0.99068  0.45263  0.16627  1.0000
  C   C1427     1.0  0.69311  0.49347  0.02675  1.0000
  H   H2278     1.0  0.83908  0.54087  0.23023  1.0000
  H   H2279     1.0  0.92546  0.44521  0.15472  1.0000
  C   C1428     1.0  0.68880  0.38357  0.00372  1.0000
  C   C1429     1.0  0.94437  0.41441  0.20201  1.0000
  H   H2280     1.0  0.91172  0.47195  0.11505  1.0000
  H   H2281     1.0  0.94268  0.49618  0.21455  1.0000
  C   C1430     1.0  0.98831  0.57247  0.18153  1.0000
  H   H2282     1.0  0.79314  0.47224  0.01042  1.0000
  C   C1431     1.0  0.69599  0.38830  0.01208  1.0000
  C   C1432     1.0  0.91686  0.46068  0.12080  1.0000
  H   H2283     1.0  0.96009  0.49106  0.22091  1.0000
  H   H2284     1.0  0.67838  0.52670  0.99696  1.0000
  S   S562      1.0  0.96889  0.44497  0.19824  1.0000
  H   H2285     1.0  0.87257  0.48449  0.99252  1.0000
  H   H2286     1.0  0.92308  0.48237  0.13002  1.0000
  S   S563      1.0  0.93218  0.49061  0.09901  1.0000
  H   H2287     1.0  0.90412  0.48332  0.18480  1.0000
  C   C1433     1.0  0.78644  0.56656  0.99287  1.0000
  C   C1434     1.0  0.68750  0.41379  0.99999  1.0000
  S   S564      1.0  0.89853  0.48417  0.23844  1.0000
  C   C1435     1.0  0.66902  0.42555  0.03739  1.0000
  H   H2288     1.0  0.84622  0.47182  0.16164  1.0000
  C   C1436     1.0  0.87126  0.49361  0.02499  1.0000
  C   C1437     1.0  0.99638  0.51352  0.14427  1.0000
  H   H2289     1.0  0.99175  0.52529  0.14532  1.0000
  H   H2290     1.0  0.90783  0.43019  0.21470  1.0000
  H   H2291     1.0  0.87233  0.48749  0.03647  1.0000
  H   H2292     1.0  0.96697  0.46687  0.23762  1.0000
  Fe  Fe282     1.0  0.79606  0.49289  0.02880  1.0000
  C   C1438     1.0  0.93958  0.48588  0.18322  1.0000
  H   H2293     1.0  0.00138  0.41752  0.22575  1.0000
  Fe  Fe283     1.0  0.82370  0.49520  0.03815  1.0000
  C   C1439     1.0  0.95210  0.48672  0.21746  1.0000
  H   H2294     1.0  0.67444  0.42950  0.02566  1.0000
  H   H2295     1.0  0.92812  0.48984  0.23950  1.0000
  H   H2296     1.0  0.97978  0.54184  0.17739  1.0000
  Fe  Fe284     1.0  0.98363  0.42244  0.20238  1.0000
  H   H2297     1.0  0.96235  0.56981  0.20096  1.0000
  S   S565      1.0  0.97358  0.41130  0.22530  1.0000
  H   H2298     1.0  0.69291  0.41929  0.04989  1.0000
  C   C1440     1.0  0.86949  0.48424  0.18193  1.0000
  H   H2299     1.0  0.88009  0.49872  0.99511  1.0000
  H   H2300     1.0  0.87916  0.52969  0.21205  1.0000
  N   N142      1.0  0.67139  0.43371  0.04739  1.0000
  Fe  Fe285     1.0  0.89493  0.46203  0.23879  1.0000
  C   C1441     1.0  0.97875  0.50442  0.16582  1.0000
  H   H2301     1.0  0.91523  0.41450  0.20592  1.0000
  H   H2302     1.0  0.77685  0.53376  0.01084  1.0000
  Fe  Fe286     1.0  0.73604  0.44937  0.99896  1.0000
  H   H2303     1.0  0.96117  0.58178  0.17466  1.0000
  C   C1442     1.0  0.93194  0.53753  0.13702  1.0000
  H   H2304     1.0  0.84545  0.54750  0.19577  1.0000
  C   C1443     1.0  0.97054  0.49784  0.10397  1.0000
  C   C1444     1.0  0.99993  0.58132  0.23764  1.0000
  H   H2305     1.0  0.87181  0.49686  0.08059  1.0000
  H   H2306     1.0  0.94836  0.50965  0.13990  1.0000
  H   H2307     1.0  0.83074  0.50270  0.13720  1.0000
  C   C1445     1.0  0.99336  0.41993  0.23567  1.0000
  S   S566      1.0  0.97828  0.52062  0.11060  1.0000
  H   H2308     1.0  0.87824  0.54414  0.19579  1.0000
  C   C1446     1.0  0.88826  0.47335  0.01440  1.0000
  Fe  Fe287     1.0  0.92463  0.58049  0.19876  1.0000
  S   S567      1.0  0.93016  0.55975  0.21543  1.0000
  S   S568      1.0  0.93831  0.59757  0.19436  1.0000
  Fe  Fe288     1.0  0.90035  0.57040  0.19114  1.0000
  S   S569      1.0  0.90409  0.54872  0.20729  1.0000
  S   S570      1.0  0.88113  0.57267  0.18040  1.0000
  Fe  Fe289     1.0  0.90542  0.56205  0.22272  1.0000
  S   S571      1.0  0.98672  0.52536  0.23535  1.0000
  Fe  Fe290     1.0  0.92839  0.54826  0.19860  1.0000
  S   S572      1.0  0.94534  0.52762  0.19393  1.0000
  S   S573      1.0  0.89967  0.58399  0.20737  1.0000
  S   S574      1.0  0.92487  0.56890  0.18100  1.0000
  C   C1447     1.0  0.84828  0.55444  0.20183  1.0000
  H   H2309     1.0  0.90797  0.53672  0.15989  1.0000
  H   H2310     1.0  0.92800  0.40098  0.22700  1.0000
  Fe  Fe291     1.0  0.80594  0.52184  0.01980  1.0000
  C   C1448     1.0  0.96934  0.55954  0.19717  1.0000
  N   N143      1.0  0.85779  0.54525  0.21243  1.0000
  C   C1449     1.0  0.91323  0.52628  0.15571  1.0000
  H   H2311     1.0  0.87889  0.49583  0.16010  1.0000
  H   H2312     1.0  0.96667  0.45815  0.22343  1.0000
  H   H2313     1.0  0.93661  0.44310  0.20229  1.0000
  C   C1450     1.0  0.83116  0.51249  0.12779  1.0000
  S   S575      1.0  0.90140  0.52810  0.09198  1.0000
  H   H2314     1.0  0.86247  0.46776  0.03264  1.0000
  N   N144      1.0  0.97819  0.56305  0.18192  1.0000
  S   S576      1.0  0.86882  0.52835  0.11490  1.0000
  H   H2315     1.0  0.92465  0.44192  0.22037  1.0000
  Fe  Fe292     1.0  0.88001  0.52166  0.09302  1.0000
  S   S577      1.0  0.86690  0.52920  0.07461  1.0000
  Fe  Fe293     1.0  0.89103  0.53249  0.11493  1.0000
  S   S578      1.0  0.89730  0.55176  0.11936  1.0000
  C   C1451     1.0  0.68080  0.39389  0.99357  1.0000
  S   S579      1.0  0.89978  0.50932  0.12683  1.0000
  H   H2316     1.0  0.75482  0.51926  0.01644  1.0000
  H   H2317     1.0  0.84519  0.49298  0.10032  1.0000
  H   H2318     1.0  0.96163  0.55240  0.19784  1.0000
  S   S580      1.0  0.79898  0.54667  0.01502  1.0000
  N   N145      1.0  0.74210  0.52509  0.03719  1.0000
  H   H2319     1.0  0.75767  0.50874  0.04926  1.0000
  N   N146      1.0  0.83158  0.50867  0.11366  1.0000
  H   H2320     1.0  0.85406  0.56268  0.19338  1.0000
  H   H2321     1.0  0.83759  0.56080  0.20756  1.0000
  H   H2322     1.0  0.76573  0.52264  0.03539  1.0000
  S   S581      1.0  0.80084  0.50830  0.00676  1.0000
  H   H2323     1.0  0.83282  0.51940  0.09064  1.0000
  H   H2324     1.0  0.90734  0.52637  0.14704  1.0000
  H   H2325     1.0  0.91099  0.51689  0.16515  1.0000
  H   H2326     1.0  0.94352  0.46378  0.21361  1.0000
  Fe  Fe294     1.0  0.87862  0.50470  0.12474  1.0000
  S   S582      1.0  0.70379  0.53850  0.02052  1.0000
  H   H2327     1.0  0.71874  0.52446  0.04406  1.0000
  N   N147      1.0  0.99485  0.50316  0.15886  1.0000
  H   H2328     1.0  0.86916  0.52929  0.19864  1.0000
  C   C1452     1.0  0.84322  0.51375  0.05470  1.0000
  C   C1453     1.0  0.84967  0.52304  0.05910  1.0000
  C   C1454     1.0  0.85987  0.51704  0.06860  1.0000
  C   C1455     1.0  0.74484  0.51699  0.02521  1.0000
  H   H2329     1.0  0.97426  0.57372  0.16002  1.0000
  H   H2330     1.0  0.83528  0.51854  0.04748  1.0000
  H   H2331     1.0  0.84659  0.53496  0.05524  1.0000
  H   H2332     1.0  0.82248  0.53121  0.10348  1.0000
  C   C1456     1.0  0.87167  0.53670  0.20440  1.0000
  H   H2333     1.0  0.71838  0.51397  0.00599  1.0000
  H   H2334     1.0  0.93193  0.53630  0.16533  1.0000
  H   H2335     1.0  0.74690  0.50478  0.02954  1.0000
  S   S583      1.0  0.76039  0.45036  0.99462  1.0000
  H   H2336     1.0  0.93081  0.51019  0.13590  1.0000
  H   H2337     1.0  0.93472  0.51667  0.17140  1.0000
  S   S584      1.0  0.83035  0.51090  0.01687  1.0000
  S   S585      1.0  0.86415  0.48946  0.13977  1.0000
  H   H2338     1.0  0.84523  0.48684  0.11979  1.0000
  H   H2339     1.0  0.76087  0.54160  0.99231  1.0000
  C   C1457     1.0  0.88585  0.56633  0.16369  1.0000
  C   C1458     1.0  0.89731  0.57091  0.15220  1.0000
  C   C1459     1.0  0.90028  0.56672  0.13854  1.0000
  C   C1460     1.0  0.89234  0.55734  0.13647  1.0000
  C   C1461     1.0  0.88105  0.55248  0.14804  1.0000
  C   C1462     1.0  0.87763  0.55720  0.16155  1.0000
  H   H2340     1.0  0.90349  0.57819  0.15364  1.0000
  H   H2341     1.0  0.90883  0.57072  0.12951  1.0000
  H   H2342     1.0  0.87479  0.54535  0.14647  1.0000
  H   H2343     1.0  0.86862  0.55376  0.17029  1.0000
  C   C1463     1.0  0.95622  0.52288  0.20728  1.0000
  C   C1464     1.0  0.94994  0.52594  0.22146  1.0000
  C   C1465     1.0  0.95931  0.52594  0.23061  1.0000
  C   C1466     1.0  0.97489  0.52256  0.22558  1.0000
  C   C1467     1.0  0.98092  0.51786  0.21220  1.0000
  C   C1468     1.0  0.97166  0.51799  0.20304  1.0000
  H   H2344     1.0  0.93788  0.52894  0.22507  1.0000
  H   H2345     1.0  0.86029  0.49959  0.00031  1.0000
  H   H2346     1.0  0.81789  0.50064  0.10434  1.0000
  H   H2347     1.0  0.97654  0.51507  0.19237  1.0000
  C   C1469     1.0  0.95692  0.60607  0.23017  1.0000
  C   C1470     1.0  0.95228  0.59276  0.23270  1.0000
  C   C1471     1.0  0.94645  0.58992  0.22186  1.0000
  C   C1472     1.0  0.94545  0.60030  0.20845  1.0000
  C   C1473     1.0  0.95060  0.61327  0.20585  1.0000
  C   C1474     1.0  0.95622  0.61617  0.21665  1.0000
  H   H2348     1.0  0.99615  0.59965  0.21161  1.0000
  C   C1475     1.0  0.75546  0.52075  0.04388  1.0000
  H   H2349     1.0  0.94998  0.62130  0.19549  1.0000
  H   H2350     1.0  0.95986  0.62642  0.21456  1.0000
  C   C1476     1.0  0.81791  0.50352  0.11489  1.0000
  C   C1477     1.0  0.94529  0.49905  0.10155  1.0000
  H   H2351     1.0  0.68078  0.52475  0.04111  1.0000
  H   H2352     1.0  0.93241  0.45969  0.23205  1.0000
  C   C1478     1.0  0.94082  0.51355  0.10396  1.0000
  C   C1479     1.0  0.95118  0.52020  0.10627  1.0000
  H   H2353     1.0  0.80759  0.51224  0.11737  1.0000
  H   H2354     1.0  0.86808  0.56291  0.21157  1.0000
  H   H2355     1.0  0.92943  0.51978  0.10381  1.0000
  H   H2356     1.0  0.94779  0.53159  0.10759  1.0000
  H   H2357     1.0  0.68952  0.37183  0.00508  1.0000
  C   C1480     1.0  0.97893  0.41750  0.23843  1.0000
  S   S586      1.0  0.98858  0.47275  0.19846  1.0000
  C   C1481     1.0  0.68421  0.50335  0.03580  1.0000
  S   S587      1.0  0.88857  0.49781  0.10291  1.0000
  S   S588      1.0  0.79949  0.50743  0.04208  1.0000
  Fe  Fe295     1.0  0.90888  0.50474  0.10392  1.0000
  C   C1482     1.0  0.69994  0.52101  0.02332  1.0000
  C   C1483     1.0  0.96598  0.51233  0.10645  1.0000
  H   H2358     1.0  0.99492  0.54275  0.18487  1.0000
  H   H2359     1.0  0.92756  0.54840  0.14047  1.0000
  H   H2360     1.0  0.92615  0.53787  0.12817  1.0000
  C   C1484     1.0  0.84949  0.53486  0.22373  1.0000
  H   H2361     1.0  0.94408  0.53667  0.13192  1.0000
  N   N148      1.0  0.92949  0.52506  0.14972  1.0000
  C   C1485     1.0  0.93612  0.51087  0.14471  1.0000
  H   H2362     1.0  0.75407  0.52715  0.05248  1.0000
  H   H2363     1.0  0.99629  0.56668  0.18903  1.0000
  C   C1486     1.0  0.93665  0.52564  0.16144  1.0000
  C   C1487     1.0  0.73903  0.54126  0.03099  1.0000
  H   H2364     1.0  0.84258  0.52609  0.10022  1.0000
  H   H2365     1.0  0.89723  0.47975  0.00991  1.0000
  H   H2366     1.0  0.74873  0.54451  0.02242  1.0000
  H   H2367     1.0  0.81707  0.49344  0.12387  1.0000
  H   H2368     1.0  0.97671  0.55348  0.20523  1.0000
  C   C1488     1.0  0.72904  0.52131  0.04870  1.0000
  C   C1489     1.0  0.68775  0.51705  0.03422  1.0000
  H   H2369     1.0  0.68709  0.42545  0.99830  1.0000
  H   H2370     1.0  0.94893  0.52460  0.15743  1.0000
  H   H2371     1.0  0.97319  0.51588  0.16753  1.0000
  H   H2372     1.0  0.78753  0.45838  0.99479  1.0000
  H   H2373     1.0  0.94288  0.57970  0.22382  1.0000
  H   H2374     1.0  0.85547  0.50052  0.10865  1.0000
  C   C1490     1.0  0.93016  0.41172  0.22728  1.0000
  Fe  Fe296     1.0  0.98989  0.45311  0.18965  1.0000
  H   H2375     1.0  0.86883  0.54841  0.22790  1.0000
  C   C1491     1.0  0.84494  0.49672  0.11045  1.0000
  S   S589      1.0  0.91386  0.50158  0.19787  1.0000
  C   C1492     1.0  0.86168  0.47434  0.02124  1.0000
  H   H2376     1.0  0.73503  0.52014  0.01984  1.0000
  C   C1493     1.0  0.86172  0.55498  0.21979  1.0000
  H   H2377     1.0  0.85153  0.56164  0.22591  1.0000
  H   H2378     1.0  0.99419  0.55135  0.16594  1.0000
  C   C1494     1.0  0.93711  0.46855  0.22344  1.0000
  H   H2379     1.0  0.84140  0.51629  0.12723  1.0000
  H   H2380     1.0  0.93458  0.50118  0.15398  1.0000
  H   H2381     1.0  0.82128  0.52152  0.13059  1.0000
  H   H2382     1.0  0.95993  0.56441  0.17190  1.0000
  C   C1495     1.0  0.86382  0.50163  0.07345  1.0000
  S   S590      1.0  0.98412  0.41844  0.18010  1.0000
  H   H2383     1.0  0.95510  0.41195  0.20579  1.0000
  C   C1496     1.0  0.70889  0.51107  0.01438  1.0000
  C   C1497     1.0  0.91766  0.42484  0.20698  1.0000
  H   H2384     1.0  0.73663  0.54775  0.03975  1.0000
  H   H2385     1.0  0.85022  0.48154  0.02209  1.0000
  Fe  Fe297     1.0  0.82469  0.49575  0.00598  1.0000
  C   C1498     1.0  0.83236  0.52192  0.10150  1.0000
  H   H2386     1.0  0.94272  0.40371  0.20101  1.0000
  H   H2387     1.0  0.99493  0.61109  0.23232  1.0000
  H   H2388     1.0  0.73095  0.50914  0.05344  1.0000
  S   S591      1.0  0.87253  0.49880  0.21847  1.0000
  H   H2389     1.0  0.97712  0.49677  0.17687  1.0000
  C   C1499     1.0  0.96795  0.57107  0.17166  1.0000
  H   H2390     1.0  0.67117  0.51103  0.00832  1.0000
  H   H2391     1.0  0.92761  0.47735  0.21977  1.0000
  H   H2392     1.0  0.99042  0.51123  0.13685  1.0000
  H   H2393     1.0  0.92077  0.41692  0.23545  1.0000
  H   H2394     1.0  0.98187  0.58309  0.18497  1.0000
  H   H2395     1.0  0.94590  0.42163  0.19070  1.0000
  H   H2396     1.0  0.88849  0.51341  0.23787  1.0000
  H   H2397     1.0  0.99274  0.51420  0.20880  1.0000
  N   N149      1.0  0.94665  0.47465  0.22912  1.0000
  H   H2398     1.0  0.89006  0.46544  0.00707  1.0000
  H   H2399     1.0  0.69147  0.49402  0.99498  1.0000
  H   H2400     1.0  0.68997  0.43747  0.05373  1.0000
  H   H2401     1.0  0.66852  0.41614  0.06658  1.0000
  C   C1500     1.0  0.67993  0.40907  0.99191  1.0000
  Fe  Fe298     1.0  0.94553  0.46124  0.29992  1.0000
  S   S592      1.0  0.96445  0.46746  0.28169  1.0000
  S   S593      1.0  0.92172  0.46953  0.29757  1.0000
  Fe  Fe299     1.0  0.96498  0.44477  0.32183  1.0000
  Fe  Fe300     1.0  0.97220  0.47261  0.29945  1.0000
  H   H2402     1.0  0.89781  0.59197  0.24442  1.0000
  S   S594      1.0  0.95208  0.46847  0.31717  1.0000
  S   S595      1.0  0.95693  0.43721  0.30568  1.0000
  S   S596      1.0  0.91024  0.44242  0.24982  1.0000
  Fe  Fe301     1.0  0.97714  0.35022  0.40487  1.0000
  H   H2403     1.0  0.94318  0.51065  0.27732  1.0000
  H   H2404     1.0  0.93565  0.43559  0.26344  1.0000
  C   C1501     1.0  0.95762  0.41660  0.35208  1.0000
  C   C1502     1.0  0.95542  0.40923  0.34230  1.0000
  C   C1503     1.0  0.94991  0.39726  0.37283  1.0000
  C   C1504     1.0  0.95468  0.41067  0.36736  1.0000
  H   H2405     1.0  0.95806  0.41346  0.33049  1.0000
  C   C1505     1.0  0.95034  0.39596  0.34780  1.0000
  H   H2406     1.0  0.95623  0.41639  0.37500  1.0000
  C   C1506     1.0  0.91833  0.46104  0.28514  1.0000
  C   C1507     1.0  0.90433  0.46539  0.28128  1.0000
  C   C1508     1.0  0.90168  0.45914  0.27085  1.0000
  C   C1509     1.0  0.91298  0.44844  0.26438  1.0000
  C   C1510     1.0  0.92688  0.44377  0.26854  1.0000
  C   C1511     1.0  0.92962  0.45019  0.27884  1.0000
  H   H2407     1.0  0.89555  0.47375  0.28616  1.0000
  H   H2408     1.0  0.89087  0.46270  0.26773  1.0000
  H   H2409     1.0  0.88810  0.60181  0.25910  1.0000
  H   H2410     1.0  0.92146  0.41612  0.35114  1.0000
  H   H2411     1.0  0.94053  0.44689  0.28166  1.0000
  C   C1512     1.0  0.94042  0.34164  0.46033  1.0000
  C   C1513     1.0  0.88660  0.54319  0.25149  1.0000
  H   H2412     1.0  0.94763  0.39281  0.38464  1.0000
  H   H2413     1.0  0.91512  0.56500  0.26291  1.0000
  H   H2414     1.0  0.99594  0.38412  0.38541  1.0000
  N   N150      1.0  0.91347  0.43492  0.33478  1.0000
  C   C1514     1.0  0.94779  0.38984  0.36306  1.0000
  H   H2415     1.0  0.91751  0.44944  0.34630  1.0000
  H   H2416     1.0  0.90474  0.42863  0.35822  1.0000
  H   H2417     1.0  0.92499  0.45283  0.32669  1.0000
  H   H2418     1.0  0.93401  0.43706  0.33868  1.0000
  H   H2419     1.0  0.90386  0.41630  0.34738  1.0000
  C   C1515     1.0  0.98898  0.38428  0.37762  1.0000
  H   H2420     1.0  0.93054  0.35873  0.47307  1.0000
  H   H2421     1.0  0.91390  0.33846  0.39308  1.0000
  S   S597      1.0  0.93086  0.35084  0.44585  1.0000
  H   H2422     1.0  0.98182  0.37615  0.38341  1.0000
  S   S598      1.0  0.97311  0.34325  0.38599  1.0000
  Fe  Fe302     1.0  0.95062  0.35887  0.39010  1.0000
  H   H2423     1.0  0.93214  0.42006  0.32401  1.0000
  S   S599      1.0  0.96457  0.43287  0.34563  1.0000
  H   H2424     1.0  0.91753  0.58455  0.28182  1.0000
  C   C1516     1.0  0.89901  0.44466  0.33179  1.0000
  H   H2425     1.0  0.92817  0.59953  0.25742  1.0000
  H   H2426     1.0  0.90075  0.45332  0.32144  1.0000
  H   H2427     1.0  0.89158  0.43823  0.33031  1.0000
  H   H2428     1.0  0.94883  0.39018  0.34019  1.0000
  H   H2429     1.0  0.91437  0.42082  0.32026  1.0000
  C   C1517     1.0  0.96878  0.42017  0.25162  1.0000
  H   H2430     1.0  0.89287  0.45051  0.34101  1.0000
  C   C1518     1.0  0.92124  0.42760  0.32213  1.0000
  Fe  Fe303     1.0  0.98562  0.64428  0.47849  1.0000
  C   C1519     1.0  0.92289  0.44395  0.33670  1.0000
  C   C1520     1.0  0.91073  0.42350  0.34847  1.0000
  H   H2431     1.0  0.96023  0.61621  0.40445  1.0000
  Fe  Fe304     1.0  0.94597  0.34858  0.42356  1.0000
  S   S600      1.0  0.95553  0.36733  0.40767  1.0000
  H   H2432     1.0  0.92357  0.43591  0.31164  1.0000
  C   C1521     1.0  0.93825  0.34808  0.47251  1.0000
  S   S601      1.0  0.86988  0.46870  0.24504  1.0000
  S   S602      1.0  0.93918  0.34147  0.40622  1.0000
  C   C1522     1.0  0.96842  0.64754  0.42320  1.0000
  S   S603      1.0  0.94222  0.37284  0.36968  1.0000
  Fe  Fe305     1.0  0.97679  0.44420  0.28919  1.0000
  H   H2433     1.0  0.98144  0.39549  0.37584  1.0000
  C   C1523     1.0  0.98871  0.38009  0.35391  1.0000
  C   C1524     1.0  0.97307  0.42538  0.26196  1.0000
  H   H2434     1.0  0.95353  0.63893  0.44301  1.0000
  H   H2435     1.0  0.89959  0.59717  0.28130  1.0000
  H   H2436     1.0  0.98133  0.37210  0.35959  1.0000
  C   C1525     1.0  0.98768  0.42748  0.25926  1.0000
  H   H2437     1.0  0.96528  0.42730  0.27218  1.0000
  H   H2438     1.0  0.88986  0.58212  0.26222  1.0000
  C   C1526     1.0  0.87160  0.52040  0.25624  1.0000
  C   C1527     1.0  0.98821  0.61446  0.40702  1.0000
  N   N151      1.0  0.98387  0.60756  0.39715  1.0000
  H   H2439     1.0  0.00071  0.57952  0.24943  1.0000
  H   H2440     1.0  0.98554  0.33057  0.46392  1.0000
  S   S604      1.0  0.96810  0.33235  0.42229  1.0000
  C   C1528     1.0  0.97813  0.62463  0.33785  1.0000
  H   H2441     1.0  0.92212  0.53241  0.25742  1.0000
  C   C1529     1.0  0.97477  0.61309  0.31938  1.0000
  H   H2442     1.0  0.90690  0.33919  0.37713  1.0000
  S   S605      1.0  0.95773  0.64646  0.41129  1.0000
  S   S606      1.0  0.89511  0.55825  0.24712  1.0000
  C   C1530     1.0  0.90699  0.58692  0.27775  1.0000
  C   C1531     1.0  0.98413  0.61769  0.32566  1.0000
  H   H2443     1.0  0.86937  0.55087  0.26938  1.0000
  S   S607      1.0  0.99994  0.35331  0.40409  1.0000
  H   H2444     1.0  0.91009  0.61180  0.25710  1.0000
  H   H2445     1.0  0.98128  0.39114  0.35089  1.0000
  C   C1532     1.0  0.99776  0.42477  0.24610  1.0000
  N   N152      1.0  0.91996  0.51445  0.27646  1.0000
  H   H2446     1.0  0.92464  0.32725  0.37986  1.0000
  H   H2447     1.0  0.94610  0.65834  0.33812  1.0000
  H   H2448     1.0  0.92148  0.51711  0.29760  1.0000
  S   S608      1.0  0.97165  0.57191  0.26998  1.0000
  Fe  Fe306     1.0  0.95617  0.59695  0.29947  1.0000
  S   S609      1.0  0.94221  0.59606  0.28410  1.0000
  S   S610      1.0  0.94693  0.61101  0.31702  1.0000
  Fe  Fe307     1.0  0.95158  0.57142  0.28873  1.0000
  S   S611      1.0  0.93722  0.55509  0.29206  1.0000
  Fe  Fe308     1.0  0.96311  0.59653  0.26637  1.0000
  S   S612      1.0  0.96357  0.57211  0.30579  1.0000
  Fe  Fe309     1.0  0.96575  0.65708  0.38757  1.0000
  C   C1533     1.0  0.94864  0.53734  0.29107  1.0000
  C   C1534     1.0  0.94579  0.52512  0.30242  1.0000
  C   C1535     1.0  0.95565  0.51113  0.30234  1.0000
  C   C1536     1.0  0.96837  0.50938  0.29091  1.0000
  C   C1537     1.0  0.97075  0.52142  0.27916  1.0000
  C   C1538     1.0  0.96093  0.53538  0.27926  1.0000
  H   H2449     1.0  0.93632  0.52660  0.31160  1.0000
  H   H2450     1.0  0.96301  0.54466  0.27024  1.0000
  H   H2451     1.0  0.00126  0.55165  0.26730  1.0000
  C   C1539     1.0  0.96277  0.62644  0.34406  1.0000
  C   C1540     1.0  0.95345  0.62174  0.33787  1.0000
  C   C1541     1.0  0.95935  0.61526  0.32537  1.0000
  C   C1542     1.0  0.91056  0.50843  0.27051  1.0000
  H   H2452     1.0  0.95804  0.63139  0.35367  1.0000
  H   H2453     1.0  0.94159  0.62317  0.34276  1.0000
  C   C1543     1.0  0.97247  0.64327  0.44820  1.0000
  C   C1544     1.0  0.89229  0.53220  0.24312  1.0000
  H   H2454     1.0  0.97949  0.60804  0.30980  1.0000
  S   S613      1.0  0.97624  0.59983  0.28116  1.0000
  H   H2455     1.0  0.90146  0.57751  0.28361  1.0000
  S   S614      1.0  0.99007  0.63083  0.34511  1.0000
  C   C1545     1.0  0.98590  0.64808  0.44248  1.0000
  H   H2456     1.0  0.99603  0.61608  0.32088  1.0000
  H   H2457     1.0  0.99207  0.60284  0.37520  1.0000
  Fe  Fe310     1.0  0.96221  0.32672  0.40371  1.0000
  C   C1546     1.0  0.93580  0.50644  0.27289  1.0000
  S   S615      1.0  0.86188  0.50656  0.25861  1.0000
  C   C1547     1.0  0.91478  0.51251  0.29274  1.0000
  S   S616      1.0  0.98209  0.49275  0.29190  1.0000
  H   H2458     1.0  0.96541  0.61128  0.38650  1.0000
  H   H2459     1.0  0.91579  0.50056  0.29821  1.0000
  C   C1548     1.0  0.99049  0.65279  0.42712  1.0000
  H   H2460     1.0  0.93308  0.47194  0.25117  1.0000
  H   H2461     1.0  0.90280  0.51824  0.29582  1.0000
  H   H2462     1.0  0.95766  0.41813  0.25385  1.0000
  H   H2463     1.0  0.89851  0.51419  0.27305  1.0000
  H   H2464     1.0  0.91406  0.50974  0.25824  1.0000
  H   H2465     1.0  0.99776  0.50202  0.30922  1.0000
  C   C1549     1.0  0.87378  0.54241  0.26280  1.0000
  H   H2466     1.0  0.92589  0.53526  0.27382  1.0000
  H   H2467     1.0  0.91123  0.49639  0.27539  1.0000
  H   H2468     1.0  0.97465  0.59157  0.41519  1.0000
  H   H2469     1.0  0.95378  0.50188  0.31148  1.0000
  C   C1550     1.0  0.86631  0.53095  0.26522  1.0000
  H   H2470     1.0  0.95578  0.45331  0.24177  1.0000
  C   C1551     1.0  0.88455  0.52113  0.24515  1.0000
  H   H2471     1.0  0.96879  0.63975  0.46005  1.0000
  Fe  Fe311     1.0  0.98281  0.57499  0.28650  1.0000
  H   H2472     1.0  0.85624  0.53044  0.27380  1.0000
  H   H2473     1.0  0.91537  0.32852  0.47411  1.0000
  H   H2474     1.0  0.90693  0.53686  0.27250  1.0000
  H   H2475     1.0  0.99753  0.52855  0.33153  1.0000
  S   S617      1.0  0.95650  0.65362  0.36980  1.0000
  S   S618      1.0  0.99398  0.43296  0.27221  1.0000
  C   C1552     1.0  0.91870  0.53044  0.26975  1.0000
  S   S619      1.0  0.98595  0.44970  0.30588  1.0000
  H   H2476     1.0  0.99930  0.50369  0.32702  1.0000
  H   H2477     1.0  0.00082  0.65664  0.42266  1.0000
  C   C1553     1.0  0.89583  0.59127  0.25660  1.0000
  Fe  Fe312     1.0  0.98034  0.64963  0.35747  1.0000
  H   H2478     1.0  0.96026  0.65345  0.32238  1.0000
  H   H2479     1.0  0.99956  0.40331  0.35347  1.0000
  H   H2480     1.0  0.96930  0.62773  0.38868  1.0000
  H   H2481     1.0  0.98045  0.52007  0.27015  1.0000
  H   H2482     1.0  0.97976  0.58654  0.39737  1.0000
  C   C1554     1.0  0.92017  0.57477  0.25737  1.0000
  C   C1555     1.0  0.98167  0.65269  0.41750  1.0000
  S   S620      1.0  0.98987  0.65132  0.37598  1.0000
  C   C1556     1.0  0.95026  0.32781  0.45977  1.0000
  Fe  Fe313     1.0  0.87353  0.49148  0.24257  1.0000
  C   C1557     1.0  0.96904  0.61599  0.39406  1.0000
  C   C1558     1.0  0.99772  0.32955  0.45895  1.0000
  C   C1559     1.0  0.91304  0.33162  0.38570  1.0000
  C   C1560     1.0  0.94662  0.34113  0.48362  1.0000
  H   H2483     1.0  0.98150  0.51011  0.32144  1.0000
  H   H2484     1.0  0.92415  0.65556  0.31249  1.0000
  H   H2485     1.0  0.94217  0.64395  0.31452  1.0000
  C   C1561     1.0  0.98931  0.53125  0.29832  1.0000
  N   N153      1.0  0.91008  0.58856  0.26146  1.0000
  H   H2486     1.0  0.97699  0.53216  0.30210  1.0000
  H   H2487     1.0  0.95312  0.58473  0.24300  1.0000
  H   H2488     1.0  0.88346  0.33363  0.39419  1.0000
  H   H2489     1.0  0.94012  0.50779  0.26069  1.0000
  H   H2490     1.0  0.93714  0.49434  0.27782  1.0000
  C   C1562     1.0  0.99191  0.53354  0.32195  1.0000
  H   H2491     1.0  0.97977  0.61478  0.41766  1.0000
  N   N154      1.0  0.99840  0.38060  0.36347  1.0000
  H   H2492     1.0  0.93113  0.57247  0.26070  1.0000
  H   H2493     1.0  0.99036  0.48687  0.25907  1.0000
  C   C1563     1.0  0.91731  0.60123  0.25414  1.0000
  C   C1564     1.0  0.96382  0.64285  0.43855  1.0000
  C   C1565     1.0  0.98306  0.59205  0.40450  1.0000
  C   C1566     1.0  0.93317  0.65301  0.31880  1.0000
  C   C1567     1.0  0.93776  0.48065  0.24232  1.0000
  H   H2494     1.0  0.99679  0.46174  0.25349  1.0000
  H   H2495     1.0  0.99408  0.58535  0.40701  1.0000
  H   H2496     1.0  0.98893  0.62617  0.40184  1.0000
  S   S621      1.0  0.97403  0.62564  0.49093  1.0000
  H   H2497     1.0  0.89562  0.33151  0.48189  1.0000
  H   H2498     1.0  0.99878  0.33914  0.44941  1.0000
  H   H2499     1.0  0.99897  0.46539  0.27762  1.0000
  H   H2500     1.0  0.99434  0.54480  0.31715  1.0000
  C   C1568     1.0  0.99512  0.60775  0.38301  1.0000
  H   H2501     1.0  0.99600  0.61928  0.37714  1.0000
  H   H2502     1.0  0.97956  0.53515  0.32626  1.0000
  H   H2503     1.0  0.92845  0.64850  0.33062  1.0000
  N   N155      1.0  0.99715  0.52417  0.31072  1.0000
  H   H2504     1.0  0.99096  0.54269  0.29336  1.0000
  H   H2505     1.0  0.99929  0.60837  0.40974  1.0000
  H   H2506     1.0  0.99542  0.37676  0.34337  1.0000
  H   H2507     1.0  0.94474  0.48505  0.24703  1.0000
  H   H2508     1.0  0.92245  0.57543  0.24520  1.0000
  C   C1569     1.0  0.99380  0.50935  0.31744  1.0000
  S   S622      1.0  0.99683  0.64875  0.45433  1.0000
  H   H2509     1.0  0.98518  0.65655  0.40570  1.0000
  H   H2510     1.0  0.99349  0.52487  0.28931  1.0000
  C   C1570     1.0  0.95702  0.32764  0.48263  1.0000
  S   S623      1.0  0.96366  0.61072  0.24341  1.0000
  H   H2511     1.0  0.91966  0.60285  0.24182  1.0000
  H   H2512     1.0  0.89074  0.33178  0.41033  1.0000
  C   C1571     1.0  0.96976  0.42680  0.66183  1.0000
  C   C1572     1.0  0.97875  0.36510  0.56156  1.0000
  C   C1573     1.0  0.96514  0.44679  0.64080  1.0000
  C   C1574     1.0  0.86599  0.49006  0.69374  1.0000
  H   H2513     1.0  0.00081  0.56136  0.56493  1.0000
  S   S624      1.0  0.93942  0.37517  0.64649  1.0000
  H   H2514     1.0  0.95916  0.47876  0.70325  1.0000
  Fe  Fe314     1.0  0.95635  0.64369  0.50058  1.0000
  Fe  Fe315     1.0  0.94723  0.34066  0.54233  1.0000
  S   S625      1.0  0.94167  0.36266  0.54945  1.0000
  H   H2515     1.0  0.96274  0.50774  0.65584  1.0000
  Fe  Fe316     1.0  0.92935  0.40134  0.71640  1.0000
  S   S626      1.0  0.94280  0.41332  0.69648  1.0000
  S   S627      1.0  0.91695  0.38665  0.71195  1.0000
  Fe  Fe317     1.0  0.93460  0.43261  0.70760  1.0000
  S   S628      1.0  0.92515  0.45418  0.69325  1.0000
  Fe  Fe318     1.0  0.96106  0.40592  0.70904  1.0000
  S   S629      1.0  0.91966  0.42117  0.72708  1.0000
  H   H2516     1.0  0.92452  0.62326  0.53462  1.0000
  H   H2517     1.0  0.96466  0.42394  0.54231  1.0000
  C   C1575     1.0  0.95719  0.37994  0.57517  1.0000
  C   C1576     1.0  0.94784  0.37659  0.56791  1.0000
  C   C1577     1.0  0.95386  0.36708  0.55782  1.0000
  H   H2518     1.0  0.95238  0.38681  0.58329  1.0000
  H   H2519     1.0  0.93585  0.38103  0.57043  1.0000
  C   C1578     1.0  0.93242  0.37901  0.66439  1.0000
  C   C1579     1.0  0.92805  0.36775  0.67622  1.0000
  C   C1580     1.0  0.92299  0.37029  0.69071  1.0000
  C   C1581     1.0  0.92217  0.38415  0.69348  1.0000
  C   C1582     1.0  0.92590  0.39561  0.68153  1.0000
  C   C1583     1.0  0.93129  0.39299  0.66705  1.0000
  H   H2520     1.0  0.92873  0.35697  0.67420  1.0000
  H   H2521     1.0  0.91990  0.36144  0.69983  1.0000
  H   H2522     1.0  0.92416  0.40664  0.68335  1.0000
  H   H2523     1.0  0.93411  0.40189  0.65790  1.0000
  H   H2524     1.0  0.96599  0.42212  0.67378  1.0000
  C   C1584     1.0  0.93367  0.46890  0.69081  1.0000
  C   C1585     1.0  0.94537  0.46736  0.69780  1.0000
  C   C1586     1.0  0.96495  0.37586  0.68609  1.0000
  H   H2525     1.0  0.95006  0.45670  0.70406  1.0000
  H   H2526     1.0  0.93974  0.43599  0.67150  1.0000
  H   H2527     1.0  0.93939  0.50051  0.73747  1.0000
  H   H2528     1.0  0.97654  0.44895  0.63832  1.0000
  H   H2529     1.0  0.98260  0.40197  0.72497  1.0000
  H   H2530     1.0  0.94274  0.33982  0.60051  1.0000
  H   H2531     1.0  0.91969  0.48372  0.67606  1.0000
  S   S630      1.0  0.97872  0.46304  0.72491  1.0000
  H   H2532     1.0  0.96557  0.43861  0.63427  1.0000
  H   H2533     1.0  0.99845  0.55362  0.58452  1.0000
  H   H2534     1.0  0.98564  0.51357  0.70500  1.0000
  H   H2535     1.0  0.97410  0.35415  0.54676  1.0000
  H   H2536     1.0  0.95760  0.45739  0.63652  1.0000
  C   C1587     1.0  0.97043  0.47890  0.60361  1.0000
  H   H2537     1.0  0.99462  0.36864  0.68656  1.0000
  H   H2538     1.0  0.99078  0.38314  0.67090  1.0000
  N   N156      1.0  0.87565  0.48697  0.70453  1.0000
  S   S631      1.0  0.95154  0.40041  0.60727  1.0000
  C   C1588     1.0  0.92830  0.57558  0.72235  1.0000
  C   C1589     1.0  0.98398  0.48790  0.64116  1.0000
  H   H2539     1.0  0.96541  0.42501  0.58056  1.0000
  C   C1590     1.0  0.98171  0.55287  0.62163  1.0000
  H   H2540     1.0  0.92585  0.54753  0.73525  1.0000
  C   C1591     1.0  0.96935  0.36132  0.55467  1.0000
  Fe  Fe319     1.0  0.94027  0.41340  0.73698  1.0000
  Fe  Fe320     1.0  0.98445  0.39744  0.62558  1.0000
  Fe  Fe321     1.0  0.95457  0.38931  0.63040  1.0000
  C   C1592     1.0  0.93661  0.49357  0.73137  1.0000
  C   C1593     1.0  0.94434  0.43960  0.65951  1.0000
  H   H2541     1.0  0.94360  0.54133  0.74076  1.0000
  C   C1594     1.0  0.97852  0.48191  0.66797  1.0000
  H   H2542     1.0  0.94548  0.34653  0.49258  1.0000
  S   S632      1.0  0.98352  0.39613  0.69664  1.0000
  C   C1595     1.0  0.94756  0.55620  0.71249  1.0000
  H   H2543     1.0  0.97039  0.41844  0.65547  1.0000
  C   C1596     1.0  0.99419  0.39917  0.71928  1.0000
  S   S633      1.0  0.98484  0.37844  0.58062  1.0000
  H   H2544     1.0  0.93209  0.61080  0.54990  1.0000
  H   H2545     1.0  0.93672  0.45029  0.65561  1.0000
  H   H2546     1.0  0.85963  0.50119  0.71834  1.0000
  H   H2547     1.0  0.99098  0.47651  0.64063  1.0000
  S   S634      1.0  0.95448  0.42649  0.71826  1.0000
  C   C1597     1.0  0.98214  0.50567  0.71487  1.0000
  H   H2548     1.0  0.98822  0.55384  0.65459  1.0000
  H   H2549     1.0  0.96368  0.36661  0.66227  1.0000
  C   C1598     1.0  0.97867  0.46414  0.60507  1.0000
  H   H2550     1.0  0.98135  0.42793  0.66062  1.0000
  H   H2551     1.0  0.96795  0.34759  0.68473  1.0000
  C   C1599     1.0  0.97270  0.37427  0.57196  1.0000
  H   H2552     1.0  0.98574  0.47052  0.66846  1.0000
  H   H2553     1.0  0.94361  0.43126  0.65372  1.0000
  N   N157      1.0  0.97733  0.36693  0.67681  1.0000
  C   C1600     1.0  0.94912  0.47094  0.60135  1.0000
  H   H2554     1.0  0.93763  0.47363  0.60003  1.0000
  H   H2555     1.0  0.95405  0.37298  0.68732  1.0000
  H   H2556     1.0  0.95377  0.56380  0.70366  1.0000
  N   N158      1.0  0.95992  0.44127  0.65683  1.0000
  H   H2557     1.0  0.93945  0.41269  0.57833  1.0000
  S   S635      1.0  0.94841  0.39227  0.72837  1.0000
  H   H2558     1.0  0.97523  0.51148  0.66483  1.0000
  H   H2559     1.0  0.98043  0.33505  0.57463  1.0000
  C   C1601     1.0  0.95564  0.48226  0.60177  1.0000
  C   C1602     1.0  0.99159  0.37104  0.67556  1.0000
  H   H2560     1.0  0.97210  0.45370  0.66297  1.0000
  C   C1603     1.0  0.97217  0.45280  0.60459  1.0000
  Fe  Fe322     1.0  0.97581  0.38993  0.60013  1.0000
  C   C1604     1.0  0.92819  0.48262  0.68214  1.0000
  C   C1605     1.0  0.97292  0.48506  0.74020  1.0000
  C   C1606     1.0  0.87367  0.47313  0.71553  1.0000
  S   S636      1.0  0.97724  0.52751  0.73003  1.0000
  H   H2561     1.0  0.95716  0.44780  0.67731  1.0000
  H   H2562     1.0  0.97862  0.44146  0.60566  1.0000
  C   C1607     1.0  0.95732  0.45619  0.60285  1.0000
  C   C1608     1.0  0.96051  0.45198  0.66514  1.0000
  C   C1609     1.0  0.93914  0.42480  0.57489  1.0000
  C   C1610     1.0  0.95052  0.47986  0.69734  1.0000
  H   H2563     1.0  0.94457  0.42692  0.54547  1.0000
  H   H2564     1.0  0.86182  0.47399  0.72170  1.0000
  H   H2565     1.0  0.95285  0.46293  0.66211  1.0000
  H   H2566     1.0  0.93285  0.59479  0.51202  1.0000
  C   C1611     1.0  0.98928  0.54978  0.64478  1.0000
  Fe  Fe323     1.0  0.96027  0.41859  0.61054  1.0000
  S   S637      1.0  0.96078  0.40852  0.63449  1.0000
  H   H2567     1.0  0.98780  0.34395  0.67697  1.0000
  C   C1612     1.0  0.97805  0.48099  0.72639  1.0000
  S   S638      1.0  0.94863  0.44225  0.60269  1.0000
  H   H2568     1.0  0.98961  0.58658  0.50827  1.0000
  C   C1613     1.0  0.99143  0.53932  0.61946  1.0000
  N   N159      1.0  0.95286  0.42781  0.56400  1.0000
  H   H2569     1.0  0.93910  0.55399  0.70779  1.0000
  H   H2570     1.0  0.98616  0.48837  0.70299  1.0000
  H   H2571     1.0  0.98211  0.59010  0.55362  1.0000
  H   H2572     1.0  0.96363  0.38795  0.68118  1.0000
  Fe  Fe324     1.0  0.98539  0.62435  0.50923  1.0000
  H   H2573     1.0  0.89344  0.49538  0.68814  1.0000
  H   H2574     1.0  0.96700  0.37410  0.69744  1.0000
  C   C1614     1.0  0.93459  0.55134  0.73809  1.0000
  H   H2575     1.0  0.86886  0.48088  0.68766  1.0000
  S   S639      1.0  0.97828  0.37739  0.62307  1.0000
  H   H2576     1.0  0.99075  0.36077  0.55893  1.0000
  C   C1615     1.0  0.98258  0.49132  0.71373  1.0000
  C   C1616     1.0  0.95180  0.44403  0.55969  1.0000
  H   H2577     1.0  0.92938  0.50113  0.72373  1.0000
  C   C1617     1.0  0.99772  0.39505  0.70557  1.0000
  Fe  Fe325     1.0  0.97916  0.65771  0.50522  1.0000
  H   H2578     1.0  0.89500  0.47581  0.69065  1.0000
  S   S640      1.0  0.88253  0.52080  0.74130  1.0000
  H   H2579     1.0  0.97769  0.56481  0.51657  1.0000
  H   H2580     1.0  0.99222  0.53516  0.60975  1.0000
  H   H2581     1.0  0.97290  0.38185  0.65654  1.0000
  S   S641      1.0  0.98451  0.40895  0.60179  1.0000
  Fe  Fe326     1.0  0.98571  0.56588  0.68355  1.0000
  S   S642      1.0  0.93191  0.64350  0.50489  1.0000
  H   H2582     1.0  0.99122  0.43147  0.73771  1.0000
  C   C1618     1.0  0.98084  0.55824  0.63414  1.0000
  C   C1619     1.0  0.95204  0.56746  0.73012  1.0000
  H   H2583     1.0  0.86733  0.50042  0.68526  1.0000
  H   H2584     1.0  0.97239  0.48800  0.64061  1.0000
  H   H2585     1.0  0.97673  0.42240  0.56277  1.0000
  H   H2586     1.0  0.94732  0.48869  0.72442  1.0000
  H   H2587     1.0  0.93773  0.42894  0.58513  1.0000
  H   H2588     1.0  0.87287  0.51012  0.70419  1.0000
  H   H2589     1.0  0.93616  0.46657  0.72711  1.0000
  H   H2590     1.0  0.99013  0.46147  0.60648  1.0000
  H   H2591     1.0  0.96700  0.48126  0.66807  1.0000
  C   C1620     1.0  0.92571  0.47301  0.73310  1.0000
  N   N160      1.0  0.94060  0.56264  0.72579  1.0000
  H   H2592     1.0  0.97818  0.48534  0.67833  1.0000
  H   H2593     1.0  0.87865  0.49767  0.72038  1.0000
  C   C1621     1.0  0.95443  0.42184  0.55078  1.0000
  S   S643      1.0  0.97868  0.49291  0.60448  1.0000
  H   H2594     1.0  0.92889  0.43029  0.57027  1.0000
  N   N161      1.0  0.98426  0.49244  0.65469  1.0000
  H   H2595     1.0  0.96205  0.44674  0.55163  1.0000
  C   C1622     1.0  0.94388  0.49384  0.68996  1.0000
  H   H2596     1.0  0.98347  0.36362  0.65441  1.0000
  Fe  Fe327     1.0  0.89470  0.52985  0.71862  1.0000
  C   C1623     1.0  0.98680  0.58963  0.53045  1.0000
  H   H2597     1.0  0.92570  0.58263  0.54563  1.0000
  H   H2598     1.0  0.97071  0.56816  0.56191  1.0000
  H   H2599     1.0  0.94194  0.44992  0.55455  1.0000
  S   S644      1.0  0.88177  0.52553  0.67314  1.0000
  H   H2600     1.0  0.92449  0.52946  0.63130  1.0000
  S   S645      1.0  0.88289  0.54685  0.70196  1.0000
  H   H2601     1.0  0.91571  0.60455  0.68643  1.0000
  C   C1624     1.0  0.90349  0.53769  0.62415  1.0000
  H   H2602     1.0  0.94682  0.57970  0.62908  1.0000
  H   H2603     1.0  0.93980  0.55409  0.65431  1.0000
  C   C1625     1.0  0.93314  0.49513  0.68188  1.0000
  H   H2604     1.0  0.91962  0.57922  0.61762  1.0000
  H   H2605     1.0  0.92858  0.59191  0.63211  1.0000
  H   H2606     1.0  0.94289  0.58408  0.54904  1.0000
  Fe  Fe328     1.0  0.89446  0.53097  0.68684  1.0000
  C   C1626     1.0  0.92686  0.56867  0.62239  1.0000
  H   H2607     1.0  0.90589  0.58135  0.64312  1.0000
  H   H2608     1.0  0.93795  0.56723  0.61458  1.0000
  C   C1627     1.0  0.87153  0.49950  0.71221  1.0000
  H   H2609     1.0  0.97831  0.51568  0.64494  1.0000
  S   S646      1.0  0.91132  0.54360  0.60533  1.0000
  H   H2610     1.0  0.94929  0.55235  0.63576  1.0000
  H   H2611     1.0  0.98675  0.57106  0.57796  1.0000
  S   S647      1.0  0.95280  0.53004  0.61347  1.0000
  S   S648      1.0  0.97021  0.58762  0.67624  1.0000
  S   S649      1.0  0.91477  0.54064  0.67753  1.0000
  C   C1628     1.0  0.92661  0.60255  0.51959  1.0000
  H   H2612     1.0  0.91913  0.48015  0.72471  1.0000
  C   C1629     1.0  0.88788  0.53975  0.62868  1.0000
  C   C1630     1.0  0.97486  0.57211  0.55024  1.0000
  C   C1631     1.0  0.92512  0.59568  0.68345  1.0000
  H   H2613     1.0  0.92172  0.55946  0.62262  1.0000
  S   S650      1.0  0.94657  0.55760  0.58506  1.0000
  S   S651      1.0  0.94904  0.52339  0.58250  1.0000
  C   C1632     1.0  0.97238  0.49948  0.74134  1.0000
  S   S652      1.0  0.96995  0.32694  0.53425  1.0000
  C   C1633     1.0  0.94964  0.60447  0.52434  1.0000
  C   C1634     1.0  0.93802  0.55436  0.64320  1.0000
  C   C1635     1.0  0.93547  0.58093  0.63649  1.0000
  H   H2614     1.0  0.95636  0.59694  0.51670  1.0000
  S   S653      1.0  0.96666  0.64073  0.51993  1.0000
  C   C1636     1.0  0.97418  0.36985  0.66186  1.0000
  H   H2615     1.0  0.94620  0.34011  0.58100  1.0000
  C   C1637     1.0  0.93982  0.59762  0.68051  1.0000
  H   H2616     1.0  0.87686  0.46344  0.71008  1.0000
  H   H2617     1.0  0.98846  0.49552  0.63091  1.0000
  H   H2618     1.0  0.91485  0.60932  0.54652  1.0000
  H   H2619     1.0  0.95056  0.44877  0.56954  1.0000
  H   H2620     1.0  0.93293  0.56008  0.67905  1.0000
  C   C1638     1.0  0.89023  0.52978  0.65430  1.0000
  H   H2621     1.0  0.92506  0.61402  0.51266  1.0000
  C   C1639     1.0  0.98538  0.58263  0.51996  1.0000
  C   C1640     1.0  0.98142  0.58443  0.54556  1.0000
  S   S654      1.0  0.90464  0.51330  0.70409  1.0000
  C   C1641     1.0  0.91247  0.53140  0.63471  1.0000
  H   H2622     1.0  0.98086  0.34849  0.69503  1.0000
  H   H2623     1.0  0.93292  0.54487  0.64430  1.0000
  H   H2624     1.0  0.96718  0.40836  0.57437  1.0000
  C   C1642     1.0  0.97871  0.57031  0.52466  1.0000
  Fe  Fe329     1.0  0.96408  0.54793  0.59876  1.0000
  S   S655      1.0  0.97068  0.56323  0.60871  1.0000
  C   C1643     1.0  0.92615  0.61156  0.54104  1.0000
  C   C1644     1.0  0.93668  0.58567  0.54016  1.0000
  C   C1645     1.0  0.90585  0.52758  0.64980  1.0000
  N   N162      1.0  0.93476  0.60105  0.53130  1.0000
  H   H2625     1.0  0.95542  0.40957  0.55375  1.0000
  H   H2626     1.0  0.92268  0.58075  0.73212  1.0000
  C   C1646     1.0  0.88127  0.53564  0.64371  1.0000
  H   H2627     1.0  0.91529  0.60011  0.52443  1.0000
  S   S656      1.0  0.94717  0.50993  0.69245  1.0000
  Fe  Fe330     1.0  0.92407  0.52433  0.69615  1.0000
  H   H2628     1.0  0.86919  0.53733  0.64714  1.0000
  H   H2629     1.0  0.88088  0.54455  0.62055  1.0000
  H   H2630     1.0  0.91283  0.52265  0.65789  1.0000
  Fe  Fe331     1.0  0.96634  0.51639  0.59662  1.0000
  Fe  Fe332     1.0  0.90430  0.55487  0.69440  1.0000
  C   C1647     1.0  0.95201  0.58599  0.67717  1.0000
  S   S657      1.0  0.90438  0.57908  0.68878  1.0000
  Fe  Fe333     1.0  0.93643  0.53842  0.59836  1.0000
  H   H2631     1.0  0.93684  0.58124  0.64761  1.0000
  H   H2632     1.0  0.97344  0.56878  0.63583  1.0000
  H   H2633     1.0  0.88084  0.47053  0.72381  1.0000
  S   S658      1.0  0.91525  0.53918  0.71254  1.0000
  H   H2634     1.0  0.95875  0.56410  0.67237  1.0000
  H   H2635     1.0  0.90786  0.56158  0.64832  1.0000
  C   C1648     1.0  0.91345  0.57073  0.64729  1.0000
  C   C1649     1.0  0.93478  0.57063  0.67924  1.0000
  H   H2636     1.0  0.94175  0.60795  0.68136  1.0000
  H   H2637     1.0  0.91415  0.57104  0.65865  1.0000
  C   C1650     1.0  0.92263  0.58201  0.68329  1.0000
  Fe  Fe334     1.0  0.96076  0.54193  0.57048  1.0000
  C   C1651     1.0  0.94944  0.57278  0.67578  1.0000
  S   S659      1.0  0.96488  0.54989  0.54565  1.0000
  S   S660      1.0  0.97946  0.54412  0.68718  1.0000
  C   C1652     1.0  0.97356  0.56499  0.53982  1.0000
  S   S661      1.0  0.97930  0.53370  0.58315  1.0000
  N   N163      1.0  0.92844  0.56867  0.63735  1.0000
  H   H2638     1.0  0.94912  0.49355  0.60086  1.0000
  H   H2639     1.0  0.91956  0.57237  0.71881  1.0000
  H   H2640     1.0  0.94865  0.61602  0.51771  1.0000
  H   H2641     1.0  0.92824  0.50589  0.67585  1.0000
  C   C1653     1.0  0.97472  0.50750  0.65506  1.0000
  H   H2642     1.0  0.89999  0.65115  0.50956  1.0000
  C   C1654     1.0  0.97712  0.50974  0.72867  1.0000
  H   H2643     1.0  0.95565  0.54548  0.71498  1.0000
  H   H2644     1.0  0.89921  0.48277  0.70431  1.0000
  H   H2645     1.0  0.95682  0.57601  0.72106  1.0000
  C   C1655     1.0  0.89150  0.48517  0.69658  1.0000
  H   H2646     1.0  0.95617  0.60336  0.53281  1.0000
  H   H2647     1.0  0.95608  0.34961  0.58766  1.0000
  S   S662      1.0  0.93666  0.33722  0.52538  1.0000
  H   H2648     1.0  0.94319  0.57744  0.53315  1.0000
  C   C1656     1.0  0.96612  0.42057  0.57071  1.0000
  C   C1657     1.0  0.95164  0.33943  0.59024  1.0000
  Fe  Fe335     1.0  0.98878  0.53825  0.70770  1.0000
  H   H2649     1.0  0.93255  0.58426  0.71308  1.0000
  H   H2650     1.0  0.96157  0.55796  0.73255  1.0000
  C   C1658     1.0  0.97856  0.35100  0.68369  1.0000
  H   H2651     1.0  0.85392  0.49154  0.69928  1.0000
  H   H2652     1.0  0.90022  0.33255  0.50607  1.0000
  H   H2653     1.0  0.97621  0.33600  0.60077  1.0000
  S   S663      1.0  0.99321  0.56062  0.70512  1.0000
  H   H2654     1.0  0.99948  0.42441  0.62354  1.0000
  S   S664      1.0  0.99873  0.64124  0.49586  1.0000
  H   H2655     1.0  0.99415  0.58187  0.59482  1.0000
  H   H2656     1.0  0.91920  0.46482  0.74049  1.0000
  S   S665      1.0  0.99570  0.60452  0.52506  1.0000
  H   H2657     1.0  0.94725  0.57232  0.74019  1.0000
  H   H2658     1.0  0.91997  0.32987  0.49803  1.0000
  H   H2659     1.0  0.99739  0.59374  0.56807  1.0000
  C   C1659     1.0  0.99839  0.56416  0.57605  1.0000
  C   C1660     1.0  0.99898  0.53617  0.64270  1.0000
  C   C1661     1.0  0.00037  0.53119  0.62978  1.0000
  C   C1662     1.0  0.99985  0.49238  0.65468  1.0000
  Fe  Fe336     1.0  0.99995  0.45567  0.70897  1.0000
  H   H2660     1.0  0.00047  0.49607  0.66456  1.0000
  H   H2661     1.0  0.00106  0.36507  0.66806  1.0000
  C   C1663     1.0  0.97123  0.32607  0.60370  1.0000
  H   H2662     1.0  0.96317  0.32641  0.61454  1.0000
  H   H2663     1.0  0.96948  0.32607  0.56865  1.0000
  N   N164      1.0  0.96375  0.32591  0.59203  1.0000
  H   H2664     1.0  0.96974  0.47703  0.75008  1.0000
  C   C1664     1.0  0.73978  0.48194  0.86052  1.0000
  C   C1665     1.0  0.71116  0.42426  0.85489  1.0000
  C   C1666     1.0  0.99955  0.47072  0.78043  1.0000
  S   S666      1.0  0.93472  0.46005  0.81166  1.0000
  C   C1667     1.0  0.79816  0.48112  0.85107  1.0000
  Fe  Fe337     1.0  0.91589  0.47295  0.80022  1.0000
  S   S667      1.0  0.90115  0.46411  0.79152  1.0000
  Fe  Fe338     1.0  0.92597  0.47702  0.82597  1.0000
  S   S668      1.0  0.92182  0.46907  0.85062  1.0000
  C   C1668     1.0  0.78125  0.46832  0.95879  1.0000
  C   C1669     1.0  0.78655  0.44179  0.96087  1.0000
  C   C1670     1.0  0.88244  0.45481  0.82963  1.0000
  H   H2665     1.0  0.81154  0.46385  0.95144  1.0000
  C   C1671     1.0  0.74855  0.52130  0.92231  1.0000
  Fe  Fe339     1.0  0.78277  0.42551  0.88414  1.0000
  S   S669      1.0  0.77685  0.45008  0.87555  1.0000
  S   S670      1.0  0.80683  0.41348  0.87991  1.0000
  Fe  Fe340     1.0  0.75051  0.42372  0.89891  1.0000
  S   S671      1.0  0.74206  0.44819  0.89201  1.0000
  S   S672      1.0  0.73504  0.40848  0.91194  1.0000
  Fe  Fe341     1.0  0.75728  0.44557  0.87014  1.0000
  Fe  Fe342     1.0  0.76245  0.45022  0.89817  1.0000
  S   S673      1.0  0.76222  0.46586  0.91187  1.0000
  S   S674      1.0  0.76451  0.42080  0.87647  1.0000
  S   S675      1.0  0.76957  0.42590  0.90729  1.0000
  H   H2666     1.0  0.87841  0.43544  0.86536  1.0000
  C   C1672     1.0  0.74604  0.46451  0.92560  1.0000
  C   C1673     1.0  0.73257  0.46567  0.92160  1.0000
  C   C1674     1.0  0.71984  0.46336  0.93255  1.0000
  C   C1675     1.0  0.72041  0.46055  0.94751  1.0000
  C   C1676     1.0  0.73386  0.45951  0.95152  1.0000
  C   C1677     1.0  0.74671  0.46138  0.94056  1.0000
  H   H2667     1.0  0.79419  0.43192  0.95676  1.0000
  H   H2668     1.0  0.90613  0.43637  0.84085  1.0000
  H   H2669     1.0  0.73438  0.45753  0.96304  1.0000
  H   H2670     1.0  0.75711  0.46029  0.94371  1.0000
  C   C1678     1.0  0.68455  0.42664  0.91576  1.0000
  C   C1679     1.0  0.69010  0.41238  0.92346  1.0000
  C   C1680     1.0  0.70563  0.40676  0.92191  1.0000
  C   C1681     1.0  0.71564  0.41559  0.91318  1.0000
  C   C1682     1.0  0.71003  0.42988  0.90559  1.0000
  C   C1683     1.0  0.69453  0.43531  0.90667  1.0000
  H   H2671     1.0  0.71611  0.41414  0.98097  1.0000
  H   H2672     1.0  0.70984  0.39557  0.92761  1.0000
  H   H2673     1.0  0.71756  0.43672  0.89875  1.0000
  H   H2674     1.0  0.69025  0.44635  0.90071  1.0000
  C   C1684     1.0  0.83280  0.49131  0.94559  1.0000
  H   H2675     1.0  0.98820  0.43973  0.77438  1.0000
  C   C1685     1.0  0.84337  0.42763  0.87925  1.0000
  C   C1686     1.0  0.83400  0.41909  0.87821  1.0000
  C   C1687     1.0  0.81841  0.42389  0.88204  1.0000
  C   C1688     1.0  0.81224  0.43710  0.88727  1.0000
  H   H2676     1.0  0.85540  0.42371  0.87646  1.0000
  H   H2677     1.0  0.83883  0.40877  0.87440  1.0000
  H   H2678     1.0  0.80026  0.44054  0.89090  1.0000
  C   C1689     1.0  0.90732  0.48180  0.85928  1.0000
  H   H2679     1.0  0.70031  0.42492  0.86315  1.0000
  C   C1690     1.0  0.89624  0.47661  0.87087  1.0000
  H   H2680     1.0  0.80566  0.45271  0.96930  1.0000
  H   H2681     1.0  0.89713  0.46479  0.87495  1.0000
  C   C1691     1.0  0.91197  0.44930  0.78313  1.0000
  C   C1692     1.0  0.92388  0.43951  0.78909  1.0000
  C   C1693     1.0  0.93294  0.42803  0.78209  1.0000
  C   C1694     1.0  0.93044  0.42658  0.76883  1.0000
  C   C1695     1.0  0.91849  0.43634  0.76283  1.0000
  C   C1696     1.0  0.90908  0.44757  0.77014  1.0000
  H   H2682     1.0  0.92595  0.44057  0.79927  1.0000
  H   H2683     1.0  0.94200  0.42034  0.78688  1.0000
  H   H2684     1.0  0.72635  0.42900  0.95633  1.0000
  C   C1697     1.0  0.98567  0.51556  0.77156  1.0000
  H   H2685     1.0  0.72704  0.39637  0.94202  1.0000
  S   S676      1.0  0.70426  0.45873  0.96121  1.0000
  N   N165      1.0  0.88436  0.45100  0.84515  1.0000
  S   S677      1.0  0.70378  0.54071  0.98035  1.0000
  H   H2686     1.0  0.71469  0.41347  0.88293  1.0000
  H   H2687     1.0  0.79757  0.49096  0.96628  1.0000
  C   C1698     1.0  0.90054  0.44659  0.84533  1.0000
  H   H2688     1.0  0.79224  0.54142  0.93894  1.0000
  H   H2689     1.0  0.71806  0.44948  0.85611  1.0000
  H   H2690     1.0  0.90250  0.44448  0.85678  1.0000
  H   H2691     1.0  0.88807  0.44539  0.82388  1.0000
  S   S678      1.0  0.74952  0.45673  0.84892  1.0000
  H   H2692     1.0  0.89977  0.45506  0.76559  1.0000
  C   C1699     1.0  0.72676  0.39407  0.95408  1.0000
  N   N166      1.0  0.72323  0.42555  0.86123  1.0000
  H   H2693     1.0  0.78337  0.45859  0.93400  1.0000
  H   H2694     1.0  0.94976  0.46627  0.74467  1.0000
  S   S679      1.0  0.90585  0.48839  0.81592  1.0000
  H   H2695     1.0  0.79643  0.51947  0.96811  1.0000
  C   C1700     1.0  0.70536  0.41447  0.95785  1.0000
  H   H2696     1.0  0.81514  0.44411  0.95370  1.0000
  H   H2697     1.0  0.76990  0.46944  0.95688  1.0000
  C   C1701     1.0  0.89429  0.50716  0.86095  1.0000
  H   H2698     1.0  0.70936  0.43334  0.84502  1.0000
  H   H2699     1.0  0.80570  0.52400  0.94092  1.0000
  H   H2700     1.0  0.69798  0.40642  0.96304  1.0000
  H   H2701     1.0  0.91643  0.43513  0.75268  1.0000
  C   C1702     1.0  0.73045  0.41856  0.95203  1.0000
  C   C1703     1.0  0.79406  0.45772  0.93723  1.0000
  C   C1704     1.0  0.78713  0.50434  0.83636  1.0000
  C   C1705     1.0  0.68057  0.45619  0.93591  1.0000
  H   H2702     1.0  0.87494  0.48258  0.88544  1.0000
  H   H2703     1.0  0.73261  0.39967  0.97800  1.0000
  H   H2704     1.0  0.72710  0.59179  0.91739  1.0000
  H   H2705     1.0  0.77521  0.44275  0.95899  1.0000
  H   H2706     1.0  0.68245  0.40558  0.93043  1.0000
  H   H2707     1.0  0.70497  0.41801  0.94588  1.0000
  S   S680      1.0  0.84100  0.48946  0.98556  1.0000
  H   H2708     1.0  0.77472  0.51144  0.93174  1.0000
  H   H2709     1.0  0.94295  0.47847  0.75736  1.0000
  Fe  Fe343     1.0  0.83817  0.47461  0.88947  1.0000
  Fe  Fe344     1.0  0.84721  0.50317  0.88721  1.0000
  H   H2710     1.0  0.74084  0.41399  0.84609  1.0000
  C   C1706     1.0  0.67775  0.48226  0.93505  1.0000
  C   C1707     1.0  0.83719  0.44117  0.88383  1.0000
  H   H2711     1.0  0.86520  0.46800  0.85168  1.0000
  H   H2712     1.0  0.70828  0.44126  0.87400  1.0000
  C   C1708     1.0  0.82160  0.44582  0.88798  1.0000
  H   H2713     1.0  0.71389  0.41349  0.85134  1.0000
  C   C1709     1.0  0.90636  0.49709  0.85428  1.0000
  H   H2714     1.0  0.87786  0.46125  0.86403  1.0000
  H   H2715     1.0  0.73186  0.46872  0.91006  1.0000
  C   C1710     1.0  0.87731  0.46404  0.85207  1.0000
  H   H2716     1.0  0.88302  0.47339  0.84657  1.0000
  H   H2717     1.0  0.86487  0.44165  0.85383  1.0000
  S   S681      1.0  0.84592  0.48282  0.90540  1.0000
  H   H2718     1.0  0.73641  0.43392  0.84005  1.0000
  C   C1711     1.0  0.76827  0.56192  0.98195  1.0000
  H   H2719     1.0  0.74078  0.48028  0.82515  1.0000
  H   H2720     1.0  0.81674  0.45604  0.89185  1.0000
  C   C1712     1.0  0.87714  0.43858  0.85358  1.0000
  H   H2721     1.0  0.87038  0.45778  0.82902  1.0000
  H   H2722     1.0  0.78556  0.43948  0.97312  1.0000
  H   H2723     1.0  0.72783  0.44116  0.87092  1.0000
  S   S682      1.0  0.84922  0.45213  0.88398  1.0000
  C   C1713     1.0  0.77334  0.49462  0.86058  1.0000
  H   H2724     1.0  0.73399  0.41419  0.87963  1.0000
  H   H2725     1.0  0.88741  0.46441  0.82305  1.0000
  H   H2726     1.0  0.88205  0.42853  0.84868  1.0000
  H   H2727     1.0  0.70950  0.46431  0.92935  1.0000
  H   H2728     1.0  0.90644  0.45545  0.83844  1.0000
  H   H2729     1.0  0.68470  0.47980  0.94347  1.0000
  C   C1714     1.0  0.80676  0.45394  0.95716  1.0000
  H   H2730     1.0  0.74233  0.47497  0.87083  1.0000
  H   H2731     1.0  0.79480  0.50178  0.82587  1.0000
  H   H2732     1.0  0.80244  0.44835  0.93282  1.0000
  C   C1715     1.0  0.74200  0.47576  0.84816  1.0000
  C   C1716     1.0  0.72524  0.41334  0.87430  1.0000
  H   H2733     1.0  0.71434  0.39571  0.98214  1.0000
  C   C1717     1.0  0.72102  0.40417  0.97596  1.0000
  H   H2734     1.0  0.69921  0.50942  0.98361  1.0000
  H   H2735     1.0  0.73055  0.42160  0.93990  1.0000
  H   H2736     1.0  0.72876  0.40227  0.87125  1.0000
  C   C1718     1.0  0.81740  0.49185  0.94887  1.0000
  C   C1719     1.0  0.71911  0.43999  0.86578  1.0000
  C   C1720     1.0  0.73739  0.42465  0.84993  1.0000
  H   H2737     1.0  0.78399  0.49986  0.91846  1.0000
  N   N167      1.0  0.72090  0.40783  0.95996  1.0000
  S   S683      1.0  0.84139  0.49405  0.87081  1.0000
  Fe  Fe345     1.0  0.94763  0.47664  0.79654  1.0000
  H   H2738     1.0  0.76345  0.51480  0.89610  1.0000
  H   H2739     1.0  0.78487  0.47889  0.95319  1.0000
  N   N168      1.0  0.79214  0.45545  0.95350  1.0000
  H   H2740     1.0  0.79808  0.46806  0.93136  1.0000
  H   H2741     1.0  0.74675  0.42551  0.85438  1.0000
  H   H2742     1.0  0.77992  0.46718  0.97094  1.0000
  H   H2743     1.0  0.72153  0.48869  0.95316  1.0000
  C   C1721     1.0  0.73444  0.49731  0.85950  1.0000
  H   H2744     1.0  0.70037  0.42447  0.96285  1.0000
  C   C1722     1.0  0.98500  0.47195  0.78923  1.0000
  S   S684      1.0  0.71639  0.56777  0.98431  1.0000
  C   C1723     1.0  0.98203  0.47556  0.80311  1.0000
  C   C1724     1.0  0.83208  0.48931  0.97169  1.0000
  C   C1725     1.0  0.77740  0.48265  0.84014  1.0000
  H   H2745     1.0  0.74228  0.41394  0.95328  1.0000
  H   H2746     1.0  0.70578  0.49081  0.93545  1.0000
  S   S685      1.0  0.81373  0.48424  0.89729  1.0000
  H   H2747     1.0  0.68270  0.53109  0.96972  1.0000
  H   H2748     1.0  0.78525  0.47915  0.83011  1.0000
  H   H2749     1.0  0.77446  0.47246  0.84792  1.0000
  H   H2750     1.0  0.74723  0.52338  0.93355  1.0000
  C   C1726     1.0  0.81677  0.48943  0.97500  1.0000
  H   H2751     1.0  0.76693  0.48976  0.83667  1.0000
  H   H2752     1.0  0.77661  0.51202  0.83349  1.0000
  N   N169      1.0  0.67566  0.51198  0.98483  1.0000
  H   H2753     1.0  0.96994  0.45113  0.75822  1.0000
  H   H2754     1.0  0.75133  0.53130  0.91413  1.0000
  H   H2755     1.0  0.71964  0.38584  0.95966  1.0000
  H   H2756     1.0  0.76495  0.48461  0.92977  1.0000
  H   H2757     1.0  0.80345  0.48693  0.85625  1.0000
  C   C1727     1.0  0.69099  0.50268  0.98462  1.0000
  H   H2758     1.0  0.76285  0.50250  0.85788  1.0000
  C   C1728     1.0  0.73405  0.50037  0.83364  1.0000
  C   C1729     1.0  0.73896  0.48498  0.83477  1.0000
  H   H2759     1.0  0.96448  0.43984  0.74912  1.0000
  H   H2760     1.0  0.77829  0.50000  0.86649  1.0000
  H   H2761     1.0  0.80647  0.47782  0.84118  1.0000
  N   N170      1.0  0.00057  0.51852  0.76368  1.0000
  H   H2762     1.0  0.68539  0.48364  0.92392  1.0000
  H   H2763     1.0  0.97095  0.47620  0.81009  1.0000
  H   H2764     1.0  0.82951  0.53578  0.94813  1.0000
  C   C1730     1.0  0.88372  0.48668  0.87687  1.0000
  H   H2765     1.0  0.85201  0.48982  0.95439  1.0000
  C   C1731     1.0  0.80946  0.49069  0.96362  1.0000
  H   H2766     1.0  0.73744  0.52035  0.92131  1.0000
  H   H2767     1.0  0.81055  0.48854  0.98634  1.0000
  N   N171      1.0  0.78402  0.49067  0.84706  1.0000
  H   H2768     1.0  0.98935  0.40462  0.76365  1.0000
  H   H2769     1.0  0.73841  0.38872  0.95561  1.0000
  C   C1732     1.0  0.70689  0.50066  0.93802  1.0000
  C   C1733     1.0  0.84015  0.48995  0.95701  1.0000
  S   S686      1.0  0.97055  0.46929  0.78266  1.0000
  H   H2770     1.0  0.67481  0.44717  0.93711  1.0000
  H   H2771     1.0  0.88350  0.50400  0.77067  1.0000
  H   H2772     1.0  0.83902  0.49219  0.93424  1.0000
  S   S687      1.0  0.80766  0.49437  0.93481  1.0000
  Fe  Fe346     1.0  0.82170  0.49419  0.91171  1.0000
  C   C1734     1.0  0.97919  0.41363  0.76224  1.0000
  Fe  Fe347     1.0  0.81768  0.50450  0.87995  1.0000
  H   H2773     1.0  0.79255  0.51051  0.84095  1.0000
  H   H2774     1.0  0.77010  0.48464  0.86856  1.0000
  S   S688      1.0  0.67296  0.38725  0.98255  1.0000
  C   C1735     1.0  0.71592  0.49949  0.94788  1.0000
  N   N172      1.0  0.76023  0.50780  0.91983  1.0000
  H   H2775     1.0  0.96854  0.50251  0.75207  1.0000
  S   S689      1.0  0.82364  0.51539  0.89491  1.0000
  C   C1736     1.0  0.88933  0.52359  0.75542  1.0000
  C   C1737     1.0  0.69716  0.59906  0.91970  1.0000
  S   S690      1.0  0.86642  0.51461  0.87833  1.0000
  H   H2776     1.0  0.78294  0.53686  0.96623  1.0000
  C   C1738     1.0  0.70344  0.58915  0.89753  1.0000
  C   C1739     1.0  0.72308  0.59232  0.90729  1.0000
  H   H2777     1.0  0.82350  0.51889  0.95734  1.0000
  S   S691      1.0  0.80235  0.51541  0.86395  1.0000
  H   H2778     1.0  0.67810  0.56483  0.98585  1.0000
  H   H2779     1.0  0.69238  0.58609  0.90008  1.0000
  Fe  Fe348     1.0  0.72457  0.54925  0.88573  1.0000
  S   S692      1.0  0.72576  0.52547  0.88607  1.0000
  S   S693      1.0  0.74253  0.55591  0.89192  1.0000
  Fe  Fe349     1.0  0.69465  0.56041  0.87654  1.0000
  S   S694      1.0  0.69321  0.53781  0.87553  1.0000
  S   S695      1.0  0.67662  0.58063  0.87155  1.0000
  Fe  Fe350     1.0  0.70130  0.53059  0.89684  1.0000
  S   S696      1.0  0.69066  0.51576  0.91687  1.0000
  Fe  Fe351     1.0  0.71762  0.53488  0.86473  1.0000
  S   S697      1.0  0.72650  0.52591  0.84388  1.0000
  S   S698      1.0  0.70096  0.55340  0.89864  1.0000
  S   S699      1.0  0.71831  0.55838  0.86358  1.0000
  S   S700      1.0  0.75883  0.56648  0.96733  1.0000
  C   C1740     1.0  0.73179  0.50656  0.84597  1.0000
  Fe  Fe352     1.0  0.73883  0.55636  0.97269  1.0000
  C   C1741     1.0  0.70001  0.51457  0.93082  1.0000
  C   C1742     1.0  0.70159  0.52741  0.93407  1.0000
  C   C1743     1.0  0.71047  0.52625  0.94413  1.0000
  C   C1744     1.0  0.71795  0.51225  0.95073  1.0000
  H   H2780     1.0  0.96989  0.41103  0.77177  1.0000
  C   C1745     1.0  0.77748  0.57095  0.98224  1.0000
  S   S701      1.0  0.73023  0.55344  0.95416  1.0000
  H   H2781     1.0  0.84473  0.52505  0.82920  1.0000
  H   H2782     1.0  0.86546  0.50871  0.85026  1.0000
  H   H2783     1.0  0.89535  0.50595  0.78985  1.0000
  H   H2784     1.0  0.67953  0.51816  0.96099  1.0000
  C   C1746     1.0  0.70944  0.57326  0.92046  1.0000
  H   H2785     1.0  0.88236  0.50446  0.83687  1.0000
  H   H2786     1.0  0.86495  0.50243  0.83436  1.0000
  C   C1747     1.0  0.80377  0.53602  0.94089  1.0000
  H   H2787     1.0  0.99188  0.53618  0.74680  1.0000
  H   H2788     1.0  0.71174  0.58144  0.89076  1.0000
  N   N173      1.0  0.70827  0.58845  0.91123  1.0000
  H   H2789     1.0  0.79587  0.53291  0.97825  1.0000
  H   H2790     1.0  0.80408  0.55624  0.96507  1.0000
  H   H2791     1.0  0.71183  0.53619  0.94643  1.0000
  H   H2792     1.0  0.99343  0.54208  0.76253  1.0000
  Fe  Fe353     1.0  0.72700  0.53169  0.96909  1.0000
  H   H2793     1.0  0.89378  0.51895  0.85740  1.0000
  C   C1748     1.0  0.79472  0.53156  0.96743  1.0000
  H   H2794     1.0  0.88726  0.52928  0.83273  1.0000
  H   H2795     1.0  0.77808  0.51950  0.91227  1.0000
  C   C1749     1.0  0.82098  0.53095  0.95718  1.0000
  H   H2796     1.0  0.97713  0.42652  0.78480  1.0000
  C   C1750     1.0  0.78637  0.52817  0.87074  1.0000
  C   C1751     1.0  0.77366  0.53168  0.86460  1.0000
  C   C1752     1.0  0.76029  0.54058  0.87086  1.0000
  C   C1753     1.0  0.75972  0.54646  0.88294  1.0000
  C   C1754     1.0  0.77265  0.54371  0.88855  1.0000
  C   C1755     1.0  0.78593  0.53437  0.88258  1.0000
  H   H2797     1.0  0.77396  0.52729  0.85522  1.0000
  H   H2798     1.0  0.75040  0.54282  0.86634  1.0000
  H   H2799     1.0  0.77226  0.54836  0.89782  1.0000
  H   H2800     1.0  0.79576  0.53197  0.88718  1.0000
  H   H2801     1.0  0.73277  0.50204  0.86904  1.0000
  N   N174      1.0  0.80557  0.53820  0.95500  1.0000
  H   H2802     1.0  0.81067  0.55969  0.94527  1.0000
  Fe  Fe354     1.0  0.70763  0.56282  0.96704  1.0000
  H   H2803     1.0  0.81188  0.54076  0.93125  1.0000
  H   H2804     1.0  0.75038  0.50298  0.90435  1.0000
  H   H2805     1.0  0.73204  0.50751  0.82315  1.0000
  S   S702      1.0  0.94270  0.41268  0.75992  1.0000
  H   H2806     1.0  0.72266  0.60372  0.90035  1.0000
  H   H2807     1.0  0.68599  0.59608  0.92336  1.0000
  C   C1756     1.0  0.80277  0.55425  0.95457  1.0000
  S   S703      1.0  0.68952  0.57782  0.95549  1.0000
  H   H2808     1.0  0.88535  0.52051  0.81151  1.0000
  H   H2809     1.0  0.68832  0.45710  0.92485  1.0000
  S   S704      1.0  0.94034  0.49285  0.81177  1.0000
  H   H2810     1.0  0.71335  0.57234  0.93071  1.0000
  H   H2811     1.0  0.91734  0.49640  0.75675  1.0000
  H   H2812     1.0  0.73171  0.58448  0.90090  1.0000
  H   H2813     1.0  0.87096  0.53333  0.84708  1.0000
  C   C1757     1.0  0.88272  0.50197  0.87192  1.0000
  C   C1758     1.0  0.98619  0.42866  0.77486  1.0000
  S   S705      1.0  0.92946  0.48812  0.78391  1.0000
  C   C1759     1.0  0.87308  0.52546  0.81385  1.0000
  H   H2814     1.0  0.86754  0.51915  0.80954  1.0000
  C   C1760     1.0  0.87012  0.50944  0.83817  1.0000
  H   H2815     1.0  0.70227  0.60050  0.89039  1.0000
  H   H2816     1.0  0.69594  0.53823  0.92888  1.0000
  H   H2817     1.0  0.69564  0.61060  0.91301  1.0000
  H   H2818     1.0  0.87146  0.53705  0.80722  1.0000
  H   H2819     1.0  0.79115  0.56006  0.95313  1.0000
  H   H2820     1.0  0.68751  0.45254  0.94448  1.0000
  S   S706      1.0  0.91182  0.52665  0.79072  1.0000
  C   C1761     1.0  0.90227  0.52616  0.77753  1.0000
  H   H2821     1.0  0.75563  0.49655  0.94269  1.0000
  H   H2822     1.0  0.74537  0.49318  0.93114  1.0000
  H   H2823     1.0  0.84826  0.54316  0.82660  1.0000
  H   H2824     1.0  0.90969  0.48056  0.75932  1.0000
  H   H2825     1.0  0.69840  0.57005  0.92405  1.0000
  C   C1762     1.0  0.77489  0.50975  0.92061  1.0000
  Fe  Fe355     1.0  0.92088  0.50276  0.80037  1.0000
  C   C1763     1.0  0.87487  0.53369  0.83492  1.0000
  H   H2826     1.0  0.77786  0.58122  0.97411  1.0000
  Fe  Fe356     1.0  0.71107  0.45456  0.98277  1.0000
  C   C1764     1.0  0.85089  0.53142  0.83271  1.0000
  H   H2827     1.0  0.70065  0.59904  0.92995  1.0000
  C   C1765     1.0  0.89538  0.51437  0.77979  1.0000
  C   C1766     1.0  0.88864  0.51327  0.76890  1.0000
  C   C1767     1.0  0.76110  0.50511  0.90506  1.0000
  C   C1768     1.0  0.99886  0.53402  0.75514  1.0000
  H   H2828     1.0  0.71756  0.56489  0.91443  1.0000
  S   S707      1.0  0.73048  0.51046  0.96194  1.0000
  H   H2829     1.0  0.84622  0.53128  0.84476  1.0000
  H   H2830     1.0  0.82260  0.53204  0.96793  1.0000
  C   C1769     1.0  0.75639  0.49495  0.93138  1.0000
  H   H2831     1.0  0.99659  0.42016  0.77671  1.0000
  H   H2832     1.0  0.90730  0.54624  0.76274  1.0000
  H   H2833     1.0  0.77012  0.49525  0.90264  1.0000
  N   N175      1.0  0.98195  0.42837  0.76116  1.0000
  H   H2834     1.0  0.87277  0.54556  0.82908  1.0000
  C   C1770     1.0  0.90221  0.53700  0.76439  1.0000
  H   H2835     1.0  0.79622  0.47075  0.85921  1.0000
  H   H2836     1.0  0.91506  0.50111  0.84547  1.0000
  N   N176      1.0  0.86723  0.52501  0.82990  1.0000
  H   H2837     1.0  0.97834  0.51718  0.76363  1.0000
  H   H2838     1.0  0.99106  0.48103  0.81885  1.0000
  C   C1771     1.0  0.99347  0.47818  0.80811  1.0000
  H   H2839     1.0  0.93400  0.46350  0.75967  1.0000
  H   H2840     1.0  0.69497  0.49690  0.97515  1.0000
  H   H2841     1.0  0.89624  0.54374  0.74289  1.0000
  C   C1772     1.0  0.89600  0.53556  0.75318  1.0000
  H   H2842     1.0  0.97978  0.52302  0.77948  1.0000
  C   C1773     1.0  0.96815  0.43987  0.75925  1.0000
  C   C1774     1.0  0.91520  0.48895  0.75079  1.0000
  S   S708      1.0  0.73772  0.53355  0.98648  1.0000
  C   C1775     1.0  0.67546  0.52333  0.97088  1.0000
  C   C1776     1.0  0.99418  0.43144  0.74825  1.0000
  S   S709      1.0  0.72885  0.43451  0.98881  1.0000
  C   C1777     1.0  0.93938  0.47208  0.75132  1.0000
  H   H2843     1.0  0.92946  0.55575  0.74840  1.0000
  H   H2844     1.0  0.95876  0.43810  0.76889  1.0000
  H   H2845     1.0  0.97583  0.41317  0.75208  1.0000
  H   H2846     1.0  0.98663  0.50391  0.77804  1.0000
  H   H2847     1.0  0.67373  0.41713  0.98416  1.0000
  H   H2848     1.0  0.99642  0.44255  0.74706  1.0000
  H   H2849     1.0  0.90701  0.49579  0.74384  1.0000
  S   S710      1.0  0.71950  0.46990  0.99091  1.0000
  C   C1778     1.0  0.67304  0.57141  0.96403  1.0000
  C   C1779     1.0  0.67057  0.56478  0.97914  1.0000
  H   H2850     1.0  0.66957  0.56521  0.90244  1.0000
  N   N177      1.0  0.66967  0.47039  0.93744  1.0000
  H   H2851     1.0  0.67064  0.52291  0.89489  1.0000
  H   H2852     1.0  0.66987  0.49321  0.93585  1.0000
  H   H2853     1.0  0.00099  0.50948  0.74521  1.0000
  N   N178      1.0  0.92921  0.48191  0.74165  1.0000
  H   H2854     1.0  0.66850  0.49680  0.97674  1.0000
  H   H2855     1.0  0.95550  0.81154  0.48209  1.0000
  C   C1780     1.0  0.93296  0.72925  0.36049  1.0000
  S   S711      1.0  0.93790  0.69090  0.34774  1.0000
  S   S712      1.0  0.98855  0.75723  0.48793  1.0000
  H   H2856     1.0  0.68813  0.98144  0.44240  1.0000
  S   S713      1.0  0.96281  0.68167  0.37922  1.0000
  S   S714      1.0  0.91359  0.72392  0.47213  1.0000
  C   C1781     1.0  0.77873  0.89813  0.47397  1.0000
  Fe  Fe357     1.0  0.95607  0.67765  0.36007  1.0000
  S   S715      1.0  0.75321  0.91120  0.49147  1.0000
  C   C1782     1.0  0.93634  0.71414  0.36015  1.0000
  C   C1783     1.0  0.97177  0.70498  0.42592  1.0000
  C   C1784     1.0  0.92659  0.67813  0.32263  1.0000
  H   H2857     1.0  0.69525  0.95346  0.44766  1.0000
  C   C1785     1.0  0.98671  0.68805  0.44293  1.0000
  H   H2858     1.0  0.95511  0.73620  0.33492  1.0000
  C   C1786     1.0  0.81905  0.99009  0.45089  1.0000
  C   C1787     1.0  0.99741  0.79625  0.45013  1.0000
  H   H2859     1.0  0.71637  0.98484  0.39517  1.0000
  H   H2860     1.0  0.95498  0.66273  0.29713  1.0000
  Fe  Fe358     1.0  0.98632  0.67580  0.36628  1.0000
  H   H2861     1.0  0.86129  0.72391  0.44262  1.0000
  H   H2862     1.0  0.92177  0.67474  0.33468  1.0000
  H   H2863     1.0  0.66880  0.99068  0.44361  1.0000
  S   S716      1.0  0.66927  0.96732  0.33205  1.0000
  H   H2864     1.0  0.95043  0.69004  0.44272  1.0000
  H   H2865     1.0  0.93607  0.73276  0.36887  1.0000
  N   N179      1.0  0.87626  0.71496  0.45783  1.0000
  H   H2866     1.0  0.67270  0.95683  0.42940  1.0000
  H   H2867     1.0  0.99681  0.71705  0.30917  1.0000
  C   C1788     1.0  0.87349  0.71973  0.44258  1.0000
  C   C1789     1.0  0.99631  0.82618  0.49106  1.0000
  H   H2868     1.0  0.96683  0.67771  0.43482  1.0000
  C   C1790     1.0  0.87048  0.72771  0.46528  1.0000
  H   H2869     1.0  0.79568  0.95183  0.47019  1.0000
  N   N180      1.0  0.97128  0.69574  0.44109  1.0000
  N   N181      1.0  0.78859  0.93779  0.49111  1.0000
  H   H2870     1.0  0.99904  0.71988  0.36709  1.0000
  H   H2871     1.0  0.80904  0.92576  0.47934  1.0000
  H   H2872     1.0  0.85621  0.70654  0.46713  1.0000
  H   H2873     1.0  0.87777  0.71042  0.43656  1.0000
  H   H2874     1.0  0.95277  0.71146  0.45096  1.0000
  C   C1791     1.0  0.93214  0.70951  0.34949  1.0000
  C   C1792     1.0  0.98780  0.72721  0.31049  1.0000
  S   S717      1.0  0.97940  0.67358  0.34636  1.0000
  H   H2875     1.0  0.96022  0.70999  0.33212  1.0000
  H   H2876     1.0  0.87920  0.72888  0.43600  1.0000
  H   H2877     1.0  0.96238  0.67692  0.45440  1.0000
  C   C1793     1.0  0.99408  0.68975  0.48823  1.0000
  H   H2878     1.0  0.94216  0.70614  0.36818  1.0000
  C   C1794     1.0  0.95068  0.66236  0.32613  1.0000
  C   C1795     1.0  0.96424  0.73802  0.32502  1.0000
  C   C1796     1.0  0.98988  0.80645  0.43955  1.0000
  H   H2879     1.0  0.96902  0.74695  0.32614  1.0000
  H   H2880     1.0  0.89871  0.71851  0.45100  1.0000
  H   H2881     1.0  0.97101  0.71358  0.45085  1.0000
  C   C1797     1.0  0.96231  0.68463  0.44338  1.0000
  H   H2882     1.0  0.96033  0.71085  0.42403  1.0000
  H   H2883     1.0  0.77228  0.96225  0.41465  1.0000
  C   C1798     1.0  0.86856  0.70287  0.46632  1.0000
  H   H2884     1.0  0.96367  0.69863  0.46370  1.0000
  C   C1799     1.0  0.89256  0.70959  0.45718  1.0000
  H   H2885     1.0  0.98761  0.72704  0.33876  1.0000
  H   H2886     1.0  0.92079  0.71646  0.33120  1.0000
  S   S718      1.0  0.94954  0.72558  0.48198  1.0000
  H   H2887     1.0  0.97704  0.69816  0.41732  1.0000
  C   C1800     1.0  0.76534  0.99071  0.40114  1.0000
  C   C1801     1.0  0.97865  0.75538  0.42894  1.0000
  C   C1802     1.0  0.98234  0.71873  0.33712  1.0000
  H   H2888     1.0  0.97839  0.71358  0.42373  1.0000
  H   H2889     1.0  0.91734  0.68107  0.31654  1.0000
  C   C1803     1.0  0.92413  0.71998  0.33943  1.0000
  Fe  Fe359     1.0  0.92512  0.73400  0.48293  1.0000
  H   H2890     1.0  0.89503  0.70576  0.46853  1.0000
  H   H2891     1.0  0.97365  0.71624  0.34732  1.0000
  H   H2892     1.0  0.98517  0.85566  0.48777  1.0000
  C   C1804     1.0  0.96437  0.70527  0.45211  1.0000
  C   C1805     1.0  0.94559  0.67149  0.30148  1.0000
  N   N182      1.0  0.97584  0.72419  0.32369  1.0000
  H   H2893     1.0  0.95015  0.68145  0.29992  1.0000
  S   S719      1.0  0.81975  0.97543  0.38548  1.0000
  H   H2894     1.0  0.95651  0.75180  0.45305  1.0000
  H   H2895     1.0  0.73507  0.98553  0.42889  1.0000
  H   H2896     1.0  0.89734  0.70004  0.45151  1.0000
  N   N183      1.0  0.99373  0.83693  0.47718  1.0000
  H   H2897     1.0  0.79258  0.91950  0.48047  1.0000
  C   C1806     1.0  0.92086  0.73512  0.33969  1.0000
  H   H2898     1.0  0.93051  0.68844  0.32126  1.0000
  H   H2899     1.0  0.68088  0.94318  0.45311  1.0000
  C   C1807     1.0  0.67654  0.98048  0.44836  1.0000
  H   H2900     1.0  0.77953  0.94506  0.47134  1.0000
  S   S720      1.0  0.91094  0.83338  0.48777  1.0000
  H   H2901     1.0  0.99719  0.78350  0.37924  1.0000
  H   H2902     1.0  0.96431  0.78482  0.48306  1.0000
  H   H2903     1.0  0.77571  0.98175  0.42628  1.0000
  H   H2904     1.0  0.97744  0.70229  0.32075  1.0000
  H   H2905     1.0  0.99682  0.81464  0.49025  1.0000
  H   H2906     1.0  0.98685  0.68130  0.45439  1.0000
  C   C1808     1.0  0.79815  0.92394  0.48667  1.0000
  H   H2907     1.0  0.75810  0.98059  0.43884  1.0000
  C   C1809     1.0  0.96896  0.71278  0.32211  1.0000
  H   H2908     1.0  0.95425  0.73879  0.43294  1.0000
  Fe  Fe360     1.0  0.94060  0.83026  0.43643  1.0000
  H   H2909     1.0  0.96740  0.75900  0.42605  1.0000
  S   S721      1.0  0.95097  0.80821  0.42995  1.0000
  S   S722      1.0  0.94164  0.85330  0.42324  1.0000
  S   S723      1.0  0.91573  0.83569  0.44498  1.0000
  H   H2910     1.0  0.99399  0.69606  0.44067  1.0000
  H   H2911     1.0  0.93574  0.74471  0.39487  1.0000
  S   S724      1.0  0.94655  0.83364  0.45625  1.0000
  S   S725      1.0  0.71476  0.97229  0.45582  1.0000
  H   H2912     1.0  0.91441  0.92896  0.42303  1.0000
  C   C1810     1.0  0.99316  0.75286  0.44705  1.0000
  Fe  Fe361     1.0  0.72186  0.96532  0.37551  1.0000
  S   S726      1.0  0.73528  0.96363  0.35272  1.0000
  H   H2913     1.0  0.78093  0.93410  0.44370  1.0000
  Fe  Fe362     1.0  0.74462  0.94092  0.38993  1.0000
  S   S727      1.0  0.75967  0.93651  0.36826  1.0000
  S   S728      1.0  0.74953  0.92918  0.41227  1.0000
  Fe  Fe363     1.0  0.75532  0.96137  0.36182  1.0000
  H   H2914     1.0  0.92872  0.74385  0.44823  1.0000
  Fe  Fe364     1.0  0.73794  0.93921  0.36135  1.0000
  S   S729      1.0  0.73149  0.92817  0.34684  1.0000
  S   S730      1.0  0.74176  0.96567  0.38375  1.0000
  S   S731      1.0  0.72351  0.94095  0.38382  1.0000
  Fe  Fe365     1.0  0.94272  0.76262  0.35583  1.0000
  H   H2915     1.0  0.92196  0.91367  0.44623  1.0000
  H   H2916     1.0  0.96346  0.71667  0.31241  1.0000
  Fe  Fe366     1.0  0.95641  0.78532  0.36110  1.0000
  S   S732      1.0  0.97734  0.76849  0.36540  1.0000
  S   S733      1.0  0.95378  0.80869  0.36317  1.0000
  Fe  Fe367     1.0  0.97596  0.76055  0.34592  1.0000
  H   H2917     1.0  0.89458  0.88493  0.44643  1.0000
  C   C1811     1.0  0.87348  0.91463  0.41814  1.0000
  H   H2918     1.0  0.90569  0.78695  0.47877  1.0000
  S   S734      1.0  0.95625  0.77857  0.34047  1.0000
  S   S735      1.0  0.74471  0.95463  0.47927  1.0000
  C   C1812     1.0  0.78525  0.94905  0.47775  1.0000
  H   H2919     1.0  0.78884  0.89979  0.38895  1.0000
  S   S736      1.0  0.86421  0.93547  0.43560  1.0000
  C   C1813     1.0  0.80122  0.92363  0.38234  1.0000
  S   S737      1.0  0.77208  0.97532  0.35023  1.0000
  C   C1814     1.0  0.80554  0.98435  0.36241  1.0000
  Fe  Fe368     1.0  0.81432  0.93324  0.43087  1.0000
  C   C1815     1.0  0.78044  0.92409  0.45217  1.0000
  Fe  Fe369     1.0  0.91710  0.85918  0.43375  1.0000
  H   H2920     1.0  0.88215  0.89865  0.40401  1.0000
  H   H2921     1.0  0.93251  0.89481  0.44679  1.0000
  H   H2922     1.0  0.97490  0.84717  0.42824  1.0000
  H   H2923     1.0  0.80689  0.91599  0.37455  1.0000
  C   C1816     1.0  0.69157  0.95818  0.34799  1.0000
  S   S738      1.0  0.99563  0.75605  0.32723  1.0000
  C   C1817     1.0  0.70531  0.94947  0.35122  1.0000
  C   C1818     1.0  0.71394  0.93871  0.34303  1.0000
  C   C1819     1.0  0.70858  0.93663  0.33160  1.0000
  H   H2924     1.0  0.96709  0.75058  0.46652  1.0000
  H   H2925     1.0  0.68287  0.95350  0.46542  1.0000
  H   H2926     1.0  0.70909  0.95111  0.36018  1.0000
  H   H2927     1.0  0.71517  0.92836  0.32522  1.0000
  S   S739      1.0  0.80722  0.91172  0.43612  1.0000
  H   H2928     1.0  0.71213  0.97218  0.42672  1.0000
  H   H2929     1.0  0.98303  0.74349  0.42818  1.0000
  Fe  Fe370     1.0  0.94531  0.85720  0.44396  1.0000
  H   H2930     1.0  0.88069  0.90944  0.45235  1.0000
  C   C1820     1.0  0.69484  0.94543  0.32828  1.0000
  C   C1821     1.0  0.72746  0.95244  0.42079  1.0000
  S   S740      1.0  0.83050  0.96790  0.42249  1.0000
  S   S741      1.0  0.90096  0.87370  0.41941  1.0000
  C   C1822     1.0  0.74084  0.93648  0.43955  1.0000
  H   H2931     1.0  0.94662  0.83251  0.40464  1.0000
  C   C1823     1.0  0.73831  0.93986  0.42516  1.0000
  H   H2932     1.0  0.74890  0.92652  0.44315  1.0000
  H   H2933     1.0  0.72460  0.95457  0.41012  1.0000
  H   H2934     1.0  0.85823  0.73217  0.46587  1.0000
  H   H2935     1.0  0.98328  0.73139  0.30017  1.0000
  H   H2936     1.0  0.98528  0.81394  0.34868  1.0000
  C   C1824     1.0  0.95408  0.78281  0.49156  1.0000
  H   H2937     1.0  0.96019  0.77733  0.44284  1.0000
  C   C1825     1.0  0.78556  0.96545  0.37454  1.0000
  C   C1826     1.0  0.79633  0.96528  0.38231  1.0000
  C   C1827     1.0  0.93013  0.74411  0.43662  1.0000
  H   H2938     1.0  0.99316  0.73582  0.31138  1.0000
  H   H2939     1.0  0.77778  0.95821  0.37921  1.0000
  C   C1828     1.0  0.73306  0.94609  0.44926  1.0000
  C   C1829     1.0  0.95222  0.80865  0.41124  1.0000
  C   C1830     1.0  0.95549  0.79524  0.40661  1.0000
  C   C1831     1.0  0.95554  0.79526  0.39196  1.0000
  C   C1832     1.0  0.95277  0.80872  0.38175  1.0000
  C   C1833     1.0  0.94968  0.82215  0.38632  1.0000
  C   C1834     1.0  0.94925  0.82212  0.40112  1.0000
  H   H2940     1.0  0.95774  0.78482  0.41439  1.0000
  H   H2941     1.0  0.95795  0.78483  0.38855  1.0000
  H   H2942     1.0  0.94750  0.83257  0.37847  1.0000
  N   N184      1.0  0.90883  0.79814  0.42685  1.0000
  C   C1835     1.0  0.89921  0.79362  0.41977  1.0000
  C   C1836     1.0  0.91381  0.81149  0.41717  1.0000
  C   C1837     1.0  0.92205  0.78588  0.42906  1.0000
  C   C1838     1.0  0.90027  0.80152  0.44140  1.0000
  H   H2943     1.0  0.89518  0.78361  0.42681  1.0000
  H   H2944     1.0  0.90542  0.79082  0.40885  1.0000
  H   H2945     1.0  0.88915  0.80262  0.41784  1.0000
  H   H2946     1.0  0.92071  0.80923  0.40624  1.0000
  H   H2947     1.0  0.90413  0.82089  0.41499  1.0000
  H   H2948     1.0  0.92077  0.81543  0.42235  1.0000
  H   H2949     1.0  0.92977  0.78906  0.43401  1.0000
  H   H2950     1.0  0.92856  0.78273  0.41836  1.0000
  H   H2951     1.0  0.91865  0.77578  0.43661  1.0000
  H   H2952     1.0  0.89031  0.81087  0.44016  1.0000
  H   H2953     1.0  0.90730  0.80478  0.44709  1.0000
  H   H2954     1.0  0.89618  0.79173  0.44894  1.0000
  C   C1839     1.0  0.78805  0.92602  0.40725  1.0000
  C   C1840     1.0  0.94464  0.74126  0.42796  1.0000
  H   H2955     1.0  0.94144  0.92257  0.42521  1.0000
  H   H2956     1.0  0.95202  0.90370  0.42605  1.0000
  C   C1841     1.0  0.88899  0.89326  0.43840  1.0000
  H   H2957     1.0  0.79695  0.95785  0.39294  1.0000
  H   H2958     1.0  0.94715  0.91474  0.40889  1.0000
  C   C1842     1.0  0.94299  0.91229  0.42114  1.0000
  H   H2959     1.0  0.81613  0.90938  0.40439  1.0000
  Fe  Fe371     1.0  0.81010  0.96287  0.43922  1.0000
  C   C1843     1.0  0.88100  0.90709  0.44180  1.0000
  H   H2960     1.0  0.75526  0.96524  0.40849  1.0000
  Fe  Fe372     1.0  0.90202  0.74731  0.46421  1.0000
  Fe  Fe373     1.0  0.82147  0.95990  0.40742  1.0000
  C   C1844     1.0  0.87324  0.91782  0.43166  1.0000
  C   C1845     1.0  0.97975  0.86395  0.43626  1.0000
  C   C1846     1.0  0.88966  0.89025  0.42467  1.0000
  H   H2961     1.0  0.99323  0.82252  0.35825  1.0000
  C   C1847     1.0  0.70483  0.98998  0.39895  1.0000
  C   C1848     1.0  0.92396  0.90370  0.44150  1.0000
  S   S742      1.0  0.94068  0.77139  0.37594  1.0000
  H   H2962     1.0  0.98186  0.79418  0.37066  1.0000
  H   H2963     1.0  0.73648  0.98845  0.40927  1.0000
  C   C1849     1.0  0.91966  0.74792  0.41507  1.0000
  H   H2964     1.0  0.69085  0.94387  0.31935  1.0000
  S   S743      1.0  0.80054  0.95597  0.42379  1.0000
  H   H2965     1.0  0.94061  0.88462  0.42385  1.0000
  H   H2966     1.0  0.98612  0.76188  0.42017  1.0000
  C   C1850     1.0  0.97897  0.83722  0.47456  1.0000
  C   C1851     1.0  0.88174  0.90091  0.41463  1.0000
  H   H2967     1.0  0.87225  0.72448  0.47687  1.0000
  N   N185      1.0  0.92889  0.90706  0.42516  1.0000
  N   N186      1.0  0.67308  0.96687  0.44692  1.0000
  C   C1852     1.0  0.80632  0.97480  0.37621  1.0000
  H   H2968     1.0  0.82541  0.97899  0.44991  1.0000
  H   H2969     1.0  0.97669  0.84522  0.46417  1.0000
  Fe  Fe374     1.0  0.84140  0.94392  0.42979  1.0000
  C   C1853     1.0  0.93151  0.89348  0.41944  1.0000
  H   H2970     1.0  0.87268  0.69301  0.46109  1.0000
  H   H2971     1.0  0.77876  0.90214  0.40734  1.0000
  H   H2972     1.0  0.97845  0.82617  0.47334  1.0000
  H   H2973     1.0  0.73483  0.94326  0.46042  1.0000
  S   S744      1.0  0.92090  0.86473  0.45358  1.0000
  Fe  Fe375     1.0  0.92170  0.84067  0.46394  1.0000
  C   C1854     1.0  0.92557  0.73979  0.35001  1.0000
  H   H2974     1.0  0.93476  0.89564  0.40712  1.0000
  S   S745      1.0  0.82172  0.93958  0.44819  1.0000
  C   C1855     1.0  0.72319  0.95933  0.44442  1.0000
  S   S746      1.0  0.91554  0.75752  0.47296  1.0000
  C   C1856     1.0  0.80749  0.90418  0.40321  1.0000
  H   H2975     1.0  0.90651  0.91486  0.42104  1.0000
  S   S747      1.0  0.96100  0.87084  0.44439  1.0000
  C   C1857     1.0  0.98356  0.85207  0.42908  1.0000
  C   C1858     1.0  0.78388  0.90803  0.39620  1.0000
  Fe  Fe376     1.0  0.72060  0.96189  0.47794  1.0000
  H   H2976     1.0  0.99204  0.68028  0.43522  1.0000
  N   N187      1.0  0.79516  0.91547  0.39724  1.0000
  H   H2977     1.0  0.86767  0.92290  0.41018  1.0000
  S   S748      1.0  0.83453  0.93638  0.41283  1.0000
  S   S749      1.0  0.96258  0.74396  0.35987  1.0000
  C   C1859     1.0  0.79078  0.89822  0.46167  1.0000
  C   C1860     1.0  0.68634  0.95626  0.33646  1.0000
  C   C1861     1.0  0.72020  0.96233  0.43027  1.0000
  H   H2978     1.0  0.91331  0.89980  0.44496  1.0000
  C   C1862     1.0  0.78501  0.97493  0.36058  1.0000
  Fe  Fe377     1.0  0.96169  0.75389  0.37884  1.0000
  C   C1863     1.0  0.90789  0.80756  0.48221  1.0000
  H   H2979     1.0  0.77908  0.93500  0.40280  1.0000
  C   C1864     1.0  0.76820  0.92381  0.46419  1.0000
  H   H2980     1.0  0.79952  0.88827  0.46068  1.0000
  S   S750      1.0  0.96705  0.66243  0.48675  1.0000
  H   H2981     1.0  0.91508  0.74327  0.33161  1.0000
  H   H2982     1.0  0.97235  0.77595  0.45492  1.0000
  H   H2983     1.0  0.98759  0.81230  0.41672  1.0000
  H   H2984     1.0  0.92126  0.88892  0.42271  1.0000
  H   H2985     1.0  0.92059  0.92174  0.40629  1.0000
  C   C1865     1.0  0.99603  0.81409  0.35128  1.0000
  C   C1866     1.0  0.91713  0.91869  0.41859  1.0000
  H   H2986     1.0  0.73384  0.99044  0.47711  1.0000
  H   H2987     1.0  0.98816  0.87933  0.44294  1.0000
  H   H2988     1.0  0.79640  0.93126  0.40892  1.0000
  H   H2989     1.0  0.80324  0.89782  0.41445  1.0000
  S   S751      1.0  0.79429  0.98062  0.45087  1.0000
  N   N188      1.0  0.97795  0.75766  0.44385  1.0000
  C   C1867     1.0  0.76013  0.96757  0.41677  1.0000
  H   H2990     1.0  0.95894  0.74239  0.31519  1.0000
  C   C1868     1.0  0.68345  0.95366  0.45357  1.0000
  H   H2991     1.0  0.79215  0.93202  0.37739  1.0000
  H   H2992     1.0  0.75489  0.96185  0.42791  1.0000
  H   H2993     1.0  0.76148  0.98869  0.39198  1.0000
  H   H2994     1.0  0.87619  0.73698  0.45931  1.0000
  C   C1869     1.0  0.90311  0.79408  0.48656  1.0000
  S   S752      1.0  0.69866  0.97985  0.37778  1.0000
  H   H2995     1.0  0.97249  0.73673  0.45561  1.0000
  H   H2996     1.0  0.91438  0.81062  0.47117  1.0000
  C   C1870     1.0  0.93420  0.74487  0.40645  1.0000
  H   H2997     1.0  0.96965  0.84056  0.48377  1.0000
  H   H2998     1.0  0.80954  0.92964  0.38281  1.0000
  N   N189      1.0  0.75756  0.98370  0.41584  1.0000
  C   C1871     1.0  0.97201  0.77357  0.44425  1.0000
  C   C1872     1.0  0.99250  0.79466  0.37298  1.0000
  H   H2999     1.0  0.97860  0.78072  0.43520  1.0000
  H   H3000     1.0  0.77450  0.91617  0.39158  1.0000
  N   N190      1.0  0.93900  0.66625  0.31727  1.0000
  H   H3001     1.0  0.94569  0.78209  0.48572  1.0000
  S   S753      1.0  0.99137  0.79718  0.46891  1.0000
  C   C1873     1.0  0.76748  0.91101  0.47535  1.0000
  H   H3002     1.0  0.98957  0.80261  0.38051  1.0000
  H   H3003     1.0  0.99624  0.78820  0.34595  1.0000
  S   S754      1.0  0.92368  0.75876  0.34870  1.0000
  H   H3004     1.0  0.98058  0.81528  0.44285  1.0000
  C   C1874     1.0  0.79176  0.91130  0.45095  1.0000
  H   H3005     1.0  0.75925  0.93344  0.46463  1.0000
  H   H3006     1.0  0.78276  0.92033  0.41843  1.0000
  H   H3007     1.0  0.81319  0.89605  0.39593  1.0000
  S   S755      1.0  0.88277  0.74777  0.48374  1.0000
  C   C1875     1.0  0.99107  0.87011  0.43741  1.0000
  H   H3008     1.0  0.99115  0.70832  0.33646  1.0000
  C   C1876     1.0  0.94502  0.80911  0.48990  1.0000
  H   H3009     1.0  0.93710  0.67453  0.29446  1.0000
  S   S756      1.0  0.96465  0.74088  0.40156  1.0000
  C   C1877     1.0  0.94666  0.74212  0.41277  1.0000
  C   C1878     1.0  0.67477  0.96710  0.43103  1.0000
  H   H3010     1.0  0.95522  0.67213  0.32536  1.0000
  H   H3011     1.0  0.77820  0.88812  0.48248  1.0000
  H   H3012     1.0  0.68627  0.96808  0.42463  1.0000
  H   H3013     1.0  0.68509  0.96636  0.35448  1.0000
  H   H3014     1.0  0.91005  0.75048  0.41002  1.0000
  H   H3015     1.0  0.99824  0.74102  0.44639  1.0000
  C   C1879     1.0  0.96806  0.74883  0.45520  1.0000
  H   H3016     1.0  0.99307  0.75390  0.45836  1.0000
  C   C1880     1.0  0.91763  0.74777  0.43011  1.0000
  C   C1881     1.0  0.00119  0.70101  0.47893  1.0000
  S   S757      1.0  0.89954  0.75253  0.44074  1.0000
  H   H3017     1.0  0.79462  0.99168  0.34383  1.0000
  H   H3018     1.0  0.67567  0.98066  0.46016  1.0000
  H   H3019     1.0  0.93711  0.80928  0.48310  1.0000
  H   H3020     1.0  0.77786  0.95960  0.48067  1.0000
  H   H3021     1.0  0.71361  0.98927  0.34780  1.0000
  S   S758      1.0  0.71467  0.94041  0.49081  1.0000
  C   C1882     1.0  0.74130  0.99036  0.41783  1.0000
  H   H3022     1.0  0.98928  0.68350  0.48357  1.0000
  C   C1883     1.0  0.69371  0.98899  0.39247  1.0000
  C   C1884     1.0  0.76339  0.98618  0.42765  1.0000
  H   H3023     1.0  0.87052  0.69914  0.47790  1.0000
  C   C1885     1.0  0.99390  0.80480  0.42474  1.0000
  H   H3024     1.0  0.77770  0.98626  0.39939  1.0000
  C   C1886     1.0  0.99862  0.84654  0.42283  1.0000
  H   H3025     1.0  0.99216  0.86024  0.46808  1.0000
  C   C1887     1.0  0.99403  0.85189  0.47842  1.0000
  C   C1888     1.0  0.79499  0.98436  0.35460  1.0000
  H   H3026     1.0  0.81324  0.99168  0.35762  1.0000
  H   H3027     1.0  0.00068  0.75977  0.43915  1.0000
  Fe  Fe378     1.0  0.00034  0.77553  0.48321  1.0000
  C   C1889     1.0  0.92488  0.69141  0.53216  1.0000
  H   H3028     1.0  0.92657  0.68008  0.53012  1.0000
  H   H3029     1.0  0.77645  0.92598  0.51105  1.0000
  H   H3030     1.0  0.94735  0.71466  0.52925  1.0000
  H   H3031     1.0  0.95182  0.67393  0.53697  1.0000
  H   H3032     1.0  0.88154  0.67528  0.50833  1.0000
  C   C1890     1.0  0.94899  0.68543  0.53894  1.0000
  S   S759      1.0  0.88857  0.77330  0.50709  1.0000
  H   H3033     1.0  0.93085  0.71175  0.54317  1.0000
  C   C1891     1.0  0.93662  0.71103  0.53152  1.0000
  Fe  Fe379     1.0  0.73758  0.96324  0.49997  1.0000
  C   C1892     1.0  0.94589  0.74753  0.51395  1.0000
  H   H3034     1.0  0.68705  0.97617  0.53942  1.0000
  C   C1893     1.0  0.89129  0.79947  0.51087  1.0000
  H   H3035     1.0  0.93763  0.75589  0.51927  1.0000
  H   H3036     1.0  0.95984  0.68874  0.53703  1.0000
  H   H3037     1.0  0.94352  0.68509  0.55083  1.0000
  N   N191      1.0  0.93933  0.69584  0.52902  1.0000
  C   C1894     1.0  0.94690  0.69552  0.51340  1.0000
  H   H3038     1.0  0.95495  0.80348  0.51506  1.0000
  C   C1895     1.0  0.90384  0.66136  0.50682  1.0000
  C   C1896     1.0  0.67417  0.95230  0.51856  1.0000
  H   H3039     1.0  0.91727  0.69918  0.52495  1.0000
  H   H3040     1.0  0.91888  0.69137  0.54388  1.0000
  Fe  Fe380     1.0  0.70992  0.95077  0.51048  1.0000
  H   H3041     1.0  0.93970  0.70280  0.50562  1.0000
  H   H3042     1.0  0.92953  0.71924  0.52411  1.0000
  H   H3043     1.0  0.72060  0.98729  0.54837  1.0000
  H   H3044     1.0  0.94985  0.68410  0.51127  1.0000
  C   C1897     1.0  0.89340  0.67501  0.50610  1.0000
  H   H3045     1.0  0.88482  0.79644  0.52197  1.0000
  S   S760      1.0  0.98255  0.67430  0.51577  1.0000
  S   S761      1.0  0.71383  0.97300  0.49728  1.0000
  H   H3046     1.0  0.91745  0.69805  0.49699  1.0000
  H   H3047     1.0  0.98211  0.72839  0.51225  1.0000
  C   C1898     1.0  0.95920  0.79468  0.50842  1.0000
  Fe  Fe381     1.0  0.98848  0.75518  0.51178  1.0000
  H   H3048     1.0  0.95716  0.77182  0.49889  1.0000
  Fe  Fe382     1.0  0.89544  0.72490  0.49244  1.0000
  C   C1899     1.0  0.94256  0.74237  0.50307  1.0000
  C   C1900     1.0  0.73477  0.98217  0.52776  1.0000
  C   C1901     1.0  0.74246  0.98797  0.51366  1.0000
  H   H3049     1.0  0.79916  0.93534  0.50916  1.0000
  C   C1902     1.0  0.79649  0.94352  0.49898  1.0000
  H   H3050     1.0  0.95756  0.69939  0.51042  1.0000
  C   C1903     1.0  0.67383  0.96244  0.50500  1.0000
  S   S762      1.0  0.73323  0.94185  0.51492  1.0000
  S   S763      1.0  0.96626  0.75254  0.52649  1.0000
  C   C1904     1.0  0.72625  0.99174  0.53730  1.0000
  H   H3051     1.0  0.68271  0.96838  0.49999  1.0000
  C   C1905     1.0  0.91921  0.66087  0.50397  1.0000
  N   N192      1.0  0.94807  0.79464  0.50020  1.0000
  C   C1906     1.0  0.96030  0.74277  0.51698  1.0000
  H   H3052     1.0  0.80063  0.91507  0.49649  1.0000
  H   H3053     1.0  0.97584  0.71869  0.49370  1.0000
  H   H3054     1.0  0.78949  0.95400  0.50241  1.0000
  C   C1907     1.0  0.91363  0.68785  0.49969  1.0000
  C   C1908     1.0  0.69106  0.98669  0.53481  1.0000
  H   H3055     1.0  0.73561  0.97031  0.53140  1.0000
  S   S764      1.0  0.68879  0.94950  0.52769  1.0000
  S   S765      1.0  0.75285  0.97640  0.50151  1.0000
  C   C1909     1.0  0.89478  0.79003  0.50094  1.0000
  C   C1910     1.0  0.92410  0.67414  0.50048  1.0000
  H   H3056     1.0  0.93175  0.74683  0.50010  1.0000
  C   C1911     1.0  0.77442  0.93471  0.50101  1.0000
  H   H3057     1.0  0.93622  0.78155  0.51927  1.0000
  H   H3058     1.0  0.70106  0.98447  0.52579  1.0000
  C   C1912     1.0  0.93406  0.79199  0.51080  1.0000
  H   H3059     1.0  0.69489  0.98922  0.54371  1.0000
  S   S766      1.0  0.88492  0.70523  0.50127  1.0000
  C   C1913     1.0  0.89826  0.68828  0.50247  1.0000
  C   C1914     1.0  0.97096  0.73208  0.50994  1.0000
  C   C1915     1.0  0.89614  0.81281  0.50660  1.0000
  H   H3060     1.0  0.89342  0.81998  0.51443  1.0000
  S   S767      1.0  0.90810  0.73275  0.50430  1.0000
  H   H3061     1.0  0.93592  0.67385  0.49834  1.0000
  H   H3062     1.0  0.92860  0.80126  0.51677  1.0000
  H   H3063     1.0  0.92574  0.79096  0.50506  1.0000
  H   H3064     1.0  0.96188  0.78387  0.51627  1.0000
  H   H3065     1.0  0.76702  0.94484  0.50480  1.0000
  H   H3066     1.0  0.96991  0.79661  0.50072  1.0000
  C   C1916     1.0  0.90440  0.81693  0.49229  1.0000
  C   C1917     1.0  0.99265  0.68710  0.50364  1.0000
  C   C1918     1.0  0.96751  0.72670  0.49933  1.0000
  H   H3067     1.0  0.76804  0.93073  0.49527  1.0000
  Fe  Fe383     1.0  0.89740  0.75577  0.49348  1.0000
  H   H3068     1.0  0.98727  0.82890  0.50071  1.0000
  H   H3069     1.0  0.67016  0.98458  0.52206  1.0000
  H   H3070     1.0  0.93988  0.81836  0.49594  1.0000
  C   C1919     1.0  0.95344  0.73198  0.49572  1.0000
  Fe  Fe384     1.0  0.73847  0.93373  0.49371  1.0000
  H   H3071     1.0  0.99785  0.69310  0.52152  1.0000
  S   S768      1.0  0.99824  0.77503  0.50712  1.0000
  C   C1920     1.0  0.99883  0.69521  0.50963  1.0000
  H   H3072     1.0  0.80722  0.94603  0.49177  1.0000
