data_image0
_chemical_formula_structural       H4CHNCH4CH2CSHCHCH2NC2FeHSC2H2SH6SFeSHFeS2FeCS2FeHS2FeSHSFeSFeSCS3FeSFeS3FeSFeSC6H4C6HSH2C6H4C6H4FeHCFeC2HCHC4H5CSC2H2NFeHC2S2H6CH10C3HFeHSHSCH4C3FeCH4C3FeHCFeH5CSCNHSH6C2H3SCH5SH4CHC4HNC2H5CHCH3CH3CHNCS3NHCH2CHNH2CH7SH2FeC3H2SH4CFeHCNHC2HSHCHCH4CH4NH4SH5CSHCH2C2HCHCH4CNH2FeC3SHCH2CHCH2CSC2HCH3SH2C2HSCH2CSHNH2CSFeS2H2CHFe2S2HFeS2FeS2FeSFeS3H2FeSC6H5SC2H5C6H4C6H4SH2CHNH3CHCH3NC4H6C3HC2HSFeHSC2H2C2SCH6CH3CH2NHFeHNH4C2HCHFeHFeCHFeHCH2S4H2FeH3CH2C2HCHCHCHNC4H5CH3CH3CHNCHC2HCH2CFeSH5CHCHSH2NFeSCH4FeSCHFeS2FeS2FeSFeS3HSFeSC6H6C3H4C6H4C6H7FeC2FeCS2H3CH5CNCH4NSCH3SCN2C3H9CHCHCHSCH3SH3C2HFeCFeH2C2HC3H2SHCH5C3FeSCHCH2CH2C2HCHSH2CS2H3CHCH4NCH4CHCH3Fe2S3HSHFeSFeS2FeS2FeSFeS3FeSCHSC6H4CHFeCSCHC6H4C6H4CSC3HCHSH3NC4H9NC2HCH3SCH4SH6CH3CHFeH2NH2CH2FeH2CH4CH2CHFeC2H2C2H2CNCSFeCH3FeHC2H2CH5C2NCH2CNHC3SCH3CH3CSHNH2CHSC2H2SHCFeNFeSFeS2FeS2FeSFeS3H4FeSC6H4C5H2C6H4C6H4CHC2FeHFeH3C2H2NC2H8CNH2C3HSCH4SH4CH3NC3H7CH4SH4CH2SCH3SFeH2CHFeCFeH2SHSNHSH3C2H2CSH2C2HCSCSH3CHCH2NC2HCH6SHCH2SHCH2CHC3FeH2CHCHCHSHC2H2CHNHCFeS2HCHS2FeS2FeS2FeS2FeSFeS3C6H3C6H4C6H4SH2SC2FeH2C7H6CH2C3H6FeH3CH2N2C4H10C2HC2HNCNH2CFeH4CHCHFeCHC2H2CH3CH3SH3FeS3H3SH5SCHCH2CHCHCH2CH3NH3CSFeS2C3HCFeSH2SHFeS2FeS2FeSFeS3H2C3HCH3C6H4C6H4CHCHNS2NHC7H6CH5NC4H10C2HCH2C2SFeSH2CFeCH3FeCNCH3SH2NCHNH5SCH2CSC3H3CH2CH2SHFeCFeC2HS2H5SH2CH2FeH4FeH7CNH2CH2CH3FeHS2HCH3FeS2FeS2FeSFeS3HSFeSC6H4C6H4C5HCHC2H2CHCH2CH4CHC6H2C2HSH3CNC2HSC2NH2SHNHSH4CH4CHSH3NC2HCH3SNC4H5CH8CH8C2HNSH3CH5S2HFeHCH2CHSHSC2H5C2HSC4H2SHCH4FeCHC2SH6FeSHFeSCFeS2FeS2FeSFeS3CSC6H4SC5H4C6H8C6H4CH2FeC2H2CHSH3NHCHC3HCH2NH2FeHCNC4H15CHCH3SHNC4H5SH2NCSCSFeSHC3H2FeCSH4SHCHC2HNHC2H8CSH2CH2CH10CNC2HCSHCHC2S3H2C2HSH4NCHCSH4FeSFeSCHSFeSFeS2HSFeSFeH3SFeSFeSFeCS2Fe3S3FeC2HC3HCHSC6H2C6H2C6HSHCSHCSH3CHNH5CH3CH4CHCSHCNH2FeH3C4HCSCFeCFeH2CHCSCHC3H2CH2C4H2CHC2H4CSHCHS2HCHCH4SHCHCHFeH3CH3SHFe2HCHCHCHNS2H3CHCH2CH2CSCHNC2HCHCHC4H4FeHFeSNHCH2S2HS2CH3SFeH4CNCHSHS2HCHC2HCHCH7SFe2SFeSH2NCHSH3CHCH5NH2C4H7SH2FeH2
_chemical_formula_sum              "H1152 C720 N72 S288 Fe144"
_cell_length_a       63.3803
_cell_length_b       63.1568
_cell_length_c       63.0958
_cell_angle_alpha    88.2298
_cell_angle_beta     88.1489
_cell_angle_gamma    87.8307

_space_group_name_H-M_alt    "P 1"
_space_group_IT_number       1

loop_
  _space_group_symop_operation_xyz
  'x, y, z'

loop_
  _atom_site_type_symbol
  _atom_site_label
  _atom_site_symmetry_multiplicity
  _atom_site_fract_x
  _atom_site_fract_y
  _atom_site_fract_z
  _atom_site_occupancy
  H   H1        1.0  0.17469  0.26145  0.46656  1.0000
  H   H2        1.0  0.18490  0.29811  0.50957  1.0000
  H   H3        1.0  0.17173  0.31848  0.47856  1.0000
  H   H4        1.0  0.14011  0.28072  0.51132  1.0000
  C   C1        1.0  0.16036  0.26665  0.47599  1.0000
  H   H5        1.0  0.18338  0.29923  0.46126  1.0000
  N   N1        1.0  0.16382  0.28658  0.48682  1.0000
  C   C2        1.0  0.16882  0.30338  0.47084  1.0000
  H   H6        1.0  0.15560  0.30664  0.45985  1.0000
  H   H7        1.0  0.13076  0.29590  0.48862  1.0000
  H   H8        1.0  0.14704  0.26858  0.46493  1.0000
  H   H9        1.0  0.17854  0.27079  0.51361  1.0000
  C   C3        1.0  0.18167  0.28333  0.50127  1.0000
  H   H10       1.0  0.19658  0.27871  0.49245  1.0000
  H   H11       1.0  0.14648  0.30803  0.50741  1.0000
  C   C4        1.0  0.14446  0.29299  0.49910  1.0000
  S   S1        1.0  0.22082  0.31896  0.48272  1.0000
  H   H12       1.0  0.15657  0.25359  0.48759  1.0000
  C   C5        1.0  0.24100  0.30257  0.49466  1.0000
  H   H13       1.0  0.23982  0.31761  0.52483  1.0000
  C   C6        1.0  0.10973  0.50396  0.32869  1.0000
  H   H14       1.0  0.12281  0.50110  0.31756  1.0000
  H   H15       1.0  0.08874  0.48372  0.31305  1.0000
  N   N2        1.0  0.04096  0.56515  0.33037  1.0000
  C   C7        1.0  0.09037  0.49424  0.32607  1.0000
  C   C8        1.0  0.01873  0.57241  0.32766  1.0000
  Fe  Fe1       1.0  0.21461  0.51631  0.32686  1.0000
  H   H16       1.0  0.06212  0.53979  0.31996  1.0000
  S   S2        1.0  0.18672  0.49488  0.32668  1.0000
  C   C9        1.0  0.04536  0.54549  0.31860  1.0000
  C   C10       1.0  0.05510  0.58177  0.32212  1.0000
  H   H17       1.0  0.04220  0.54782  0.30143  1.0000
  H   H18       1.0  0.07202  0.57673  0.32381  1.0000
  S   S3        1.0  0.23386  0.52794  0.29740  1.0000
  H   H19       1.0  0.03541  0.53238  0.32480  1.0000
  H   H20       1.0  0.24064  0.50816  0.20057  1.0000
  H   H21       1.0  0.05261  0.58539  0.30497  1.0000
  H   H22       1.0  0.24486  0.52722  0.16553  1.0000
  H   H23       1.0  0.01519  0.57564  0.31069  1.0000
  H   H24       1.0  0.10365  0.45244  0.35241  1.0000
  S   S4        1.0  0.02666  0.61851  0.51188  1.0000
  Fe  Fe2       1.0  0.01819  0.49560  0.35382  1.0000
  S   S5        1.0  0.01955  0.51096  0.38511  1.0000
  H   H25       1.0  0.04455  0.34086  0.48943  1.0000
  Fe  Fe3       1.0  0.20706  0.52574  0.37406  1.0000
  S   S6        1.0  0.19564  0.54197  0.34432  1.0000
  S   S7        1.0  0.21476  0.54033  0.40513  1.0000
  Fe  Fe4       1.0  0.19890  0.48201  0.35803  1.0000
  C   C11       1.0  0.05622  0.35907  0.51453  1.0000
  S   S8        1.0  0.19770  0.44714  0.36768  1.0000
  S   S9        1.0  0.00026  0.63365  0.56704  1.0000
  Fe  Fe5       1.0  0.16898  0.51931  0.34632  1.0000
  H   H26       1.0  0.10844  0.36918  0.52054  1.0000
  S   S10       1.0  0.22786  0.50162  0.35697  1.0000
  S   S11       1.0  0.17928  0.50489  0.37725  1.0000
  Fe  Fe6       1.0  0.15244  0.35946  0.49304  1.0000
  S   S12       1.0  0.15703  0.39198  0.50480  1.0000
  H   H27       1.0  0.15578  0.42855  0.36864  1.0000
  S   S13       1.0  0.20826  0.37906  0.50644  1.0000
  Fe  Fe7       1.0  0.17929  0.37606  0.52778  1.0000
  S   S14       1.0  0.17365  0.38558  0.56186  1.0000
  Fe  Fe8       1.0  0.18542  0.39307  0.48257  1.0000
  S   S15       1.0  0.19077  0.42532  0.46668  1.0000
  C   C12       1.0  0.07852  0.34333  0.48659  1.0000
  S   S16       1.0  0.17922  0.36175  0.46880  1.0000
  S   S17       1.0  0.18569  0.50924  0.60326  1.0000
  S   S18       1.0  0.22604  0.50778  0.63445  1.0000
  Fe  Fe9       1.0  0.20251  0.53225  0.62223  1.0000
  S   S19       1.0  0.20940  0.56552  0.61028  1.0000
  Fe  Fe10      1.0  0.20685  0.48427  0.61815  1.0000
  S   S20       1.0  0.22511  0.45861  0.60039  1.0000
  S   S21       1.0  0.17674  0.62745  0.48007  1.0000
  S   S22       1.0  0.22746  0.63801  0.47671  1.0000
  Fe  Fe11      1.0  0.19862  0.64502  0.45776  1.0000
  S   S23       1.0  0.20029  0.63814  0.42277  1.0000
  Fe  Fe12      1.0  0.20519  0.62239  0.50015  1.0000
  S   S24       1.0  0.21287  0.58867  0.51170  1.0000
  C   C13       1.0  0.21125  0.57160  0.58282  1.0000
  C   C14       1.0  0.21203  0.55568  0.56786  1.0000
  C   C15       1.0  0.21258  0.56113  0.54607  1.0000
  C   C16       1.0  0.21210  0.58248  0.53914  1.0000
  C   C17       1.0  0.21130  0.59837  0.55410  1.0000
  C   C18       1.0  0.21110  0.59293  0.57587  1.0000
  H   H28       1.0  0.21234  0.53921  0.57308  1.0000
  H   H29       1.0  0.06369  0.66017  0.51779  1.0000
  H   H30       1.0  0.21117  0.61485  0.54891  1.0000
  H   H31       1.0  0.21065  0.60530  0.58738  1.0000
  C   C19       1.0  0.18862  0.40484  0.57350  1.0000
  C   C20       1.0  0.20987  0.40743  0.56769  1.0000
  C   C21       1.0  0.22105  0.42371  0.57641  1.0000
  C   C22       1.0  0.21101  0.43757  0.59083  1.0000
  C   C23       1.0  0.18991  0.43471  0.59700  1.0000
  C   C24       1.0  0.17884  0.41821  0.58855  1.0000
  H   H32       1.0  0.21764  0.39693  0.55640  1.0000
  S   S25       1.0  0.17262  0.34314  0.51768  1.0000
  H   H33       1.0  0.18206  0.44524  0.60820  1.0000
  H   H34       1.0  0.16246  0.41611  0.59329  1.0000
  C   C25       1.0  0.21031  0.56762  0.40911  1.0000
  C   C26       1.0  0.21304  0.58281  0.39275  1.0000
  C   C27       1.0  0.21008  0.60453  0.39696  1.0000
  C   C28       1.0  0.20459  0.61106  0.41756  1.0000
  C   C29       1.0  0.20164  0.59578  0.43374  1.0000
  C   C30       1.0  0.20436  0.57418  0.42951  1.0000
  H   H35       1.0  0.21778  0.57787  0.37697  1.0000
  H   H36       1.0  0.21230  0.61630  0.38433  1.0000
  H   H37       1.0  0.19704  0.60059  0.44954  1.0000
  H   H38       1.0  0.20165  0.56252  0.44211  1.0000
  C   C31       1.0  0.19661  0.44080  0.39519  1.0000
  C   C32       1.0  0.19275  0.41996  0.40232  1.0000
  C   C33       1.0  0.19097  0.41483  0.42421  1.0000
  C   C34       1.0  0.19303  0.43058  0.43905  1.0000
  C   C35       1.0  0.19683  0.45139  0.43187  1.0000
  C   C36       1.0  0.19864  0.45649  0.41007  1.0000
  H   H39       1.0  0.19121  0.40772  0.39091  1.0000
  H   H40       1.0  0.18810  0.39873  0.42958  1.0000
  H   H41       1.0  0.05500  0.50234  0.60918  1.0000
  H   H42       1.0  0.03664  0.41203  0.58358  1.0000
  Fe  Fe13      1.0  0.19996  0.34713  0.49435  1.0000
  H   H43       1.0  0.04133  0.40352  0.49720  1.0000
  C   C37       1.0  0.09673  0.35120  0.49527  1.0000
  Fe  Fe14      1.0  0.99962  0.36198  0.51136  1.0000
  C   C38       1.0  0.10061  0.49158  0.64833  1.0000
  C   C39       1.0  0.00341  0.57121  0.45133  1.0000
  H   H44       1.0  0.15805  0.46144  0.38890  1.0000
  C   C40       1.0  0.06754  0.49940  0.62022  1.0000
  H   H45       1.0  0.11769  0.59527  0.37785  1.0000
  C   C41       1.0  0.09457  0.36311  0.51360  1.0000
  C   C42       1.0  0.07292  0.49853  0.33979  1.0000
  C   C43       1.0  0.09444  0.52217  0.35895  1.0000
  C   C44       1.0  0.07517  0.51230  0.35644  1.0000
  H   H46       1.0  0.11317  0.57642  0.39933  1.0000
  H   H47       1.0  0.09584  0.53309  0.37165  1.0000
  H   H48       1.0  0.06199  0.51553  0.36727  1.0000
  H   H49       1.0  0.13324  0.42479  0.35285  1.0000
  H   H50       1.0  0.17162  0.47625  0.54716  1.0000
  C   C45       1.0  0.15478  0.55403  0.58474  1.0000
  S   S26       1.0  0.99779  0.63377  0.47139  1.0000
  C   C46       1.0  0.19463  0.47037  0.51111  1.0000
  C   C47       1.0  0.14341  0.46552  0.34983  1.0000
  H   H51       1.0  0.13083  0.42297  0.38138  1.0000
  H   H52       1.0  0.17299  0.44917  0.55660  1.0000
  N   N3        1.0  0.18407  0.45396  0.52436  1.0000
  Fe  Fe15      1.0  0.00167  0.60503  0.49243  1.0000
  H   H53       1.0  0.16064  0.46158  0.34896  1.0000
  C   C48       1.0  0.99823  0.55205  0.44263  1.0000
  C   C49       1.0  0.19724  0.43416  0.52421  1.0000
  S   S27       1.0  0.13039  0.51024  0.62066  1.0000
  S   S28       1.0  0.00548  0.57246  0.47904  1.0000
  H   H54       1.0  0.10153  0.45019  0.38086  1.0000
  H   H55       1.0  0.09972  0.66214  0.53180  1.0000
  H   H56       1.0  0.01197  0.60334  0.44421  1.0000
  H   H57       1.0  0.24490  0.59180  0.44892  1.0000
  H   H58       1.0  0.04193  0.53328  0.63456  1.0000
  H   H59       1.0  0.14162  0.48304  0.35079  1.0000
  C   C50       1.0  0.16321  0.45001  0.51573  1.0000
  H   H60       1.0  0.18886  0.42085  0.53223  1.0000
  H   H61       1.0  0.19665  0.46379  0.55368  1.0000
  H   H62       1.0  0.99980  0.40635  0.53931  1.0000
  H   H63       1.0  0.00342  0.37882  0.59216  1.0000
  H   H64       1.0  0.15412  0.59911  0.36229  1.0000
  H   H65       1.0  0.16481  0.44431  0.49921  1.0000
  H   H66       1.0  0.05054  0.42940  0.48981  1.0000
  H   H67       1.0  0.13370  0.45507  0.40235  1.0000
  H   H68       1.0  0.05669  0.43895  0.45118  1.0000
  H   H69       1.0  0.13684  0.46086  0.33458  1.0000
  C   C51       1.0  0.07712  0.66190  0.50693  1.0000
  C   C52       1.0  0.99885  0.56846  0.40727  1.0000
  C   C53       1.0  0.10991  0.45833  0.36735  1.0000
  H   H70       1.0  0.20185  0.47253  0.40481  1.0000
  Fe  Fe16      1.0  0.99913  0.63083  0.53176  1.0000
  H   H71       1.0  0.13652  0.48056  0.38914  1.0000
  S   S29       1.0  0.13493  0.53254  0.34757  1.0000
  H   H72       1.0  0.15285  0.46461  0.51551  1.0000
  S   S30       1.0  0.04854  0.48693  0.33523  1.0000
  C   C54       1.0  0.07443  0.36691  0.52322  1.0000
  H   H73       1.0  0.19855  0.46365  0.44322  1.0000
  H   H74       1.0  0.07837  0.39416  0.45112  1.0000
  H   H75       1.0  0.10543  0.47551  0.36796  1.0000
  H   H76       1.0  0.22019  0.44435  0.64675  1.0000
  C   C55       1.0  0.10491  0.50144  0.62858  1.0000
  C   C56       1.0  0.14059  0.46332  0.38806  1.0000
  C   C57       1.0  0.99593  0.55070  0.42071  1.0000
  Fe  Fe17      1.0  0.00798  0.49111  0.62850  1.0000
  C   C58       1.0  0.05837  0.34728  0.49612  1.0000
  H   H77       1.0  0.15288  0.55643  0.56736  1.0000
  H   H78       1.0  0.15551  0.57116  0.35758  1.0000
  H   H79       1.0  0.17543  0.58275  0.37244  1.0000
  H   H80       1.0  0.07300  0.37589  0.53755  1.0000
  C   C59       1.0  0.15820  0.58328  0.36956  1.0000
  C   C60       1.0  0.14959  0.59586  0.40466  1.0000
  C   C61       1.0  0.12302  0.57961  0.38473  1.0000
  Fe  Fe18      1.0  0.16424  0.50524  0.63224  1.0000
  H   H81       1.0  0.16940  0.59259  0.59191  1.0000
  C   C62       1.0  0.06311  0.48987  0.64009  1.0000
  Fe  Fe19      1.0  0.02127  0.64814  0.49211  1.0000
  H   H82       1.0  0.14926  0.54534  0.38761  1.0000
  H   H83       1.0  0.03479  0.54796  0.35966  1.0000
  H   H84       1.0  0.21242  0.43599  0.53222  1.0000
  H   H85       1.0  0.99695  0.37588  0.56489  1.0000
  H   H86       1.0  0.16926  0.55730  0.40197  1.0000
  C   C63       1.0  0.15212  0.55827  0.39863  1.0000
  S   S31       1.0  0.03123  0.36430  0.52725  1.0000
  C   C64       1.0  0.00689  0.58885  0.43785  1.0000
  N   N4        1.0  0.14573  0.57925  0.38939  1.0000
  H   H87       1.0  0.14540  0.61200  0.39814  1.0000
  S   S32       1.0  0.12173  0.34588  0.48261  1.0000
  H   H88       1.0  0.14333  0.55479  0.41380  1.0000
  H   H89       1.0  0.14038  0.59347  0.41981  1.0000
  H   H90       1.0  0.01795  0.56346  0.62487  1.0000
  H   H91       1.0  0.16649  0.59581  0.40866  1.0000
  H   H92       1.0  0.11962  0.56735  0.37311  1.0000
  H   H93       1.0  0.00762  0.56036  0.33394  1.0000
  C   C65       1.0  0.13838  0.43173  0.36776  1.0000
  C   C66       1.0  0.04750  0.42497  0.44739  1.0000
  H   H94       1.0  0.11239  0.58365  0.60247  1.0000
  H   H95       1.0  0.14037  0.58068  0.62925  1.0000
  H   H96       1.0  0.20131  0.42917  0.50784  1.0000
  S   S33       1.0  0.18062  0.52939  0.65087  1.0000
  C   C67       1.0  0.18121  0.46116  0.54638  1.0000
  H   H97       1.0  0.23327  0.54473  0.45346  1.0000
  H   H98       1.0  0.15489  0.43761  0.52539  1.0000
  H   H99       1.0  0.03727  0.37701  0.47058  1.0000
  H   H100      1.0  0.23659  0.55096  0.49151  1.0000
  H   H101      1.0  0.08170  0.41439  0.47009  1.0000
  S   S34       1.0  0.18449  0.47811  0.64569  1.0000
  H   H102      1.0  0.01479  0.58709  0.33655  1.0000
  H   H103      1.0  0.11461  0.55542  0.59934  1.0000
  H   H104      1.0  0.02017  0.39468  0.45589  1.0000
  H   H105      1.0  0.04297  0.38288  0.44299  1.0000
  C   C68       1.0  0.07978  0.48593  0.65407  1.0000
  H   H106      1.0  0.05089  0.52972  0.66103  1.0000
  C   C69       1.0  0.03697  0.38985  0.45811  1.0000
  C   C70       1.0  0.08824  0.50533  0.61462  1.0000
  C   C71       1.0  0.04638  0.54196  0.64873  1.0000
  C   C72       1.0  0.12106  0.57087  0.59365  1.0000
  H   H107      1.0  0.07357  0.38863  0.47881  1.0000
  N   N5        1.0  0.04934  0.40802  0.46400  1.0000
  C   C73       1.0  0.00748  0.38401  0.57557  1.0000
  C   C74       1.0  0.01077  0.41333  0.55039  1.0000
  H   H108      1.0  0.23744  0.42574  0.57174  1.0000
  H   H109      1.0  0.00703  0.60126  0.40556  1.0000
  H   H110      1.0  0.19691  0.46530  0.49437  1.0000
  H   H111      1.0  0.21050  0.47349  0.51714  1.0000
  H   H112      1.0  0.01912  0.43501  0.58465  1.0000
  C   C75       1.0  0.07173  0.40105  0.46604  1.0000
  H   H113      1.0  0.09138  0.51284  0.59926  1.0000
  C   C76       1.0  0.04106  0.41619  0.48448  1.0000
  H   H114      1.0  0.02444  0.42237  0.48325  1.0000
  H   H115      1.0  0.02706  0.40763  0.54575  1.0000
  H   H116      1.0  0.03074  0.43066  0.44570  1.0000
  C   C77       1.0  0.02293  0.57154  0.63925  1.0000
  H   H117      1.0  0.05320  0.41927  0.43163  1.0000
  H   H118      1.0  0.11736  0.57307  0.57657  1.0000
  H   H119      1.0  0.14257  0.55253  0.62588  1.0000
  C   C78       1.0  0.14825  0.56804  0.61962  1.0000
  H   H120      1.0  0.16547  0.56819  0.62257  1.0000
  N   N6        1.0  0.13305  0.45471  0.36825  1.0000
  C   C79       1.0  0.11182  0.51804  0.34512  1.0000
  S   S35       1.0  0.19886  0.65216  0.51806  1.0000
  S   S36       1.0  0.03687  0.48370  0.64842  1.0000
  S   S37       1.0  0.00918  0.51802  0.60462  1.0000
  N   N7        1.0  0.14404  0.57121  0.59681  1.0000
  H   H121      1.0  0.14416  0.60525  0.59767  1.0000
  C   C80       1.0  0.00443  0.58755  0.41587  1.0000
  H   H122      1.0  0.14989  0.59457  0.57190  1.0000
  H   H123      1.0  0.14850  0.53830  0.58946  1.0000
  C   C81       1.0  0.15216  0.59183  0.58922  1.0000
  H   H124      1.0  0.21330  0.54876  0.53456  1.0000
  N   N8        1.0  0.02875  0.55603  0.65632  1.0000
  H   H125      1.0  0.18521  0.48559  0.51088  1.0000
  H   H126      1.0  0.17198  0.55315  0.58764  1.0000
  C   C82       1.0  0.24342  0.58405  0.46497  1.0000
  H   H127      1.0  0.02389  0.37803  0.57176  1.0000
  H   H128      1.0  0.06069  0.55094  0.64424  1.0000
  H   H129      1.0  0.00939  0.58217  0.64431  1.0000
  H   H130      1.0  0.08001  0.33402  0.47247  1.0000
  H   H131      1.0  0.00724  0.44278  0.40013  1.0000
  H   H132      1.0  0.11323  0.48853  0.65927  1.0000
  H   H133      1.0  0.00364  0.40368  0.40249  1.0000
  S   S38       1.0  0.99981  0.49055  0.55021  1.0000
  H   H134      1.0  0.99581  0.53822  0.45282  1.0000
  H   H135      1.0  0.22642  0.58107  0.46824  1.0000
  Fe  Fe20      1.0  0.20312  0.50281  0.66174  1.0000
  C   C83       1.0  0.99647  0.41359  0.41464  1.0000
  C   C84       1.0  0.01994  0.41742  0.58681  1.0000
  C   C85       1.0  0.01037  0.54316  0.66222  1.0000
  H   H136      1.0  0.03632  0.58167  0.63435  1.0000
  H   H137      1.0  0.01604  0.41367  0.60382  1.0000
  S   S39       1.0  0.99610  0.56657  0.37973  1.0000
  H   H138      1.0  0.00505  0.53468  0.64834  1.0000
  H   H139      1.0  0.00154  0.46453  0.51331  1.0000
  H   H140      1.0  0.00985  0.43084  0.54780  1.0000
  H   H141      1.0  0.99722  0.58850  0.56029  1.0000
  C   C86       1.0  0.99849  0.43564  0.41331  1.0000
  Fe  Fe21      1.0  0.17181  0.65851  0.49602  1.0000
  H   H142      1.0  0.06144  0.55627  0.35595  1.0000
  C   C87       1.0  0.22462  0.44278  0.66370  1.0000
  N   N9        1.0  0.00540  0.40730  0.57268  1.0000
  H   H143      1.0  0.04046  0.57512  0.36274  1.0000
  C   C88       1.0  0.04467  0.56097  0.35315  1.0000
  C   C89       1.0  0.09760  0.66302  0.51485  1.0000
  H   H144      1.0  0.05228  0.59676  0.33078  1.0000
  S   S40       1.0  0.21553  0.49488  0.69505  1.0000
  H   H145      1.0  0.01420  0.53091  0.67473  1.0000
  C   C90       1.0  0.24021  0.50076  0.70623  1.0000
  H   H146      1.0  0.23352  0.48312  0.73534  1.0000
  C   C91       1.0  0.03524  0.56735  0.67505  1.0000
  H   H147      1.0  0.02221  0.57805  0.68117  1.0000
  H   H148      1.0  0.03968  0.55602  0.68819  1.0000
  H   H149      1.0  0.07657  0.47852  0.66947  1.0000
  H   H150      1.0  0.21593  0.45561  0.67246  1.0000
  C   C92       1.0  0.24497  0.49257  0.72663  1.0000
  H   H151      1.0  0.04910  0.57722  0.67117  1.0000
  H   H152      1.0  0.21871  0.42745  0.67015  1.0000
  H   H153      1.0  0.99663  0.55315  0.66798  1.0000
  H   H154      1.0  0.24445  0.45533  0.69767  1.0000
  N   N10       1.0  0.17823  0.72072  0.52612  1.0000
  H   H155      1.0  0.21162  0.71643  0.53139  1.0000
  H   H156      1.0  0.16005  0.74512  0.54220  1.0000
  H   H157      1.0  0.16757  0.73317  0.49599  1.0000
  H   H158      1.0  0.00273  0.68039  0.47333  1.0000
  S   S41       1.0  0.19164  0.67704  0.47205  1.0000
  H   H159      1.0  0.15580  0.70623  0.54789  1.0000
  H   H160      1.0  0.23459  0.72334  0.47426  1.0000
  H   H161      1.0  0.14703  0.72294  0.51348  1.0000
  H   H162      1.0  0.18716  0.74216  0.54977  1.0000
  H   H163      1.0  0.18296  0.70345  0.55566  1.0000
  C   C93       1.0  0.16385  0.72060  0.50813  1.0000
  S   S42       1.0  0.14045  0.66892  0.51190  1.0000
  H   H164      1.0  0.17359  0.68802  0.53478  1.0000
  C   C94       1.0  0.17646  0.74158  0.53615  1.0000
  H   H165      1.0  0.20527  0.72899  0.50637  1.0000
  H   H166      1.0  0.18082  0.75456  0.52468  1.0000
  C   C95       1.0  0.20021  0.71672  0.51832  1.0000
  C   C96       1.0  0.17242  0.70395  0.54187  1.0000
  H   H167      1.0  0.16503  0.70516  0.50006  1.0000
  C   C97       1.0  0.11527  0.66547  0.50104  1.0000
  H   H168      1.0  0.01134  0.67920  0.41527  1.0000
  C   C98       1.0  0.11222  0.66680  0.47915  1.0000
  H   H169      1.0  0.20208  0.70113  0.51065  1.0000
  H   H170      1.0  0.02972  0.68794  0.43415  1.0000
  H   H171      1.0  0.01667  0.70387  0.46751  1.0000
  H   H172      1.0  0.08939  0.66809  0.45438  1.0000
  C   C99       1.0  0.01397  0.68102  0.43244  1.0000
  N   N11       1.0  0.99694  0.69418  0.44262  1.0000
  H   H173      1.0  0.01127  0.72350  0.43350  1.0000
  H   H174      1.0  0.12562  0.66891  0.46834  1.0000
  Fe  Fe22      1.0  0.21917  0.66861  0.49295  1.0000
  C   C100      1.0  0.00138  0.69620  0.46529  1.0000
  C   C101      1.0  0.09164  0.66638  0.47127  1.0000
  C   C102      1.0  0.99603  0.71546  0.43222  1.0000
  S   S43       1.0  0.04813  0.66518  0.47475  1.0000
  H   H175      1.0  0.01508  0.66483  0.43994  1.0000
  C   C103      1.0  0.07397  0.66395  0.48510  1.0000
  H   H176      1.0  0.46546  0.29495  0.26144  1.0000
  H   H177      1.0  0.47590  0.24290  0.18970  1.0000
  C   C104      1.0  0.46405  0.31469  0.08901  1.0000
  H   H178      1.0  0.45632  0.30333  0.07969  1.0000
  C   C105      1.0  0.47635  0.28494  0.27044  1.0000
  H   H179      1.0  0.48165  0.27551  0.16708  1.0000
  H   H180      1.0  0.45174  0.26828  0.28776  1.0000
  C   C106      1.0  0.48242  0.25660  0.29759  1.0000
  S   S44       1.0  0.47155  0.23748  0.31612  1.0000
  C   C107      1.0  0.48040  0.27942  0.20929  1.0000
  C   C108      1.0  0.46860  0.26977  0.28546  1.0000
  H   H181      1.0  0.45383  0.30014  0.11862  1.0000
  C   C109      1.0  0.46263  0.31287  0.11119  1.0000
  H   H182      1.0  0.49111  0.23802  0.21304  1.0000
  H   H183      1.0  0.46453  0.27883  0.20233  1.0000
  H   H184      1.0  0.39399  0.24063  0.32582  1.0000
  S   S45       1.0  0.46984  0.32295  0.15182  1.0000
  H   H185      1.0  0.42086  0.24883  0.32374  1.0000
  H   H186      1.0  0.47929  0.27303  0.22593  1.0000
  C   C110      1.0  0.49160  0.24505  0.19662  1.0000
  C   C111      1.0  0.47251  0.32714  0.12381  1.0000
  H   H187      1.0  0.48424  0.29635  0.21017  1.0000
  S   S46       1.0  0.47775  0.03190  0.60856  1.0000
  C   C112      1.0  0.49489  0.08481  0.65013  1.0000
  H   H188      1.0  0.35299  0.07687  0.58220  1.0000
  H   H189      1.0  0.47504  0.09144  0.40261  1.0000
  C   C113      1.0  0.38503  0.09556  0.56010  1.0000
  S   S47       1.0  0.32325  0.01523  0.48427  1.0000
  H   H190      1.0  0.40184  0.09648  0.55462  1.0000
  N   N12       1.0  0.37707  0.07414  0.55745  1.0000
  H   H191      1.0  0.34483  0.08580  0.55637  1.0000
  H   H192      1.0  0.44471  0.24175  0.35294  1.0000
  C   C114      1.0  0.39566  0.05261  0.39285  1.0000
  S   S48       1.0  0.35189  0.01195  0.52616  1.0000
  Fe  Fe23      1.0  0.33886  0.03820  0.50485  1.0000
  S   S49       1.0  0.32529  0.06755  0.52106  1.0000
  S   S50       1.0  0.36818  0.04021  0.48428  1.0000
  H   H193      1.0  0.41733  0.23674  0.51563  1.0000
  H   H194      1.0  0.38903  0.04427  0.37943  1.0000
  C   C115      1.0  0.42700  0.06327  0.40978  1.0000
  H   H195      1.0  0.37572  0.10774  0.55079  1.0000
  Fe  Fe24      1.0  0.48783  0.01216  0.38802  1.0000
  Fe  Fe25      1.0  0.46703  0.19452  0.38342  1.0000
  S   S51       1.0  0.43609  0.18814  0.40119  1.0000
  S   S52       1.0  0.46852  0.18500  0.34942  1.0000
  H   H196      1.0  0.38911  0.06188  0.58712  1.0000
  Fe  Fe26      1.0  0.31810  0.23392  0.51238  1.0000
  S   S53       1.0  0.35213  0.24160  0.51714  1.0000
  S   S54       1.0  0.29438  0.25998  0.52380  1.0000
  Fe  Fe27      1.0  0.33113  0.19043  0.49433  1.0000
  S   S55       1.0  0.36559  0.19575  0.49715  1.0000
  S   S56       1.0  0.32424  0.16015  0.47771  1.0000
  Fe  Fe28      1.0  0.35682  0.20815  0.52925  1.0000
  S   S57       1.0  0.37761  0.19540  0.55577  1.0000
  Fe  Fe29      1.0  0.35827  0.22863  0.48475  1.0000
  S   S58       1.0  0.38020  0.24691  0.46250  1.0000
  S   S59       1.0  0.32236  0.20093  0.52736  1.0000
  S   S60       1.0  0.32423  0.22279  0.47906  1.0000
  H   H197      1.0  0.45119  0.22948  0.49557  1.0000
  H   H198      1.0  0.45780  0.20308  0.48685  1.0000
  Fe  Fe30      1.0  0.47251  0.22581  0.61952  1.0000
  S   S61       1.0  0.45231  0.24394  0.59562  1.0000
  C   C116      1.0  0.39754  0.20967  0.56738  1.0000
  C   C117      1.0  0.41106  0.19893  0.58164  1.0000
  C   C118      1.0  0.42780  0.20932  0.59044  1.0000
  C   C119      1.0  0.43117  0.23059  0.58506  1.0000
  C   C120      1.0  0.41763  0.24139  0.57082  1.0000
  C   C121      1.0  0.40080  0.23101  0.56208  1.0000
  H   H199      1.0  0.40862  0.18245  0.58586  1.0000
  H   H200      1.0  0.43809  0.20085  0.60143  1.0000
  H   H201      1.0  0.42006  0.25790  0.56674  1.0000
  H   H202      1.0  0.39029  0.23954  0.55139  1.0000
  H   H203      1.0  0.38394  0.10015  0.57701  1.0000
  S   S62       1.0  0.46803  0.00794  0.65465  1.0000
  C   C122      1.0  0.26699  0.27282  0.49149  1.0000
  C   C123      1.0  0.27334  0.27551  0.51225  1.0000
  H   H204      1.0  0.48408  0.12572  0.38489  1.0000
  H   H205      1.0  0.44321  0.02895  0.54323  1.0000
  H   H206      1.0  0.27433  0.26031  0.48216  1.0000
  H   H207      1.0  0.31545  0.32761  0.48923  1.0000
  H   H208      1.0  0.40367  0.22623  0.49403  1.0000
  C   C124      1.0  0.42185  0.20475  0.41900  1.0000
  C   C125      1.0  0.40384  0.19681  0.42951  1.0000
  C   C126      1.0  0.39123  0.20960  0.44301  1.0000
  C   C127      1.0  0.39634  0.23060  0.44595  1.0000
  C   C128      1.0  0.41443  0.23862  0.43557  1.0000
  C   C129      1.0  0.42730  0.22566  0.42225  1.0000
  H   H209      1.0  0.39946  0.18069  0.42700  1.0000
  H   H210      1.0  0.37720  0.20330  0.45071  1.0000
  H   H211      1.0  0.41853  0.25485  0.43785  1.0000
  H   H212      1.0  0.44127  0.23188  0.41438  1.0000
  C   C130      1.0  0.32638  0.09324  0.50891  1.0000
  C   C131      1.0  0.32272  0.11116  0.52140  1.0000
  C   C132      1.0  0.32298  0.13178  0.51221  1.0000
  C   C133      1.0  0.32624  0.13466  0.49028  1.0000
  C   C134      1.0  0.32999  0.11674  0.47781  1.0000
  C   C135      1.0  0.33039  0.09614  0.48710  1.0000
  H   H213      1.0  0.31922  0.10914  0.53820  1.0000
  H   H214      1.0  0.31979  0.14542  0.52193  1.0000
  H   H215      1.0  0.33237  0.11882  0.46083  1.0000
  H   H216      1.0  0.33308  0.08251  0.47727  1.0000
  S   S63       1.0  0.49009  0.19568  0.61060  1.0000
  H   H217      1.0  0.30117  0.30465  0.49718  1.0000
  H   H218      1.0  0.43626  0.22676  0.37602  1.0000
  C   C136      1.0  0.26333  0.29177  0.52412  1.0000
  H   H219      1.0  0.38395  0.04215  0.56830  1.0000
  N   N13       1.0  0.41320  0.23050  0.35198  1.0000
  H   H220      1.0  0.39937  0.21574  0.52038  1.0000
  H   H221      1.0  0.43385  0.21210  0.33138  1.0000
  H   H222      1.0  0.39530  0.06854  0.52859  1.0000
  C   C137      1.0  0.43088  0.23852  0.36371  1.0000
  H   H223      1.0  0.35659  0.29847  0.45717  1.0000
  C   C138      1.0  0.37473  0.00243  0.41792  1.0000
  H   H224      1.0  0.42132  0.08016  0.40996  1.0000
  H   H225      1.0  0.43702  0.21857  0.47450  1.0000
  H   H226      1.0  0.42185  0.05551  0.42506  1.0000
  N   N14       1.0  0.42900  0.20604  0.50566  1.0000
  C   C139      1.0  0.43928  0.20110  0.52603  1.0000
  C   C140      1.0  0.42043  0.18650  0.49754  1.0000
  C   C141      1.0  0.44449  0.21467  0.48998  1.0000
  C   C142      1.0  0.41161  0.22192  0.50906  1.0000
  H   H227      1.0  0.42799  0.19397  0.53788  1.0000
  H   H228      1.0  0.44509  0.21562  0.53319  1.0000
  H   H229      1.0  0.45288  0.18962  0.52408  1.0000
  H   H230      1.0  0.41230  0.18971  0.48229  1.0000
  H   H231      1.0  0.43311  0.17419  0.49461  1.0000
  H   H232      1.0  0.40869  0.17955  0.50905  1.0000
  C   C143      1.0  0.41982  0.21019  0.34233  1.0000
  C   C144      1.0  0.48398  0.09143  0.38773  1.0000
  C   C145      1.0  0.35476  0.07368  0.56499  1.0000
  H   H233      1.0  0.38975  0.24201  0.37467  1.0000
  C   C146      1.0  0.41477  0.01145  0.54297  1.0000
  C   C147      1.0  0.32241  0.27781  0.47058  1.0000
  H   H234      1.0  0.47558  0.00402  0.53993  1.0000
  S   S64       1.0  0.42079  0.00632  0.61483  1.0000
  Fe  Fe31      1.0  0.47908  0.18360  0.64277  1.0000
  H   H235      1.0  0.30020  0.31448  0.47029  1.0000
  S   S65       1.0  0.45988  0.21328  0.65102  1.0000
  C   C148      1.0  0.42612  0.06330  0.37156  1.0000
  C   C149      1.0  0.37866  0.06884  0.53477  1.0000
  H   H236      1.0  0.34789  0.05803  0.56229  1.0000
  H   H237      1.0  0.37237  0.05296  0.53216  1.0000
  C   C150      1.0  0.34248  0.30865  0.46170  1.0000
  C   C151      1.0  0.42729  0.03016  0.39159  1.0000
  S   S66       1.0  0.46338  0.15173  0.64659  1.0000
  C   C152      1.0  0.48913  0.11094  0.37774  1.0000
  H   H238      1.0  0.26809  0.29405  0.54019  1.0000
  H   H239      1.0  0.34760  0.30887  0.50396  1.0000
  H   H240      1.0  0.42636  0.25348  0.37181  1.0000
  H   H241      1.0  0.40666  0.05810  0.56452  1.0000
  H   H242      1.0  0.33336  0.31203  0.44712  1.0000
  H   H243      1.0  0.42069  0.05528  0.35736  1.0000
  C   C153      1.0  0.38977  0.05842  0.56991  1.0000
  H   H244      1.0  0.36937  0.08047  0.52483  1.0000
  H   H245      1.0  0.44630  0.02598  0.58190  1.0000
  H   H246      1.0  0.35911  0.00025  0.38829  1.0000
  C   C154      1.0  0.43337  0.01878  0.57468  1.0000
  H   H247      1.0  0.44372  0.06351  0.37024  1.0000
  H   H248      1.0  0.35627  0.28355  0.49386  1.0000
  N   N15       1.0  0.41900  0.05235  0.39143  1.0000
  H   H249      1.0  0.44804  0.11057  0.63936  1.0000
  Fe  Fe32      1.0  0.35385  0.01545  0.46524  1.0000
  H   H250      1.0  0.39427  0.00203  0.44529  1.0000
  N   N16       1.0  0.32942  0.29810  0.47842  1.0000
  H   H251      1.0  0.42032  0.02086  0.37902  1.0000
  H   H252      1.0  0.47330  0.03612  0.51647  1.0000
  H   H253      1.0  0.42014  0.08009  0.37078  1.0000
  H   H254      1.0  0.42393  0.02202  0.40709  1.0000
  C   C155      1.0  0.31078  0.31186  0.48395  1.0000
  C   C156      1.0  0.47632  0.12630  0.64693  1.0000
  H   H255      1.0  0.44469  0.02927  0.38884  1.0000
  C   C157      1.0  0.39503  0.22710  0.36683  1.0000
  H   H256      1.0  0.31234  0.28023  0.45654  1.0000
  Fe  Fe33      1.0  0.38019  0.01256  0.50408  1.0000
  H   H257      1.0  0.24619  0.28399  0.46673  1.0000
  Fe  Fe34      1.0  0.48594  0.21507  0.34213  1.0000
  C   C158      1.0  0.34208  0.29394  0.49748  1.0000
  H   H258      1.0  0.34827  0.32394  0.46710  1.0000
  Fe  Fe35      1.0  0.49242  0.02971  0.64031  1.0000
  H   H259      1.0  0.45435  0.02407  0.50053  1.0000
  C   C159      1.0  0.43162  0.02043  0.55268  1.0000
  H   H260      1.0  0.38880  0.06910  0.39268  1.0000
  H   H261      1.0  0.42415  0.19795  0.35470  1.0000
  S   S67       1.0  0.48251  0.22530  0.37606  1.0000
  S   S68       1.0  0.48327  0.04803  0.39231  1.0000
  S   S69       1.0  0.41327  0.01380  0.51534  1.0000
  S   S70       1.0  0.35359  0.01688  0.42965  1.0000
  H   H262      1.0  0.44457  0.06312  0.40939  1.0000
  H   H263      1.0  0.38135  0.22100  0.35857  1.0000
  Fe  Fe36      1.0  0.45523  0.00797  0.62188  1.0000
  H   H264      1.0  0.38987  0.04454  0.40777  1.0000
  H   H265      1.0  0.33611  0.26718  0.46595  1.0000
  H   H266      1.0  0.39923  0.21527  0.37966  1.0000
  C   C160      1.0  0.41818  0.00839  0.58723  1.0000
  H   H267      1.0  0.31297  0.26917  0.48299  1.0000
  H   H268      1.0  0.33266  0.28583  0.51036  1.0000
  C   C161      1.0  0.47155  0.02572  0.50276  1.0000
  C   C162      1.0  0.46452  0.10845  0.64321  1.0000
  H   H269      1.0  0.46447  0.07426  0.64169  1.0000
  C   C163      1.0  0.47380  0.08783  0.64451  1.0000
  H   H270      1.0  0.40240  0.26172  0.34178  1.0000
  C   C164      1.0  0.49051  0.07201  0.37878  1.0000
  H   H271      1.0  0.47807  0.03405  0.48832  1.0000
  C   C165      1.0  0.40727  0.24613  0.33509  1.0000
  H   H272      1.0  0.40703  0.20378  0.33303  1.0000
  N   N17       1.0  0.48237  0.00483  0.50629  1.0000
  C   C166      1.0  0.24728  0.30521  0.51543  1.0000
  C   C167      1.0  0.25095  0.28627  0.48279  1.0000
  C   C168      1.0  0.39952  0.00089  0.55541  1.0000
  C   C169      1.0  0.40111  0.99954  0.57759  1.0000
  H   H273      1.0  0.48533  0.99906  0.47287  1.0000
  H   H274      1.0  0.44845  0.14393  0.72837  1.0000
  H   H275      1.0  0.47265  0.14010  0.69645  1.0000
  H   H276      1.0  0.46740  0.15951  0.74088  1.0000
  H   H277      1.0  0.47245  0.19883  0.69607  1.0000
  C   C170      1.0  0.48552  0.30252  0.73170  1.0000
  H   H278      1.0  0.48151  0.19151  0.72191  1.0000
  H   H279      1.0  0.43681  0.15421  0.69171  1.0000
  H   H280      1.0  0.49164  0.15503  0.70984  1.0000
  C   C171      1.0  0.46761  0.19135  0.71158  1.0000
  H   H281      1.0  0.44620  0.17788  0.67919  1.0000
  H   H282      1.0  0.49359  0.31764  0.89921  1.0000
  H   H283      1.0  0.47435  0.27916  0.68500  1.0000
  C   C172      1.0  0.47775  0.15640  0.69948  1.0000
  H   H284      1.0  0.46891  0.31308  0.70377  1.0000
  N   N18       1.0  0.46038  0.16962  0.70896  1.0000
  C   C173      1.0  0.48069  0.28073  0.70057  1.0000
  H   H285      1.0  0.45496  0.20187  0.71866  1.0000
  C   C174      1.0  0.47759  0.30001  0.71132  1.0000
  C   C175      1.0  0.44213  0.17039  0.69490  1.0000
  H   H286      1.0  0.42847  0.17972  0.70177  1.0000
  C   C176      1.0  0.45400  0.16033  0.72987  1.0000
  H   H287      1.0  0.44091  0.16992  0.73750  1.0000
  H   H288      1.0  0.48327  0.16322  0.68392  1.0000
  C   C177      1.0  0.49160  0.26347  0.71015  1.0000
  Fe  Fe37      1.0  0.48942  0.22565  0.66468  1.0000
  S   S71       1.0  0.48039  0.32718  0.74465  1.0000
  H   H289      1.0  0.26152  0.54711  0.26597  1.0000
  H   H290      1.0  0.28491  0.49032  0.18975  1.0000
  H   H291      1.0  0.47579  0.66219  0.12937  1.0000
  H   H292      1.0  0.43613  0.46444  0.03999  1.0000
  H   H293      1.0  0.37599  0.45578  0.24684  1.0000
  C   C178      1.0  0.25594  0.51727  0.28228  1.0000
  H   H294      1.0  0.47021  0.62717  0.14919  1.0000
  C   C179      1.0  0.47287  0.65359  0.09664  1.0000
  H   H295      1.0  0.37611  0.60141  0.05051  1.0000
  S   S72       1.0  0.46349  0.61113  0.00292  1.0000
  H   H296      1.0  0.46170  0.48412  0.01095  1.0000
  H   H297      1.0  0.46292  0.56940  0.14773  1.0000
  N   N19       1.0  0.36878  0.57472  0.03212  1.0000
  Fe  Fe38      1.0  0.33394  0.51381  0.01304  1.0000
  S   S73       1.0  0.31632  0.53005  0.04039  1.0000
  C   C180      1.0  0.43639  0.42636  0.00301  1.0000
  H   H298      1.0  0.44945  0.61310  0.10872  1.0000
  H   H299      1.0  0.29197  0.53350  0.24389  1.0000
  H   H300      1.0  0.41832  0.41237  0.05485  1.0000
  H   H301      1.0  0.44438  0.63496  0.14011  1.0000
  Fe  Fe39      1.0  0.47050  0.37229  0.21442  1.0000
  S   S74       1.0  0.44908  0.39772  0.22911  1.0000
  C   C181      1.0  0.48061  0.45668  0.20605  1.0000
  H   H302      1.0  0.46406  0.37556  0.06430  1.0000
  Fe  Fe40      1.0  0.33446  0.50192  0.21355  1.0000
  S   S75       1.0  0.36894  0.49216  0.21542  1.0000
  S   S76       1.0  0.31137  0.49031  0.24004  1.0000
  Fe  Fe41      1.0  0.34058  0.51717  0.16701  1.0000
  S   S77       1.0  0.37525  0.50856  0.16530  1.0000
  S   S78       1.0  0.31957  0.53189  0.14152  1.0000
  Fe  Fe42      1.0  0.36650  0.47877  0.18327  1.0000
  S   S79       1.0  0.37989  0.44654  0.17376  1.0000
  Fe  Fe43      1.0  0.37593  0.52263  0.19760  1.0000
  S   S80       1.0  0.40638  0.53678  0.20720  1.0000
  S   S81       1.0  0.33162  0.48613  0.18232  1.0000
  S   S82       1.0  0.34169  0.53379  0.19834  1.0000
  H   H303      1.0  0.36098  0.54517  0.04781  1.0000
  S   S83       1.0  0.48306  0.64414  0.23543  1.0000
  Fe  Fe44      1.0  0.46505  0.64022  0.20579  1.0000
  S   S84       1.0  0.43022  0.63363  0.20495  1.0000
  C   C182      1.0  0.41235  0.56387  0.20612  1.0000
  C   C183      1.0  0.39738  0.57986  0.20086  1.0000
  C   C184      1.0  0.40290  0.60129  0.20076  1.0000
  C   C185      1.0  0.42343  0.60676  0.20565  1.0000
  C   C186      1.0  0.43839  0.59074  0.21068  1.0000
  C   C187      1.0  0.43285  0.56942  0.21095  1.0000
  H   H304      1.0  0.38151  0.57575  0.19722  1.0000
  H   H305      1.0  0.39123  0.61364  0.19692  1.0000
  H   H306      1.0  0.45415  0.59477  0.21479  1.0000
  H   H307      1.0  0.44446  0.55713  0.21518  1.0000
  H   H308      1.0  0.47722  0.50569  0.01895  1.0000
  H   H309      1.0  0.48126  0.58967  0.15258  1.0000
  C   C188      1.0  0.27979  0.48814  0.27116  1.0000
  C   C189      1.0  0.29042  0.50147  0.25636  1.0000
  C   C190      1.0  0.28378  0.52285  0.25474  1.0000
  H   H310      1.0  0.26370  0.49265  0.17151  1.0000
  H   H311      1.0  0.45917  0.58553  0.17055  1.0000
  H   H312      1.0  0.28471  0.47160  0.27266  1.0000
  H   H313      1.0  0.39900  0.46913  0.02853  1.0000
  C   C191      1.0  0.43082  0.41168  0.21292  1.0000
  C   C192      1.0  0.42191  0.43111  0.21964  1.0000
  C   C193      1.0  0.40684  0.44232  0.20737  1.0000
  C   C194      1.0  0.40016  0.43388  0.18858  1.0000
  C   C195      1.0  0.40921  0.41452  0.18180  1.0000
  C   C196      1.0  0.42467  0.40354  0.19381  1.0000
  H   H314      1.0  0.42671  0.43754  0.23436  1.0000
  H   H315      1.0  0.40029  0.45739  0.21253  1.0000
  H   H316      1.0  0.40414  0.40791  0.16727  1.0000
  H   H317      1.0  0.43144  0.38854  0.18854  1.0000
  C   C197      1.0  0.31874  0.52900  0.06845  1.0000
  C   C198      1.0  0.30431  0.54159  0.08020  1.0000
  C   C199      1.0  0.30510  0.54211  0.10233  1.0000
  C   C200      1.0  0.32041  0.53011  0.11337  1.0000
  C   C201      1.0  0.33519  0.51747  0.10178  1.0000
  C   C202      1.0  0.33436  0.51692  0.07929  1.0000
  H   H318      1.0  0.29225  0.55102  0.07210  1.0000
  H   H319      1.0  0.29365  0.55195  0.11096  1.0000
  H   H320      1.0  0.34710  0.50807  0.11011  1.0000
  H   H321      1.0  0.34563  0.50710  0.07043  1.0000
  H   H322      1.0  0.40739  0.36519  0.06041  1.0000
  H   H323      1.0  0.48827  0.45492  0.24787  1.0000
  H   H324      1.0  0.43761  0.38555  0.10456  1.0000
  Fe  Fe45      1.0  0.48142  0.40275  0.01570  1.0000
  C   C203      1.0  0.43124  0.37493  0.09274  1.0000
  C   C204      1.0  0.43044  0.45463  0.02779  1.0000
  Fe  Fe46      1.0  0.48360  0.62804  0.02525  1.0000
  C   C205      1.0  0.48532  0.34542  0.09124  1.0000
  S   S85       1.0  0.46116  0.37550  0.00913  1.0000
  S   S86       1.0  0.46912  0.64339  0.05482  1.0000
  H   H325      1.0  0.28267  0.54694  0.20391  1.0000
  H   H326      1.0  0.36903  0.56516  0.06521  1.0000
  H   H327      1.0  0.46513  0.44879  0.20659  1.0000
  C   C206      1.0  0.42373  0.36987  0.05600  1.0000
  H   H328      1.0  0.46032  0.40098  0.07624  1.0000
  H   H329      1.0  0.45721  0.58549  0.11155  1.0000
  H   H330      1.0  0.26245  0.50592  0.21810  1.0000
  H   H331      1.0  0.42301  0.59535  0.15961  1.0000
  H   H332      1.0  0.33489  0.45535  0.22172  1.0000
  C   C207      1.0  0.46425  0.58576  0.15347  1.0000
  N   N20       1.0  0.26946  0.52117  0.18787  1.0000
  C   C208      1.0  0.27695  0.50120  0.17802  1.0000
  H   H333      1.0  0.47554  0.60558  0.11681  1.0000
  H   H334      1.0  0.29878  0.53667  0.18244  1.0000
  H   H335      1.0  0.45430  0.39791  0.04903  1.0000
  H   H336      1.0  0.25483  0.48548  0.29536  1.0000
  N   N21       1.0  0.45130  0.60129  0.14101  1.0000
  S   S87       1.0  0.48025  0.55226  0.00785  1.0000
  C   C209      1.0  0.41820  0.40449  0.07093  1.0000
  H   H337      1.0  0.29668  0.52187  0.20715  1.0000
  H   H338      1.0  0.39793  0.57654  0.01375  1.0000
  H   H339      1.0  0.42379  0.41616  0.08216  1.0000
  S   S88       1.0  0.36899  0.50792  0.01376  1.0000
  C   C210      1.0  0.48304  0.65375  0.11620  1.0000
  N   N22       1.0  0.43166  0.38483  0.07119  1.0000
  N   N23       1.0  0.34999  0.43504  0.24513  1.0000
  C   C211      1.0  0.32985  0.43106  0.25678  1.0000
  C   C212      1.0  0.36062  0.45247  0.25510  1.0000
  C   C213      1.0  0.36387  0.41568  0.24572  1.0000
  H   H340      1.0  0.31920  0.44554  0.25665  1.0000
  H   H341      1.0  0.33249  0.42642  0.27367  1.0000
  H   H342      1.0  0.32125  0.41820  0.24954  1.0000
  H   H343      1.0  0.35072  0.46744  0.25459  1.0000
  H   H344      1.0  0.36388  0.44863  0.27203  1.0000
  H   H345      1.0  0.33819  0.42810  0.21454  1.0000
  H   H346      1.0  0.36040  0.44476  0.21379  1.0000
  H   H347      1.0  0.35633  0.40218  0.23838  1.0000
  H   H348      1.0  0.36777  0.41076  0.26227  1.0000
  C   C214      1.0  0.26654  0.53058  0.26744  1.0000
  H   H349      1.0  0.35038  0.60302  0.03920  1.0000
  C   C215      1.0  0.47533  0.33086  0.07877  1.0000
  H   H350      1.0  0.35804  0.55343  0.00947  1.0000
  C   C216      1.0  0.36021  0.56252  0.05063  1.0000
  H   H351      1.0  0.48507  0.45966  0.18904  1.0000
  S   S89       1.0  0.46486  0.33750  0.21162  1.0000
  C   C217      1.0  0.36713  0.59762  0.03632  1.0000
  H   H352      1.0  0.28854  0.50425  0.16468  1.0000
  H   H353      1.0  0.37356  0.60718  0.02262  1.0000
  H   H354      1.0  0.44564  0.52421  0.01669  1.0000
  S   S90       1.0  0.37537  0.44523  0.99953  1.0000
  H   H355      1.0  0.39292  0.55092  0.02531  1.0000
  H   H356      1.0  0.42348  0.37699  0.03963  1.0000
  H   H357      1.0  0.49170  0.35466  0.12333  1.0000
  C   C218      1.0  0.40947  0.45727  0.02135  1.0000
  C   C219      1.0  0.34563  0.44105  0.22285  1.0000
  H   H358      1.0  0.44098  0.35987  0.09330  1.0000
  Fe  Fe47      1.0  0.48959  0.58615  0.00332  1.0000
  C   C220      1.0  0.48239  0.64326  0.07915  1.0000
  Fe  Fe48      1.0  0.48150  0.34112  0.17945  1.0000
  H   H359      1.0  0.33942  0.57439  0.01585  1.0000
  H   H360      1.0  0.37908  0.41820  0.23678  1.0000
  C   C221      1.0  0.45342  0.62264  0.14942  1.0000
  C   C222      1.0  0.44377  0.43892  0.01880  1.0000
  H   H361      1.0  0.41862  0.60707  0.13379  1.0000
  C   C223      1.0  0.42890  0.59553  0.14276  1.0000
  C   C224      1.0  0.39118  0.56821  0.02812  1.0000
  C   C225      1.0  0.45866  0.60131  0.11853  1.0000
  H   H362      1.0  0.41491  0.37107  0.09812  1.0000
  H   H363      1.0  0.25309  0.55028  0.17867  1.0000
  S   S91       1.0  0.46929  0.43410  0.02794  1.0000
  H   H364      1.0  0.26965  0.53869  0.15812  1.0000
  C   C226      1.0  0.45356  0.39004  0.06498  1.0000
  H   H365      1.0  0.43392  0.35509  0.05536  1.0000
  H   H366      1.0  0.40148  0.40123  0.07542  1.0000
  H   H367      1.0  0.44748  0.62338  0.16611  1.0000
  H   H368      1.0  0.47499  0.43166  0.24071  1.0000
  H   H369      1.0  0.40110  0.57163  0.04173  1.0000
  C   C227      1.0  0.35657  0.57044  0.01328  1.0000
  C   C228      1.0  0.25468  0.51637  0.20585  1.0000
  C   C229      1.0  0.26279  0.49597  0.28412  1.0000
  Fe  Fe49      1.0  0.48652  0.35587  0.02546  1.0000
  S   S92       1.0  0.48401  0.37624  0.18133  1.0000
  C   C230      1.0  0.48387  0.34358  0.11378  1.0000
  H   H370      1.0  0.34326  0.56691  0.05400  1.0000
  C   C231      1.0  0.28768  0.53215  0.19571  1.0000
  H   H371      1.0  0.49436  0.35784  0.08359  1.0000
  H   H372      1.0  0.42664  0.57947  0.13663  1.0000
  C   C232      1.0  0.40185  0.44380  0.00638  1.0000
  H   H373      1.0  0.47804  0.47233  0.21356  1.0000
  H   H374      1.0  0.48527  0.65161  0.28533  1.0000
  C   C233      1.0  0.25873  0.53495  0.17186  1.0000
  C   C234      1.0  0.44145  0.53502  0.00381  1.0000
  H   H375      1.0  0.48446  0.41464  0.20638  1.0000
  C   C235      1.0  0.49030  0.43977  0.23936  1.0000
  H   H376      1.0  0.41076  0.52212  0.00061  1.0000
  S   S93       1.0  0.48920  0.61770  0.19133  1.0000
  H   H377      1.0  0.24897  0.53106  0.21390  1.0000
  H   H378      1.0  0.45767  0.66177  0.09496  1.0000
  C   C236      1.0  0.47807  0.48916  0.01332  1.0000
  S   S94       1.0  0.47572  0.33163  0.05050  1.0000
  S   S95       1.0  0.32735  0.48301  0.99788  1.0000
  H   H379      1.0  0.48466  0.47892  0.02638  1.0000
  H   H380      1.0  0.36236  0.57948  0.99893  1.0000
  H   H381      1.0  0.25486  0.42742  0.63719  1.0000
  C   C237      1.0  0.27889  0.56904  0.46274  1.0000
  H   H382      1.0  0.25100  0.55642  0.43423  1.0000
  C   C238      1.0  0.24992  0.54930  0.45061  1.0000
  H   H383      1.0  0.25786  0.56562  0.50056  1.0000
  H   H384      1.0  0.26309  0.53962  0.49011  1.0000
  H   H385      1.0  0.25109  0.46629  0.63965  1.0000
  H   H386      1.0  0.25991  0.53444  0.45080  1.0000
  N   N24       1.0  0.25643  0.56421  0.46660  1.0000
  C   C239      1.0  0.25346  0.55459  0.48811  1.0000
  H   H387      1.0  0.28926  0.55446  0.46392  1.0000
  H   H388      1.0  0.28155  0.57637  0.44663  1.0000
  H   H389      1.0  0.28424  0.58036  0.47448  1.0000
  H   H390      1.0  0.24798  0.59562  0.47681  1.0000
  C   C240      1.0  0.25476  0.46447  0.65679  1.0000
  H   H391      1.0  0.27597  0.42697  0.65560  1.0000
  C   C241      1.0  0.25852  0.42649  0.65439  1.0000
  H   H392      1.0  0.25351  0.41078  0.66078  1.0000
  H   H393      1.0  0.27206  0.46606  0.65823  1.0000
  H   H394      1.0  0.40974  0.56607  0.82079  1.0000
  Fe  Fe50      1.0  0.36252  0.47855  0.99619  1.0000
  Fe  Fe51      1.0  0.33172  0.49981  0.96607  1.0000
  S   S96       1.0  0.31458  0.48853  0.93762  1.0000
  S   S97       1.0  0.36667  0.49384  0.96396  1.0000
  S   S98       1.0  0.47299  0.64125  0.76187  1.0000
  H   H395      1.0  0.37805  0.42114  0.95949  1.0000
  S   S99       1.0  0.48019  0.61141  0.80519  1.0000
  H   H396      1.0  0.47853  0.45784  0.98541  1.0000
  Fe  Fe52      1.0  0.45535  0.63421  0.79260  1.0000
  S   S100      1.0  0.42083  0.62585  0.79446  1.0000
  Fe  Fe53      1.0  0.36736  0.51816  0.77782  1.0000
  S   S101      1.0  0.33556  0.53340  0.78429  1.0000
  S   S102      1.0  0.39644  0.53482  0.76526  1.0000
  Fe  Fe54      1.0  0.35187  0.47410  0.78956  1.0000
  S   S103      1.0  0.31839  0.48626  0.79668  1.0000
  S   S104      1.0  0.36243  0.43948  0.79308  1.0000
  Fe  Fe55      1.0  0.32229  0.50656  0.76655  1.0000
  S   S105      1.0  0.30369  0.51566  0.73643  1.0000
  Fe  Fe56      1.0  0.33452  0.51203  0.81358  1.0000
  S   S106      1.0  0.32913  0.52904  0.84471  1.0000
  S   S107      1.0  0.35470  0.49238  0.75871  1.0000
  S   S108      1.0  0.36744  0.49859  0.80799  1.0000
  Fe  Fe57      1.0  0.47794  0.38681  0.79413  1.0000
  S   S109      1.0  0.46131  0.41878  0.78835  1.0000
  C   C242      1.0  0.40793  0.38145  0.74471  1.0000
  H   H397      1.0  0.39727  0.52780  0.86470  1.0000
  S   S110      1.0  0.38966  0.54987  0.96977  1.0000
  C   C243      1.0  0.38994  0.43385  0.79246  1.0000
  C   C244      1.0  0.39780  0.41338  0.79801  1.0000
  C   C245      1.0  0.41969  0.40851  0.79719  1.0000
  C   C246      1.0  0.43379  0.42408  0.79055  1.0000
  C   C247      1.0  0.42592  0.44453  0.78510  1.0000
  C   C248      1.0  0.40411  0.44943  0.78610  1.0000
  H   H398      1.0  0.38689  0.40134  0.80313  1.0000
  H   H399      1.0  0.42562  0.39280  0.80175  1.0000
  H   H400      1.0  0.43671  0.45666  0.77994  1.0000
  H   H401      1.0  0.39822  0.46522  0.78173  1.0000
  C   C249      1.0  0.27919  0.50919  0.72526  1.0000
  H   H402      1.0  0.46836  0.65106  0.86777  1.0000
  Fe  Fe58      1.0  0.49132  0.34990  0.82354  1.0000
  C   C250      1.0  0.26431  0.49667  0.73606  1.0000
  S   S111      1.0  0.46808  0.63961  0.94528  1.0000
  C   C251      1.0  0.47189  0.37556  0.90236  1.0000
  H   H403      1.0  0.26755  0.49042  0.75183  1.0000
  C   C252      1.0  0.41410  0.60069  0.78593  1.0000
  C   C253      1.0  0.39306  0.59450  0.78812  1.0000
  C   C254      1.0  0.38740  0.57426  0.78203  1.0000
  C   C255      1.0  0.40275  0.56024  0.77338  1.0000
  C   C256      1.0  0.42367  0.56660  0.77083  1.0000
  C   C257      1.0  0.42939  0.58667  0.77724  1.0000
  H   H404      1.0  0.38116  0.60538  0.79467  1.0000
  H   H405      1.0  0.37120  0.56959  0.78396  1.0000
  H   H406      1.0  0.43561  0.55589  0.76405  1.0000
  H   H407      1.0  0.44561  0.59133  0.77537  1.0000
  C   C258      1.0  0.31979  0.49946  0.91183  1.0000
  C   C259      1.0  0.31527  0.48784  0.89395  1.0000
  C   C260      1.0  0.31887  0.49630  0.87326  1.0000
  C   C261      1.0  0.32617  0.51684  0.87029  1.0000
  C   C262      1.0  0.33043  0.52853  0.88818  1.0000
  C   C263      1.0  0.32773  0.51972  0.90883  1.0000
  H   H408      1.0  0.30869  0.47235  0.89608  1.0000
  H   H409      1.0  0.31519  0.48728  0.85964  1.0000
  H   H410      1.0  0.33556  0.54461  0.88612  1.0000
  H   H411      1.0  0.33099  0.52894  0.92244  1.0000
  C   C264      1.0  0.49400  0.46497  0.98806  1.0000
  S   S112      1.0  0.33403  0.53130  0.98120  1.0000
  C   C265      1.0  0.40506  0.55116  0.82927  1.0000
  C   C266      1.0  0.42422  0.35061  0.76196  1.0000
  C   C267      1.0  0.38320  0.53528  0.85700  1.0000
  H   H412      1.0  0.36317  0.44617  0.90755  1.0000
  C   C268      1.0  0.46781  0.64462  0.90172  1.0000
  H   H413      1.0  0.35592  0.56695  0.84714  1.0000
  S   S113      1.0  0.46646  0.37469  0.94586  1.0000
  H   H414      1.0  0.34064  0.42819  0.97001  1.0000
  H   H415      1.0  0.41014  0.34102  0.75977  1.0000
  H   H416      1.0  0.32444  0.55026  0.70314  1.0000
  N   N25       1.0  0.35482  0.55425  0.71632  1.0000
  C   C269      1.0  0.34568  0.56043  0.73715  1.0000
  C   C270      1.0  0.33918  0.55912  0.69982  1.0000
  C   C271      1.0  0.36019  0.53127  0.71682  1.0000
  C   C272      1.0  0.37418  0.56612  0.71166  1.0000
  H   H417      1.0  0.35703  0.55681  0.74996  1.0000
  H   H418      1.0  0.34154  0.57769  0.73746  1.0000
  H   H419      1.0  0.34546  0.55463  0.68385  1.0000
  H   H420      1.0  0.33460  0.57631  0.69909  1.0000
  H   H421      1.0  0.37193  0.52699  0.72913  1.0000
  H   H422      1.0  0.34598  0.52182  0.72052  1.0000
  H   H423      1.0  0.38616  0.56266  0.72403  1.0000
  H   H424      1.0  0.37077  0.58354  0.71130  1.0000
  H   H425      1.0  0.38163  0.56182  0.69610  1.0000
  N   N26       1.0  0.35423  0.43391  0.93868  1.0000
  C   C273      1.0  0.34889  0.41296  0.93099  1.0000
  C   C274      1.0  0.35232  0.44996  0.92123  1.0000
  H   H426      1.0  0.43136  0.36813  0.71085  1.0000
  C   C275      1.0  0.33952  0.43977  0.95638  1.0000
  H   H427      1.0  0.33243  0.41321  0.92528  1.0000
  H   H428      1.0  0.35018  0.40051  0.94381  1.0000
  H   H429      1.0  0.35965  0.40804  0.91758  1.0000
  S   S114      1.0  0.46557  0.35413  0.79950  1.0000
  C   C276      1.0  0.47663  0.64359  0.88092  1.0000
  H   H430      1.0  0.33594  0.45115  0.91534  1.0000
  H   H431      1.0  0.32283  0.44095  0.95132  1.0000
  H   H432      1.0  0.38770  0.42849  0.93326  1.0000
  H   H433      1.0  0.40932  0.39399  0.73200  1.0000
  S   S115      1.0  0.46723  0.66262  0.80903  1.0000
  H   H434      1.0  0.39324  0.37288  0.74223  1.0000
  H   H435      1.0  0.46473  0.49371  0.97358  1.0000
  H   H436      1.0  0.37076  0.53790  0.86959  1.0000
  H   H437      1.0  0.39974  0.54023  0.81713  1.0000
  H   H438      1.0  0.33099  0.55182  0.74118  1.0000
  H   H439      1.0  0.41509  0.34708  0.72092  1.0000
  C   C277      1.0  0.41531  0.54896  0.97930  1.0000
  H   H440      1.0  0.35598  0.46603  0.92656  1.0000
  H   H441      1.0  0.36707  0.52599  0.70135  1.0000
  H   H442      1.0  0.41004  0.56434  0.86892  1.0000
  C   C278      1.0  0.25523  0.51299  0.69528  1.0000
  H   H443      1.0  0.28575  0.52698  0.69621  1.0000
  Fe  Fe59      1.0  0.48067  0.37197  0.97877  1.0000
  H   H444      1.0  0.37701  0.52363  0.84610  1.0000
  H   H445      1.0  0.42235  0.35796  0.77776  1.0000
  N   N27       1.0  0.38829  0.55534  0.84560  1.0000
  H   H446      1.0  0.41953  0.54383  0.83634  1.0000
  H   H447      1.0  0.46522  0.39155  0.90312  1.0000
  C   C279      1.0  0.39568  0.57060  0.86079  1.0000
  H   H448      1.0  0.44785  0.39187  0.73611  1.0000
  H   H449      1.0  0.48505  0.33316  0.93435  1.0000
  Fe  Fe60      1.0  0.49322  0.63982  0.82006  1.0000
  H   H450      1.0  0.36342  0.55345  0.82341  1.0000
  H   H451      1.0  0.38332  0.57416  0.87327  1.0000
  C   C280      1.0  0.36917  0.56433  0.83535  1.0000
  H   H452      1.0  0.39970  0.58591  0.85265  1.0000
  H   H453      1.0  0.46029  0.36855  0.74783  1.0000
  H   H454      1.0  0.44317  0.34516  0.72384  1.0000
  H   H455      1.0  0.49018  0.49827  0.96103  1.0000
  C   C281      1.0  0.48468  0.34588  0.88111  1.0000
  H   H456      1.0  0.38061  0.44848  0.95214  1.0000
  H   H457      1.0  0.24684  0.47803  0.66510  1.0000
  C   C282      1.0  0.42914  0.35637  0.72416  1.0000
  H   H458      1.0  0.44482  0.38642  0.76403  1.0000
  Fe  Fe61      1.0  0.48241  0.62573  0.97570  1.0000
  C   C283      1.0  0.47489  0.36357  0.92128  1.0000
  C   C284      1.0  0.42151  0.53404  0.99494  1.0000
  H   H459      1.0  0.40578  0.38969  0.76003  1.0000
  H   H460      1.0  0.26994  0.44374  0.69099  1.0000
  C   C285      1.0  0.44574  0.37896  0.74830  1.0000
  C   C286      1.0  0.42940  0.56420  0.97186  1.0000
  H   H461      1.0  0.47894  0.51665  0.97963  1.0000
  H   H462      1.0  0.37220  0.57979  0.82712  1.0000
  C   C287      1.0  0.37613  0.43293  0.94614  1.0000
  N   N28       1.0  0.42674  0.36685  0.74477  1.0000
  C   C288      1.0  0.27449  0.51722  0.70477  1.0000
  S   S116      1.0  0.48978  0.33358  0.85638  1.0000
  Fe  Fe62      1.0  0.49041  0.34373  0.77484  1.0000
  C   C289      1.0  0.44952  0.56480  0.98028  1.0000
  H   H463      1.0  0.42471  0.57570  0.95966  1.0000
  H   H464      1.0  0.47426  0.37618  0.86800  1.0000
  H   H465      1.0  0.49477  0.45258  0.83675  1.0000
  Fe  Fe63      1.0  0.36887  0.52380  0.98140  1.0000
  H   H466      1.0  0.49077  0.42951  0.82165  1.0000
  C   C290      1.0  0.47699  0.36688  0.88240  1.0000
  C   C291      1.0  0.47845  0.63532  0.91911  1.0000
  H   H467      1.0  0.46041  0.57643  0.97416  1.0000
  H   H468      1.0  0.25188  0.51950  0.67964  1.0000
  C   C292      1.0  0.25272  0.44240  0.68862  1.0000
  H   H469      1.0  0.34307  0.45548  0.96252  1.0000
  H   H470      1.0  0.47809  0.45419  0.81413  1.0000
  H   H471      1.0  0.45279  0.65299  0.90439  1.0000
  H   H472      1.0  0.43825  0.33943  0.76254  1.0000
  H   H473      1.0  0.44687  0.41504  0.99519  1.0000
  C   C293      1.0  0.48316  0.34278  0.92001  1.0000
  C   C294      1.0  0.48080  0.49951  0.97616  1.0000
  N   N29       1.0  0.49122  0.48750  0.99363  1.0000
  C   C295      1.0  0.48787  0.33397  0.90004  1.0000
  H   H474      1.0  0.40957  0.41820  0.98538  1.0000
  H   H475      1.0  0.49310  0.45097  0.77840  1.0000
  C   C296      1.0  0.49300  0.44691  0.82042  1.0000
  N   N30       1.0  0.24768  0.44401  0.66590  1.0000
  H   H476      1.0  0.24774  0.42710  0.69604  1.0000
  C   C297      1.0  0.41533  0.42844  0.99717  1.0000
  C   C298      1.0  0.45545  0.55051  0.99656  1.0000
  C   C299      1.0  0.47114  0.72861  0.28095  1.0000
  S   S117      1.0  0.47454  0.75773  0.31220  1.0000
  C   C300      1.0  0.47833  0.71595  0.26391  1.0000
  H   H477      1.0  0.46741  0.70630  0.25602  1.0000
  H   H478      1.0  0.45465  0.72853  0.28600  1.0000
  H   H479      1.0  0.46403  0.79821  0.28880  1.0000
  C   C301      1.0  0.48496  0.74144  0.29143  1.0000
  H   H480      1.0  0.47736  0.83397  0.29469  1.0000
  H   H481      1.0  0.45832  0.80544  0.26177  1.0000
  H   H482      1.0  0.47112  0.84172  0.26791  1.0000
  C   C302      1.0  0.47095  0.79917  0.27234  1.0000
  S   S118      1.0  0.47761  0.66956  0.18915  1.0000
  H   H483      1.0  0.49025  0.67672  0.29669  1.0000
  N   N31       1.0  0.48963  0.81255  0.27107  1.0000
  H   H484      1.0  0.47513  0.78257  0.26782  1.0000
  H   H485      1.0  0.48627  0.82070  0.23800  1.0000
  C   C303      1.0  0.48355  0.83416  0.27798  1.0000
  H   H486      1.0  0.49421  0.67316  0.26882  1.0000
  S   S119      1.0  0.47465  0.97966  0.61137  1.0000
  C   C304      1.0  0.35327  0.94987  0.43629  1.0000
  C   C305      1.0  0.32806  0.76277  0.43791  1.0000
  H   H487      1.0  0.46221  0.98861  0.48586  1.0000
  H   H488      1.0  0.35827  0.94223  0.45147  1.0000
  S   S120      1.0  0.32299  0.95892  0.51444  1.0000
  H   H489      1.0  0.25031  0.75847  0.46697  1.0000
  C   C306      1.0  0.40906  0.98419  0.41987  1.0000
  Fe  Fe64      1.0  0.48634  0.78050  0.33669  1.0000
  N   N32       1.0  0.37245  0.87058  0.54250  1.0000
  Fe  Fe65      1.0  0.47231  0.79952  0.61071  1.0000
  S   S121      1.0  0.45819  0.79649  0.57844  1.0000
  Fe  Fe66      1.0  0.34199  0.83500  0.48811  1.0000
  S   S122      1.0  0.37176  0.81819  0.49902  1.0000
  S   S123      1.0  0.34759  0.86891  0.47626  1.0000
  Fe  Fe67      1.0  0.31649  0.79374  0.49329  1.0000
  S   S124      1.0  0.34453  0.77491  0.50557  1.0000
  S   S125      1.0  0.28573  0.77901  0.48350  1.0000
  Fe  Fe68      1.0  0.35091  0.80356  0.52434  1.0000
  S   S126      1.0  0.36035  0.80351  0.55875  1.0000
  Fe  Fe69      1.0  0.36280  0.79142  0.47917  1.0000
  S   S127      1.0  0.38494  0.77204  0.45806  1.0000
  S   S128      1.0  0.32115  0.82157  0.51440  1.0000
  S   S129      1.0  0.33475  0.80913  0.46600  1.0000
  H   H490      1.0  0.43337  0.96023  0.61879  1.0000
  H   H491      1.0  0.38758  0.97764  0.37189  1.0000
  H   H492      1.0  0.39917  0.96878  0.63599  1.0000
  H   H493      1.0  0.32998  0.98357  0.45027  1.0000
  Fe  Fe70      1.0  0.46688  0.80908  0.37212  1.0000
  S   S130      1.0  0.43757  0.82382  0.38801  1.0000
  C   C307      1.0  0.39987  0.78661  0.43899  1.0000
  C   C308      1.0  0.39554  0.80826  0.43525  1.0000
  C   C309      1.0  0.40724  0.81947  0.41959  1.0000
  C   C310      1.0  0.42350  0.80920  0.40774  1.0000
  C   C311      1.0  0.42797  0.78759  0.41162  1.0000
  C   C312      1.0  0.41608  0.77631  0.42711  1.0000
  H   H494      1.0  0.38306  0.81634  0.44430  1.0000
  H   H495      1.0  0.40367  0.83616  0.41667  1.0000
  H   H496      1.0  0.44045  0.77953  0.40257  1.0000
  H   H497      1.0  0.41954  0.75958  0.42996  1.0000
  C   C313      1.0  0.27509  0.75365  0.48943  1.0000
  C   C314      1.0  0.25724  0.74762  0.47863  1.0000
  C   C315      1.0  0.42708  0.88467  0.38511  1.0000
  C   C316      1.0  0.28389  0.73940  0.50441  1.0000
  C   C317      1.0  0.38906  0.98297  0.38790  1.0000
  H   H498      1.0  0.49529  0.78009  0.55248  1.0000
  H   H499      1.0  0.29751  0.74377  0.51298  1.0000
  C   C318      1.0  0.43086  0.79837  0.57360  1.0000
  C   C319      1.0  0.41567  0.80174  0.58984  1.0000
  C   C320      1.0  0.39405  0.80304  0.58517  1.0000
  C   C321      1.0  0.38752  0.80103  0.56428  1.0000
  C   C322      1.0  0.40275  0.79784  0.54806  1.0000
  C   C323      1.0  0.42430  0.79651  0.55271  1.0000
  H   H500      1.0  0.42056  0.80314  0.60599  1.0000
  H   H501      1.0  0.38235  0.80551  0.59781  1.0000
  H   H502      1.0  0.39794  0.79605  0.53195  1.0000
  H   H503      1.0  0.43593  0.79376  0.54007  1.0000
  C   C324      1.0  0.33081  0.93346  0.50533  1.0000
  C   C325      1.0  0.31760  0.91632  0.50947  1.0000
  C   C326      1.0  0.32281  0.89618  0.50132  1.0000
  C   C327      1.0  0.34126  0.89308  0.48885  1.0000
  C   C328      1.0  0.35470  0.91007  0.48518  1.0000
  C   C329      1.0  0.34965  0.93007  0.49359  1.0000
  H   H504      1.0  0.30301  0.91877  0.51861  1.0000
  H   H505      1.0  0.31219  0.88328  0.50408  1.0000
  H   H506      1.0  0.36906  0.90777  0.47564  1.0000
  H   H507      1.0  0.36022  0.94294  0.49077  1.0000
  C   C330      1.0  0.47352  0.99438  0.52571  1.0000
  H   H508      1.0  0.30546  0.97037  0.45323  1.0000
  C   C331      1.0  0.27478  0.71959  0.50869  1.0000
  C   C332      1.0  0.38707  0.86877  0.52384  1.0000
  Fe  Fe71      1.0  0.48909  0.98076  0.64312  1.0000
  H   H509      1.0  0.35826  0.90014  0.53141  1.0000
  Fe  Fe72      1.0  0.45944  0.97354  0.39100  1.0000
  H   H510      1.0  0.33158  0.97824  0.41210  1.0000
  H   H511      1.0  0.34316  0.77073  0.44031  1.0000
  H   H512      1.0  0.37229  0.86227  0.57584  1.0000
  C   C333      1.0  0.36625  0.89310  0.54556  1.0000
  C   C334      1.0  0.48556  0.91393  0.64526  1.0000
  H   H513      1.0  0.33489  0.72174  0.47348  1.0000
  H   H514      1.0  0.32190  0.74713  0.47726  1.0000
  N   N33       1.0  0.33007  0.95320  0.43587  1.0000
  C   C335      1.0  0.43478  0.94543  0.62880  1.0000
  C   C336      1.0  0.32293  0.96779  0.45272  1.0000
  H   H515      1.0  0.31535  0.77153  0.44703  1.0000
  H   H516      1.0  0.32365  0.92542  0.45526  1.0000
  H   H517      1.0  0.46908  0.87701  0.35095  1.0000
  H   H518      1.0  0.35501  0.89498  0.55936  1.0000
  H   H519      1.0  0.46158  0.86130  0.39655  1.0000
  H   H520      1.0  0.48049  0.88050  0.38812  1.0000
  H   H521      1.0  0.44183  0.88162  0.34482  1.0000
  H   H522      1.0  0.36137  0.96514  0.43460  1.0000
  C   C337      1.0  0.24825  0.72770  0.48276  1.0000
  N   N34       1.0  0.44908  0.88719  0.37721  1.0000
  H   H523      1.0  0.40138  0.87814  0.52561  1.0000
  H   H524      1.0  0.42378  0.86768  0.38856  1.0000
  C   C338      1.0  0.45283  0.90994  0.37310  1.0000
  C   C339      1.0  0.45263  0.87555  0.35735  1.0000
  C   C340      1.0  0.48022  0.89226  0.64589  1.0000
  H   H525      1.0  0.48152  0.97866  0.52889  1.0000
  S   S131      1.0  0.47056  0.81308  0.33682  1.0000
  C   C341      1.0  0.32422  0.96261  0.41504  1.0000
  H   H526      1.0  0.46917  0.91248  0.36680  1.0000
  H   H527      1.0  0.42880  0.93234  0.61954  1.0000
  H   H528      1.0  0.34851  0.71229  0.43728  1.0000
  H   H529      1.0  0.38019  0.90274  0.54826  1.0000
  S   S132      1.0  0.45732  0.80079  0.64331  1.0000
  H   H530      1.0  0.28159  0.70886  0.52054  1.0000
  H   H531      1.0  0.44998  0.85832  0.35993  1.0000
  H   H532      1.0  0.35759  0.84160  0.53648  1.0000
  H   H533      1.0  0.32750  0.96158  0.46864  1.0000
  C   C342      1.0  0.40714  0.97728  0.39918  1.0000
  H   H534      1.0  0.39319  0.94119  0.63603  1.0000
  H   H535      1.0  0.30682  0.96537  0.41413  1.0000
  H   H536      1.0  0.32529  0.92103  0.42730  1.0000
  N   N35       1.0  0.32956  0.74019  0.44475  1.0000
  C   C343      1.0  0.30925  0.73028  0.44126  1.0000
  C   C344      1.0  0.34676  0.72934  0.43242  1.0000
  C   C345      1.0  0.33422  0.73851  0.46754  1.0000
  H   H537      1.0  0.29606  0.73837  0.45035  1.0000
  H   H538      1.0  0.30966  0.71330  0.44654  1.0000
  H   H539      1.0  0.30521  0.73118  0.42422  1.0000
  H   H540      1.0  0.34387  0.73034  0.41511  1.0000
  H   H541      1.0  0.36224  0.73667  0.43484  1.0000
  H   H542      1.0  0.34971  0.74535  0.47068  1.0000
  H   H543      1.0  0.34499  0.86457  0.52476  1.0000
  C   C346      1.0  0.46375  0.87856  0.39335  1.0000
  H   H544      1.0  0.48920  0.82676  0.56107  1.0000
  H   H545      1.0  0.37936  0.87449  0.50901  1.0000
  H   H546      1.0  0.47902  0.81338  0.53922  1.0000
  H   H547      1.0  0.46126  0.88670  0.40866  1.0000
  S   S133      1.0  0.47983  0.77553  0.37188  1.0000
  H   H548      1.0  0.38803  0.84482  0.55951  1.0000
  H   H549      1.0  0.32451  0.76471  0.42080  1.0000
  H   H550      1.0  0.41777  0.91428  0.65296  1.0000
  H   H551      1.0  0.42301  0.97971  0.42865  1.0000
  C   C347      1.0  0.35341  0.85854  0.53901  1.0000
  H   H552      1.0  0.41557  0.89083  0.37327  1.0000
  H   H553      1.0  0.39246  0.85200  0.52145  1.0000
  S   S134      1.0  0.42699  0.96139  0.38715  1.0000
  C   C348      1.0  0.25689  0.71358  0.49797  1.0000
  H   H554      1.0  0.34207  0.85917  0.55284  1.0000
  H   H555      1.0  0.45057  0.91915  0.38782  1.0000
  H   H556      1.0  0.30239  0.93450  0.43891  1.0000
  S   S135      1.0  0.48613  0.95009  0.39652  1.0000
  Fe  Fe73      1.0  0.33948  0.98898  0.50344  1.0000
  H   H557      1.0  0.39741  0.87049  0.56485  1.0000
  H   H558      1.0  0.35937  0.93964  0.42324  1.0000
  C   C349      1.0  0.31990  0.93264  0.43943  1.0000
  H   H559      1.0  0.32952  0.95219  0.40184  1.0000
  Fe  Fe74      1.0  0.48436  0.77903  0.65402  1.0000
  C   C350      1.0  0.38303  0.86176  0.56154  1.0000
  Fe  Fe75      1.0  0.47888  0.82767  0.64838  1.0000
  H   H560      1.0  0.44178  0.91716  0.36131  1.0000
  H   H561      1.0  0.45190  0.94195  0.63124  1.0000
  S   S136      1.0  0.36896  0.98779  0.48286  1.0000
  H   H562      1.0  0.42383  0.89337  0.40001  1.0000
  S   S137      1.0  0.47504  0.99095  0.36365  1.0000
  N   N36       1.0  0.42303  0.94770  0.64926  1.0000
  H   H563      1.0  0.45632  0.99185  0.52440  1.0000
  S   S138      1.0  0.46963  0.99606  0.41497  1.0000
  H   H564      1.0  0.38934  0.99137  0.58719  1.0000
  H   H565      1.0  0.49459  0.83636  0.53435  1.0000
  H   H566      1.0  0.43131  0.98009  0.65249  1.0000
  C   C351      1.0  0.43226  0.96457  0.66134  1.0000
  C   C352      1.0  0.47925  0.99147  0.48790  1.0000
  H   H567      1.0  0.39132  0.95542  0.66035  1.0000
  H   H568      1.0  0.38677  0.99340  0.54797  1.0000
  C   C353      1.0  0.40066  0.95348  0.64525  1.0000
  S   S139      1.0  0.49166  0.82808  0.61491  1.0000
  H   H569      1.0  0.47990  0.88363  0.63137  1.0000
  H   H570      1.0  0.48767  0.97575  0.48969  1.0000
  C   C354      1.0  0.42449  0.92744  0.66159  1.0000
  C   C355      1.0  0.49297  0.82179  0.54453  1.0000
  H   H571      1.0  0.48971  0.92176  0.63030  1.0000
  C   C356      1.0  0.37303  0.99580  0.39714  1.0000
  S   S140      1.0  0.24580  0.68859  0.50473  1.0000
  C   C357      1.0  0.39278  0.99672  0.42930  1.0000
  S   S141      1.0  0.47469  0.75026  0.67521  1.0000
  H   H572      1.0  0.44922  0.96091  0.66445  1.0000
  H   H573      1.0  0.42396  0.96669  0.67696  1.0000
  H   H574      1.0  0.41598  0.92859  0.67724  1.0000
  C   C358      1.0  0.47024  0.71815  0.70557  1.0000
  H   H575      1.0  0.44961  0.83369  0.71938  1.0000
  C   C359      1.0  0.48174  0.73602  0.69908  1.0000
  H   H576      1.0  0.44121  0.92271  0.66474  1.0000
  H   H577      1.0  0.47885  0.81647  0.69923  1.0000
  N   N37       1.0  0.45394  0.80006  0.71589  1.0000
  C   C360      1.0  0.47630  0.80161  0.70884  1.0000
  C   C361      1.0  0.47454  0.70678  0.72470  1.0000
  H   H578      1.0  0.45775  0.71315  0.69578  1.0000
  C   C362      1.0  0.44768  0.81857  0.72875  1.0000
  H   H579      1.0  0.46533  0.69325  0.72946  1.0000
  H   H580      1.0  0.43467  0.77875  0.73463  1.0000
  H   H581      1.0  0.46166  0.77947  0.74260  1.0000
  H   H582      1.0  0.44245  0.81447  0.68695  1.0000
  H   H583      1.0  0.45538  0.76607  0.71913  1.0000
  H   H584      1.0  0.47128  0.88575  0.69905  1.0000
  S   S142      1.0  0.46603  0.85556  0.66754  1.0000
  H   H585      1.0  0.44485  0.78598  0.68714  1.0000
  C   C363      1.0  0.45128  0.78027  0.72868  1.0000
  H   H586      1.0  0.43085  0.81803  0.73427  1.0000
  H   H587      1.0  0.42357  0.79884  0.70176  1.0000
  S   S143      1.0  0.49357  0.95197  0.66532  1.0000
  H   H588      1.0  0.48148  0.78802  0.69887  1.0000
  C   C364      1.0  0.44059  0.79986  0.69713  1.0000
  H   H589      1.0  0.48187  0.92292  0.69810  1.0000
  H   H590      1.0  0.45751  0.81924  0.74300  1.0000
  C   C365      1.0  0.49039  0.71318  0.73778  1.0000
  H   H591      1.0  0.48696  0.80156  0.72250  1.0000
  C   C366      1.0  0.48125  0.91458  0.68341  1.0000
  C   C367      1.0  0.47535  0.89340  0.68396  1.0000
  C   C368      1.0  0.47505  0.88193  0.66536  1.0000
  Fe  Fe76      1.0  0.48690  0.66802  0.77871  1.0000
  H   H592      1.0  0.49308  0.67396  0.92481  1.0000
  H   H593      1.0  0.49291  0.67986  0.96235  1.0000
  C   C369      1.0  0.48619  0.92514  0.66415  1.0000
  H   H594      1.0  0.51510  0.24887  0.30339  1.0000
  C   C370      1.0  0.51194  0.27380  0.27912  1.0000
  H   H595      1.0  0.52882  0.27520  0.27677  1.0000
  C   C371      1.0  0.49814  0.28705  0.26709  1.0000
  H   H596      1.0  0.53026  0.26094  0.19723  1.0000
  S   S144      1.0  0.50910  0.30520  0.24763  1.0000
  H   H597      1.0  0.52196  0.28675  0.20618  1.0000
  C   C372      1.0  0.50419  0.25881  0.29432  1.0000
  C   C373      1.0  0.51753  0.26985  0.20609  1.0000
  H   H598      1.0  0.51747  0.26399  0.22295  1.0000
  H   H599      1.0  0.50928  0.26798  0.16448  1.0000
  C   C374      1.0  0.49724  0.27646  0.17461  1.0000
  H   H600      1.0  0.50357  0.23569  0.18718  1.0000
  N   N38       1.0  0.49670  0.26768  0.19662  1.0000
  H   H601      1.0  0.50108  0.29352  0.17406  1.0000
  C   C375      1.0  0.65310  0.26298  0.52892  1.0000
  Fe  Fe77      1.0  0.64778  0.02714  0.49936  1.0000
  S   S145      1.0  0.66922  0.05433  0.49097  1.0000
  S   S146      1.0  0.61739  0.03437  0.51708  1.0000
  H   H602      1.0  0.63169  0.12630  0.47589  1.0000
  C   C376      1.0  0.55181  0.00763  0.54980  1.0000
  H   H603      1.0  0.60154  0.07686  0.48080  1.0000
  S   S147      1.0  0.53681  0.22297  0.40077  1.0000
  S   S148      1.0  0.51759  0.19812  0.34702  1.0000
  Fe  Fe78      1.0  0.51702  0.20909  0.62747  1.0000
  S   S149      1.0  0.55196  0.20481  0.61959  1.0000
  S   S150      1.0  0.50731  0.19458  0.65910  1.0000
  Fe  Fe79      1.0  0.64960  0.17453  0.51524  1.0000
  S   S151      1.0  0.61544  0.18082  0.50850  1.0000
  S   S152      1.0  0.65509  0.14389  0.53422  1.0000
  Fe  Fe80      1.0  0.66310  0.21587  0.49275  1.0000
  S   S153      1.0  0.62958  0.22394  0.48334  1.0000
  S   S154      1.0  0.68686  0.24049  0.48046  1.0000
  Fe  Fe81      1.0  0.62065  0.21425  0.51687  1.0000
  S   S155      1.0  0.59577  0.23571  0.53272  1.0000
  Fe  Fe82      1.0  0.62709  0.18971  0.47570  1.0000
  S   S156      1.0  0.60912  0.17306  0.45091  1.0000
  S   S157      1.0  0.65405  0.20765  0.52681  1.0000
  S   S158      1.0  0.66132  0.18197  0.48196  1.0000
  C   C377      1.0  0.50215  0.07234  0.35956  1.0000
  C   C378      1.0  0.72298  0.27034  0.52260  1.0000
  C   C379      1.0  0.70926  0.25600  0.51391  1.0000
  C   C380      1.0  0.70498  0.25729  0.49227  1.0000
  C   C381      1.0  0.71478  0.27303  0.47951  1.0000
  C   C382      1.0  0.72848  0.28740  0.48821  1.0000
  H   H604      1.0  0.51620  0.00833  0.43509  1.0000
  H   H605      1.0  0.70217  0.24385  0.52395  1.0000
  H   H606      1.0  0.71158  0.27427  0.46276  1.0000
  C   C383      1.0  0.56291  0.21246  0.59453  1.0000
  C   C384      1.0  0.55338  0.22847  0.58190  1.0000
  C   C385      1.0  0.56353  0.23543  0.56289  1.0000
  C   C386      1.0  0.58297  0.22607  0.55616  1.0000
  C   C387      1.0  0.59215  0.20963  0.56846  1.0000
  C   C388      1.0  0.58231  0.20309  0.58773  1.0000
  H   H607      1.0  0.53849  0.23586  0.58706  1.0000
  H   H608      1.0  0.55635  0.24820  0.55348  1.0000
  H   H609      1.0  0.60713  0.20231  0.56344  1.0000
  H   H610      1.0  0.58980  0.19073  0.59744  1.0000
  C   C389      1.0  0.55789  0.20866  0.41278  1.0000
  C   C390      1.0  0.55874  0.18650  0.41409  1.0000
  C   C391      1.0  0.57498  0.17570  0.42521  1.0000
  C   C392      1.0  0.59039  0.18699  0.43514  1.0000
  C   C393      1.0  0.58995  0.20910  0.43317  1.0000
  C   C394      1.0  0.57365  0.21989  0.42220  1.0000
  H   H611      1.0  0.54674  0.17772  0.40674  1.0000
  H   H612      1.0  0.57536  0.15858  0.42639  1.0000
  H   H613      1.0  0.60207  0.21790  0.44028  1.0000
  H   H614      1.0  0.57321  0.23703  0.42097  1.0000
  S   S159      1.0  0.63238  0.01234  0.47206  1.0000
  H   H615      1.0  0.62387  0.10495  0.49354  1.0000
  H   H616      1.0  0.59320  0.12674  0.44827  1.0000
  S   S160      1.0  0.51273  0.00332  0.56792  1.0000
  C   C395      1.0  0.55509  0.01506  0.46994  1.0000
  C   C396      1.0  0.54095  0.01984  0.45376  1.0000
  Fe  Fe83      1.0  0.49831  0.00343  0.60084  1.0000
  H   H617      1.0  0.54379  0.01486  0.53639  1.0000
  H   H618      1.0  0.54128  0.03505  0.44537  1.0000
  C   C397      1.0  0.57385  0.00609  0.54941  1.0000
  C   C398      1.0  0.66466  0.07920  0.50296  1.0000
  C   C399      1.0  0.65373  0.08098  0.52248  1.0000
  C   C400      1.0  0.65085  0.10089  0.53184  1.0000
  C   C401      1.0  0.65825  0.11931  0.52149  1.0000
  C   C402      1.0  0.66874  0.11762  0.50172  1.0000
  C   C403      1.0  0.67220  0.09760  0.49266  1.0000
  H   H619      1.0  0.64814  0.06692  0.53074  1.0000
  H   H620      1.0  0.64296  0.10202  0.54725  1.0000
  H   H621      1.0  0.67482  0.13163  0.49375  1.0000
  H   H622      1.0  0.68087  0.09636  0.47767  1.0000
  H   H623      1.0  0.54350  0.18663  0.51379  1.0000
  H   H624      1.0  0.56906  0.06544  0.57748  1.0000
  C   C404      1.0  0.50731  0.09189  0.34957  1.0000
  H   H625      1.0  0.66160  0.26615  0.54358  1.0000
  H   H626      1.0  0.67265  0.29967  0.52755  1.0000
  C   C405      1.0  0.63022  0.29414  0.53192  1.0000
  C   C406      1.0  0.57278  0.21889  0.48148  1.0000
  C   C407      1.0  0.50517  0.00780  0.50877  1.0000
  H   H627      1.0  0.59309  0.07779  0.45399  1.0000
  H   H628      1.0  0.56896  0.18082  0.50159  1.0000
  H   H629      1.0  0.54306  0.07793  0.62961  1.0000
  H   H630      1.0  0.57975  0.22837  0.49381  1.0000
  H   H631      1.0  0.55796  0.02222  0.61719  1.0000
  H   H632      1.0  0.63811  0.07835  0.46752  1.0000
  Fe  Fe84      1.0  0.51298  0.20661  0.38142  1.0000
  H   H633      1.0  0.61637  0.28421  0.53597  1.0000
  H   H634      1.0  0.62185  0.26749  0.50128  1.0000
  H   H635      1.0  0.53425  0.23759  0.48402  1.0000
  C   C408      1.0  0.60735  0.11673  0.44370  1.0000
  H   H636      1.0  0.63964  0.25277  0.53352  1.0000
  H   H637      1.0  0.63735  0.29823  0.54709  1.0000
  N   N39       1.0  0.61404  0.10243  0.46143  1.0000
  N   N40       1.0  0.55468  0.05501  0.60719  1.0000
  C   C409      1.0  0.57123  0.05305  0.59023  1.0000
  C   C410      1.0  0.55839  0.03835  0.62376  1.0000
  C   C411      1.0  0.53372  0.05254  0.59813  1.0000
  C   C412      1.0  0.55533  0.07609  0.61666  1.0000
  H   H638      1.0  0.55233  0.08907  0.60468  1.0000
  H   H639      1.0  0.58731  0.05450  0.59650  1.0000
  H   H640      1.0  0.53054  0.06453  0.58523  1.0000
  H   H641      1.0  0.57096  0.03739  0.58266  1.0000
  H   H642      1.0  0.56577  0.20181  0.52008  1.0000
  H   H643      1.0  0.52083  0.05439  0.61040  1.0000
  H   H644      1.0  0.58249  0.01226  0.53576  1.0000
  H   H645      1.0  0.63007  0.29217  0.48925  1.0000
  H   H646      1.0  0.73569  0.29949  0.47817  1.0000
  H   H647      1.0  0.58492  0.20664  0.47667  1.0000
  C   C413      1.0  0.54389  0.19780  0.47187  1.0000
  C   C414      1.0  0.55801  0.19392  0.50698  1.0000
  H   H648      1.0  0.64698  0.26881  0.48731  1.0000
  C   C415      1.0  0.52688  0.00464  0.44781  1.0000
  C   C416      1.0  0.50090  0.11132  0.35860  1.0000
  H   H649      1.0  0.57092  0.07857  0.62361  1.0000
  N   N41       1.0  0.55315  0.20909  0.48933  1.0000
  C   C417      1.0  0.63568  0.27762  0.49808  1.0000
  N   N42       1.0  0.64575  0.28279  0.51800  1.0000
  H   H650      1.0  0.54614  0.03934  0.63681  1.0000
  H   H651      1.0  0.54475  0.23452  0.51016  1.0000
  C   C418      1.0  0.56000  0.25469  0.64428  1.0000
  Fe  Fe85      1.0  0.60246  0.01764  0.49110  1.0000
  H   H652      1.0  0.52302  0.21901  0.50300  1.0000
  H   H653      1.0  0.60479  0.12504  0.48517  1.0000
  H   H654      1.0  0.53242  0.03662  0.59140  1.0000
  H   H655      1.0  0.54036  0.20872  0.45809  1.0000
  C   C419      1.0  0.53808  0.22580  0.49696  1.0000
  H   H656      1.0  0.55498  0.18511  0.46581  1.0000
  C   C420      1.0  0.73267  0.28617  0.50987  1.0000
  H   H657      1.0  0.57404  0.03972  0.63098  1.0000
  Fe  Fe86      1.0  0.49955  0.16889  0.35718  1.0000
  C   C421      1.0  0.63316  0.08990  0.45480  1.0000
  H   H658      1.0  0.63043  0.08063  0.44050  1.0000
  C   C422      1.0  0.59695  0.08787  0.46742  1.0000
  C   C423      1.0  0.61877  0.11520  0.47983  1.0000
  H   H659      1.0  0.58220  0.09668  0.47244  1.0000
  H   H660      1.0  0.64674  0.10023  0.45111  1.0000
  C   C424      1.0  0.54028  0.00026  0.56757  1.0000
  H   H661      1.0  0.67547  0.28844  0.50187  1.0000
  H   H662      1.0  0.65891  0.31170  0.50544  1.0000
  H   H663      1.0  0.50726  0.05758  0.35242  1.0000
  C   C425      1.0  0.66394  0.29628  0.51305  1.0000
  H   H664      1.0  0.60342  0.10773  0.42956  1.0000
  H   H665      1.0  0.52896  0.19023  0.47704  1.0000
  H   H666      1.0  0.66412  0.25357  0.51852  1.0000
  S   S161      1.0  0.57426  0.03315  0.47551  1.0000
  H   H667      1.0  0.62001  0.12781  0.43876  1.0000
  H   H668      1.0  0.56992  0.22975  0.46755  1.0000
  H   H669      1.0  0.56524  0.27077  0.63940  1.0000
  Fe  Fe87      1.0  0.62234  0.00180  0.53164  1.0000
  S   S162      1.0  0.51484  0.00249  0.63176  1.0000
  S   S163      1.0  0.50064  0.24051  0.63367  1.0000
  S   S164      1.0  0.49710  0.17659  0.39172  1.0000
  H   H670      1.0  0.72621  0.26910  0.53934  1.0000
  H   H671      1.0  0.62416  0.30912  0.52416  1.0000
  H   H672      1.0  0.58554  0.99766  0.43834  1.0000
  S   S165      1.0  0.50792  0.13557  0.34545  1.0000
  H   H673      1.0  0.57247  0.24291  0.63899  1.0000
  H   H674      1.0  0.54573  0.25156  0.63520  1.0000
  H   H675      1.0  0.50682  0.13691  0.65507  1.0000
  H   H676      1.0  0.52298  0.10050  0.65843  1.0000
  H   H677      1.0  0.51246  0.01545  0.49434  1.0000
  S   S166      1.0  0.50680  0.05905  0.65328  1.0000
  C   C426      1.0  0.50671  0.10266  0.65390  1.0000
  H   H678      1.0  0.50796  0.01795  0.52244  1.0000
  C   C427      1.0  0.49757  0.12334  0.65206  1.0000
  H   H679      1.0  0.51641  0.09198  0.33476  1.0000
  H   H680      1.0  0.57226  0.25546  0.69632  1.0000
  C   C428      1.0  0.53875  0.26839  0.67370  1.0000
  H   H681      1.0  0.50290  0.28689  0.75678  1.0000
  C   C429      1.0  0.54878  0.23120  0.67297  1.0000
  H   H682      1.0  0.53505  0.26731  0.69109  1.0000
  C   C430      1.0  0.57504  0.25684  0.67882  1.0000
  H   H683      1.0  0.54521  0.22910  0.69029  1.0000
  H   H684      1.0  0.50812  0.25286  0.73814  1.0000
  C   C431      1.0  0.49965  0.26601  0.73046  1.0000
  H   H685      1.0  0.58806  0.24527  0.67448  1.0000
  H   H686      1.0  0.58068  0.27304  0.67503  1.0000
  H   H687      1.0  0.54321  0.28493  0.66968  1.0000
  N   N43       1.0  0.55565  0.25281  0.66743  1.0000
  H   H688      1.0  0.52375  0.26560  0.66568  1.0000
  H   H689      1.0  0.56090  0.21889  0.66812  1.0000
  H   H690      1.0  0.53416  0.22787  0.66472  1.0000
  C   C432      1.0  0.49673  0.28536  0.74113  1.0000
  S   S167      1.0  0.49564  0.23843  0.69768  1.0000
  Fe  Fe88      1.0  0.63891  0.48703  0.02732  1.0000
  S   S168      1.0  0.61124  0.50967  0.03207  1.0000
  S   S169      1.0  0.65437  0.46743  0.05392  1.0000
  C   C433      1.0  0.62546  0.41088  0.20293  1.0000
  C   C434      1.0  0.61489  0.60284  0.99833  1.0000
  C   C435      1.0  0.63216  0.39162  0.17081  1.0000
  H   H691      1.0  0.54881  0.62794  0.06674  1.0000
  C   C436      1.0  0.62911  0.55897  0.24620  1.0000
  Fe  Fe89      1.0  0.51520  0.36874  0.19635  1.0000
  S   S170      1.0  0.54153  0.38896  0.18278  1.0000
  H   H692      1.0  0.51119  0.41215  0.21469  1.0000
  H   H693      1.0  0.65932  0.43233  0.18910  1.0000
  S   S171      1.0  0.52668  0.59886  0.23804  1.0000
  H   H694      1.0  0.63254  0.49542  0.08612  1.0000
  Fe  Fe90      1.0  0.64544  0.48409  0.18309  1.0000
  S   S172      1.0  0.61037  0.48968  0.18642  1.0000
  S   S173      1.0  0.66030  0.46648  0.15502  1.0000
  Fe  Fe91      1.0  0.65406  0.50115  0.22787  1.0000
  S   S174      1.0  0.61909  0.50735  0.23390  1.0000
  S   S175      1.0  0.67394  0.51511  0.25379  1.0000
  Fe  Fe92      1.0  0.61423  0.47597  0.21938  1.0000
  S   S176      1.0  0.59295  0.45205  0.23575  1.0000
  Fe  Fe93      1.0  0.61839  0.52053  0.20059  1.0000
  S   S177      1.0  0.60420  0.55247  0.19015  1.0000
  S   S178      1.0  0.64909  0.46853  0.21572  1.0000
  S   S179      1.0  0.65347  0.51596  0.19481  1.0000
  H   H695      1.0  0.52939  0.41607  0.01606  1.0000
  H   H696      1.0  0.58707  0.39990  0.05435  1.0000
  C   C437      1.0  0.70224  0.51949  0.28572  1.0000
  C   C438      1.0  0.69657  0.50701  0.26878  1.0000
  C   C439      1.0  0.70924  0.48901  0.26409  1.0000
  H   H697      1.0  0.66426  0.41844  0.16519  1.0000
  C   C440      1.0  0.73312  0.49637  0.29282  1.0000
  H   H698      1.0  0.58804  0.55716  0.00250  1.0000
  H   H699      1.0  0.70527  0.47930  0.25108  1.0000
  H   H700      1.0  0.58308  0.61017  0.09566  1.0000
  C   C441      1.0  0.54770  0.58552  0.22433  1.0000
  C   C442      1.0  0.55554  0.59344  0.20482  1.0000
  C   C443      1.0  0.57277  0.58303  0.19449  1.0000
  C   C444      1.0  0.58204  0.56441  0.20336  1.0000
  C   C445      1.0  0.57401  0.55627  0.22273  1.0000
  C   C446      1.0  0.55702  0.56694  0.23329  1.0000
  H   H701      1.0  0.54847  0.60772  0.19775  1.0000
  H   H702      1.0  0.57888  0.58941  0.17951  1.0000
  H   H703      1.0  0.58088  0.54182  0.22963  1.0000
  H   H704      1.0  0.55094  0.56068  0.24833  1.0000
  C   C447      1.0  0.55448  0.40710  0.19806  1.0000
  C   C448      1.0  0.56435  0.42422  0.18769  1.0000
  C   C449      1.0  0.57563  0.43851  0.19919  1.0000
  C   C450      1.0  0.57743  0.43554  0.22110  1.0000
  C   C451      1.0  0.56722  0.41865  0.23154  1.0000
  C   C452      1.0  0.55569  0.40449  0.22007  1.0000
  H   H705      1.0  0.56329  0.42640  0.17068  1.0000
  H   H706      1.0  0.58314  0.45168  0.19108  1.0000
  H   H707      1.0  0.56856  0.41628  0.24852  1.0000
  H   H708      1.0  0.54825  0.39126  0.22819  1.0000
  C   C453      1.0  0.65707  0.41695  0.18150  1.0000
  H   H709      1.0  0.62605  0.42637  0.21086  1.0000
  C   C454      1.0  0.72740  0.48383  0.27595  1.0000
  H   H710      1.0  0.62386  0.44460  0.17647  1.0000
  N   N44       1.0  0.51820  0.65809  0.28788  1.0000
  S   S180      1.0  0.52418  0.65185  0.20334  1.0000
  S   S181      1.0  0.62450  0.46912  0.00138  1.0000
  N   N45       1.0  0.63444  0.41212  0.18102  1.0000
  H   H711      1.0  0.63876  0.39204  0.15424  1.0000
  C   C455      1.0  0.59303  0.59753  0.05590  1.0000
  C   C456      1.0  0.65476  0.46900  0.08207  1.0000
  C   C457      1.0  0.66765  0.45397  0.09272  1.0000
  C   C458      1.0  0.66888  0.45370  0.11485  1.0000
  C   C459      1.0  0.65718  0.46840  0.12704  1.0000
  C   C460      1.0  0.64384  0.48342  0.11661  1.0000
  C   C461      1.0  0.64264  0.48374  0.09410  1.0000
  H   H712      1.0  0.67708  0.44253  0.08373  1.0000
  H   H713      1.0  0.67929  0.44210  0.12257  1.0000
  H   H714      1.0  0.63470  0.49490  0.12581  1.0000
  H   H715      1.0  0.63772  0.54453  0.25248  1.0000
  H   H716      1.0  0.60860  0.40648  0.20319  1.0000
  H   H717      1.0  0.50541  0.42482  0.18965  1.0000
  C   C462      1.0  0.63173  0.59351  0.22925  1.0000
  H   H718      1.0  0.67009  0.59202  0.24683  1.0000
  H   H719      1.0  0.61810  0.55385  0.23415  1.0000
  H   H720      1.0  0.62043  0.58936  0.21694  1.0000
  H   H721      1.0  0.64230  0.60558  0.22197  1.0000
  H   H722      1.0  0.62226  0.60102  0.24234  1.0000
  N   N46       1.0  0.60223  0.42986  0.05378  1.0000
  C   C463      1.0  0.58311  0.41721  0.05330  1.0000
  C   C464      1.0  0.59613  0.45266  0.05216  1.0000
  C   C465      1.0  0.61311  0.42538  0.07389  1.0000
  C   C466      1.0  0.50215  0.63299  0.08144  1.0000
  H   H723      1.0  0.57465  0.42029  0.03827  1.0000
  H   H724      1.0  0.66627  0.40452  0.19047  1.0000
  H   H725      1.0  0.61011  0.46271  0.05289  1.0000
  H   H726      1.0  0.58842  0.45675  0.03693  1.0000
  H   H727      1.0  0.58490  0.45744  0.06520  1.0000
  H   H728      1.0  0.60887  0.42736  0.02029  1.0000
  H   H729      1.0  0.62778  0.43449  0.07450  1.0000
  H   H730      1.0  0.50974  0.63259  0.30942  1.0000
  H   H731      1.0  0.53623  0.64118  0.31167  1.0000
  H   H732      1.0  0.56159  0.57036  0.06024  1.0000
  C   C467      1.0  0.57362  0.58854  0.99812  1.0000
  C   C468      1.0  0.54465  0.44561  0.01180  1.0000
  H   H733      1.0  0.60289  0.42986  0.08783  1.0000
  C   C469      1.0  0.56480  0.62399  0.05984  1.0000
  H   H734      1.0  0.55568  0.58929  0.03928  1.0000
  H   H735      1.0  0.51521  0.62971  0.27032  1.0000
  C   C470      1.0  0.59078  0.57393  0.00054  1.0000
  C   C471      1.0  0.49963  0.42291  0.20643  1.0000
  S   S182      1.0  0.65561  0.50800  0.00324  1.0000
  Fe  Fe94      1.0  0.52330  0.61841  0.99859  1.0000
  S   S183      1.0  0.56420  0.48309  0.00747  1.0000
  H   H736      1.0  0.69264  0.53344  0.28957  1.0000
  H   H737      1.0  0.53331  0.45396  0.02198  1.0000
  C   C472      1.0  0.54254  0.42400  0.00860  1.0000
  Fe  Fe95      1.0  0.50859  0.62422  0.21924  1.0000
  C   C473      1.0  0.61660  0.42423  0.03573  1.0000
  H   H738      1.0  0.73579  0.44615  0.31087  1.0000
  H   H739      1.0  0.63118  0.43358  0.03552  1.0000
  H   H740      1.0  0.61778  0.40828  0.07577  1.0000
  Fe  Fe96      1.0  0.50280  0.64696  0.17614  1.0000
  C   C474      1.0  0.56164  0.45620  0.00241  1.0000
  N   N47       1.0  0.64387  0.57451  0.23692  1.0000
  C   C475      1.0  0.73567  0.44205  0.32818  1.0000
  H   H741      1.0  0.50959  0.62500  0.06813  1.0000
  H   H742      1.0  0.60612  0.42558  0.16737  1.0000
  H   H743      1.0  0.66502  0.55041  0.22408  1.0000
  S   S184      1.0  0.63314  0.56398  0.00564  1.0000
  H   H744      1.0  0.64052  0.37847  0.17965  1.0000
  H   H745      1.0  0.52308  0.45680  0.19914  1.0000
  N   N48       1.0  0.49696  0.44346  0.21691  1.0000
  C   C476      1.0  0.65865  0.58032  0.25324  1.0000
  H   H746      1.0  0.61933  0.56566  0.25951  1.0000
  N   N49       1.0  0.57171  0.60192  0.06531  1.0000
  H   H747      1.0  0.62162  0.40716  0.03648  1.0000
  H   H748      1.0  0.66800  0.56611  0.25913  1.0000
  H   H749      1.0  0.52975  0.44489  0.22427  1.0000
  H   H750      1.0  0.57797  0.58256  0.09324  1.0000
  H   H751      1.0  0.63415  0.39887  0.21290  1.0000
  S   S185      1.0  0.49956  0.64563  0.99808  1.0000
  C   C477      1.0  0.52534  0.64371  0.27082  1.0000
  H   H752      1.0  0.65009  0.58731  0.26718  1.0000
  H   H753      1.0  0.72437  0.52403  0.31058  1.0000
  C   C478      1.0  0.51231  0.63318  0.10095  1.0000
  S   S186      1.0  0.50864  0.60212  0.02723  1.0000
  C   C479      1.0  0.55672  0.58721  0.05681  1.0000
  C   C480      1.0  0.61140  0.58119  0.00090  1.0000
  C   C481      1.0  0.65597  0.56504  0.21894  1.0000
  H   H754      1.0  0.64533  0.56065  0.20621  1.0000
  H   H755      1.0  0.63004  0.43111  0.15245  1.0000
  H   H756      1.0  0.56400  0.62669  0.04232  1.0000
  C   C482      1.0  0.50281  0.64342  0.11846  1.0000
  H   H757      1.0  0.57180  0.42109  0.06660  1.0000
  H   H758      1.0  0.66749  0.57619  0.21169  1.0000
  C   C483      1.0  0.57233  0.59893  0.08863  1.0000
  H   H759      1.0  0.61522  0.38755  0.17019  1.0000
  H   H760      1.0  0.55642  0.60157  0.09627  1.0000
  S   S187      1.0  0.51365  0.33360  0.19221  1.0000
  H   H761      1.0  0.57581  0.63559  0.06581  1.0000
  Fe  Fe97      1.0  0.62670  0.52936  0.00615  1.0000
  C   C484      1.0  0.62306  0.42904  0.16878  1.0000
  Fe  Fe98      1.0  0.59772  0.49299  0.00494  1.0000
  C   C485      1.0  0.51970  0.64677  0.30865  1.0000
  C   C486      1.0  0.72028  0.51418  0.29772  1.0000
  H   H762      1.0  0.59857  0.58081  0.05901  1.0000
  S   S188      1.0  0.51657  0.64306  0.14252  1.0000
  S   S189      1.0  0.50551  0.38338  0.03374  1.0000
  H   H763      1.0  0.59322  0.60017  0.03843  1.0000
  H   H764      1.0  0.54186  0.63760  0.27289  1.0000
  H   H765      1.0  0.54048  0.58996  0.06372  1.0000
  H   H766      1.0  0.73722  0.47010  0.27184  1.0000
  H   H767      1.0  0.52761  0.62536  0.10259  1.0000
  S   S190      1.0  0.50195  0.36683  0.22972  1.0000
  H   H768      1.0  0.60489  0.60804  0.06225  1.0000
  H   H769      1.0  0.51432  0.65719  0.32185  1.0000
  C   C487      1.0  0.51724  0.45433  0.21583  1.0000
  H   H770      1.0  0.51577  0.47011  0.22324  1.0000
  H   H771      1.0  0.50211  0.42950  0.24793  1.0000
  Fe  Fe99      1.0  0.52121  0.37894  0.00167  1.0000
  H   H772      1.0  0.73873  0.39950  0.32672  1.0000
  H   H773      1.0  0.63078  0.60849  0.99865  1.0000
  H   H774      1.0  0.52482  0.65189  0.25492  1.0000
  H   H775      1.0  0.55765  0.58304  0.99809  1.0000
  Fe  Fe100     1.0  0.49736  0.33201  0.22467  1.0000
  H   H776      1.0  0.51054  0.51371  0.00014  1.0000
  H   H777      1.0  0.51963  0.48871  0.01110  1.0000
  H   H778      1.0  0.50154  0.45538  0.00102  1.0000
  H   H779      1.0  0.73578  0.45738  0.33646  1.0000
  H   H780      1.0  0.71069  0.58253  0.65360  1.0000
  H   H781      1.0  0.72260  0.59247  0.61652  1.0000
  H   H782      1.0  0.74365  0.43037  0.43305  1.0000
  C   C488      1.0  0.72684  0.55154  0.62898  1.0000
  N   N50       1.0  0.73820  0.56947  0.63712  1.0000
  H   H783      1.0  0.73905  0.41535  0.36228  1.0000
  H   H784      1.0  0.74366  0.46864  0.44392  1.0000
  C   C489      1.0  0.72723  0.57704  0.65665  1.0000
  H   H785      1.0  0.73469  0.54540  0.61425  1.0000
  H   H786      1.0  0.71027  0.55627  0.62520  1.0000
  C   C490      1.0  0.73878  0.58683  0.62085  1.0000
  H   H787      1.0  0.72625  0.53811  0.64086  1.0000
  H   H788      1.0  0.73549  0.59041  0.66340  1.0000
  H   H789      1.0  0.72048  0.43453  0.33246  1.0000
  Fe  Fe101     1.0  0.63792  0.49279  0.97770  1.0000
  H   H790      1.0  0.56538  0.54353  0.85378  1.0000
  S   S191      1.0  0.65461  0.48614  0.94586  1.0000
  S   S192      1.0  0.51406  0.64772  0.79146  1.0000
  H   H791      1.0  0.53745  0.40488  0.92366  1.0000
  C   C491      1.0  0.62272  0.46155  0.72272  1.0000
  H   H792      1.0  0.65627  0.49232  0.86776  1.0000
  H   H793      1.0  0.54546  0.57567  0.80772  1.0000
  H   H794      1.0  0.50726  0.42670  0.78503  1.0000
  Fe  Fe102     1.0  0.62588  0.50746  0.82166  1.0000
  S   S193      1.0  0.59792  0.51773  0.80218  1.0000
  S   S194      1.0  0.61442  0.51039  0.85629  1.0000
  Fe  Fe103     1.0  0.65422  0.50229  0.78067  1.0000
  S   S195      1.0  0.62802  0.51320  0.75941  1.0000
  S   S196      1.0  0.68502  0.48869  0.76525  1.0000
  Fe  Fe104     1.0  0.62042  0.53788  0.78359  1.0000
  S   S197      1.0  0.61179  0.57258  0.77822  1.0000
  Fe  Fe105     1.0  0.60795  0.49188  0.78020  1.0000
  S   S198      1.0  0.58454  0.47259  0.76335  1.0000
  S   S199      1.0  0.64826  0.52894  0.80364  1.0000
  S   S200      1.0  0.63417  0.47969  0.80080  1.0000
  H   H795      1.0  0.55522  0.39711  0.94433  1.0000
  S   S201      1.0  0.51702  0.59693  0.75594  1.0000
  Fe  Fe106     1.0  0.52398  0.37105  0.79453  1.0000
  S   S202      1.0  0.55776  0.38126  0.79641  1.0000
  C   C492      1.0  0.58560  0.57917  0.77147  1.0000
  C   C493      1.0  0.57282  0.56430  0.76279  1.0000
  C   C494      1.0  0.55182  0.56996  0.75793  1.0000
  C   C495      1.0  0.54330  0.59021  0.76241  1.0000
  C   C496      1.0  0.55601  0.60494  0.77143  1.0000
  C   C497      1.0  0.57723  0.59957  0.77548  1.0000
  H   H796      1.0  0.57920  0.54854  0.75958  1.0000
  H   H797      1.0  0.54208  0.55853  0.75087  1.0000
  H   H798      1.0  0.54967  0.62056  0.77501  1.0000
  H   H799      1.0  0.58711  0.61114  0.78211  1.0000
  C   C498      1.0  0.57795  0.44691  0.77235  1.0000
  C   C499      1.0  0.56183  0.43674  0.76235  1.0000
  C   C500      1.0  0.55533  0.41670  0.76973  1.0000
  C   C501      1.0  0.56537  0.40644  0.78679  1.0000
  C   C502      1.0  0.58198  0.41631  0.79634  1.0000
  C   C503      1.0  0.58810  0.43662  0.78933  1.0000
  H   H800      1.0  0.55413  0.44452  0.74901  1.0000
  H   H801      1.0  0.54277  0.40904  0.76205  1.0000
  H   H802      1.0  0.58992  0.40836  0.80945  1.0000
  H   H803      1.0  0.60059  0.44427  0.79711  1.0000
  C   C504      1.0  0.72414  0.51039  0.70552  1.0000
  C   C505      1.0  0.70636  0.52257  0.71264  1.0000
  C   C506      1.0  0.69420  0.51621  0.73077  1.0000
  C   C507      1.0  0.69977  0.49760  0.74221  1.0000
  C   C508      1.0  0.71744  0.48531  0.73499  1.0000
  H   H804      1.0  0.52986  0.42385  0.81524  1.0000
  C   C509      1.0  0.67251  0.54414  0.92372  1.0000
  H   H805      1.0  0.68069  0.52587  0.73605  1.0000
  C   C510      1.0  0.55000  0.39298  0.92829  1.0000
  C   C511      1.0  0.50692  0.62397  0.89465  1.0000
  H   H806      1.0  0.67125  0.48288  0.90297  1.0000
  H   H807      1.0  0.58643  0.41463  0.97742  1.0000
  C   C512      1.0  0.64090  0.54745  0.94587  1.0000
  H   H808      1.0  0.53137  0.63982  0.74716  1.0000
  C   C513      1.0  0.53531  0.65519  0.73920  1.0000
  H   H809      1.0  0.50415  0.46300  0.97350  1.0000
  H   H810      1.0  0.62133  0.46279  0.70521  1.0000
  C   C514      1.0  0.50481  0.65351  0.71754  1.0000
  H   H811      1.0  0.72656  0.56417  0.66916  1.0000
  H   H812      1.0  0.61025  0.45093  0.72918  1.0000
  H   H813      1.0  0.70200  0.53715  0.70418  1.0000
  H   H814      1.0  0.53547  0.62342  0.71222  1.0000
  C   C515      1.0  0.50812  0.44429  0.78496  1.0000
  H   H815      1.0  0.67134  0.52660  0.92316  1.0000
  C   C516      1.0  0.64303  0.49204  0.92094  1.0000
  C   C517      1.0  0.62227  0.50019  0.91956  1.0000
  C   C518      1.0  0.61389  0.50563  0.89963  1.0000
  C   C519      1.0  0.62601  0.50284  0.88079  1.0000
  C   C520      1.0  0.64675  0.49457  0.88211  1.0000
  C   C521      1.0  0.65519  0.48922  0.90211  1.0000
  H   H816      1.0  0.61261  0.50224  0.93382  1.0000
  H   H817      1.0  0.59781  0.51191  0.89880  1.0000
  C   C522      1.0  0.52423  0.36961  0.94382  1.0000
  C   C523      1.0  0.55923  0.35595  0.93474  1.0000
  H   H818      1.0  0.66400  0.55111  0.90985  1.0000
  S   S203      1.0  0.51521  0.33695  0.79935  1.0000
  H   H819      1.0  0.58887  0.55030  0.83898  1.0000
  H   H820      1.0  0.58937  0.45331  0.98189  1.0000
  H   H821      1.0  0.50617  0.61708  0.92844  1.0000
  C   C524      1.0  0.66574  0.57543  0.94451  1.0000
  N   N51       1.0  0.52784  0.65637  0.71725  1.0000
  C   C525      1.0  0.49789  0.62460  0.91536  1.0000
  C   C526      1.0  0.57478  0.42323  0.98705  1.0000
  H   H822      1.0  0.66822  0.54736  0.97738  1.0000
  S   S204      1.0  0.50438  0.34945  0.99433  1.0000
  C   C527      1.0  0.65997  0.46842  0.72015  1.0000
  C   C528      1.0  0.53507  0.36635  0.90705  1.0000
  N   N52       1.0  0.54215  0.37122  0.92842  1.0000
  H   H823      1.0  0.63276  0.44211  0.75947  1.0000
  H   H824      1.0  0.53489  0.64837  0.93423  1.0000
  S   S205      1.0  0.50128  0.37709  0.76838  1.0000
  H   H825      1.0  0.55605  0.64104  0.70432  1.0000
  N   N53       1.0  0.51143  0.45194  0.80646  1.0000
  H   H826      1.0  0.74314  0.48204  0.71161  1.0000
  S   S206      1.0  0.60987  0.51534  0.97961  1.0000
  H   H827      1.0  0.51767  0.35351  0.94431  1.0000
  H   H828      1.0  0.57308  0.35668  0.92347  1.0000
  H   H829      1.0  0.68263  0.57967  0.94320  1.0000
  H   H830      1.0  0.65986  0.46976  0.70255  1.0000
  C   C529      1.0  0.53862  0.63938  0.70492  1.0000
  H   H831      1.0  0.63188  0.55451  0.93239  1.0000
  H   H832      1.0  0.63348  0.55358  0.96082  1.0000
  H   H833      1.0  0.56369  0.39482  0.91698  1.0000
  H   H834      1.0  0.52775  0.47941  0.79485  1.0000
  C   C530      1.0  0.55768  0.41269  0.99644  1.0000
  H   H835      1.0  0.65732  0.58375  0.93129  1.0000
  S   S207      1.0  0.50926  0.63357  0.85183  1.0000
  H   H836      1.0  0.53454  0.56973  0.85533  1.0000
  H   H837      1.0  0.72197  0.47090  0.74367  1.0000
  H   H838      1.0  0.52112  0.44882  0.77370  1.0000
  N   N54       1.0  0.66352  0.55225  0.94395  1.0000
  C   C531      1.0  0.67482  0.54187  0.96182  1.0000
  C   C532      1.0  0.51391  0.47513  0.80528  1.0000
  H   H839      1.0  0.66436  0.42608  0.72472  1.0000
  C   C533      1.0  0.72951  0.49159  0.71676  1.0000
  H   H840      1.0  0.53315  0.63956  0.68833  1.0000
  H   H841      1.0  0.52911  0.37288  0.96010  1.0000
  H   H842      1.0  0.52167  0.37714  0.90212  1.0000
  S   S208      1.0  0.55503  0.38548  0.99313  1.0000
  N   N55       1.0  0.56309  0.57338  0.83634  1.0000
  C   C534      1.0  0.55450  0.56374  0.81755  1.0000
  C   C535      1.0  0.54547  0.58222  0.84969  1.0000
  C   C536      1.0  0.57715  0.59057  0.82938  1.0000
  C   C537      1.0  0.57528  0.55703  0.84860  1.0000
  H   H843      1.0  0.56739  0.55682  0.80721  1.0000
  H   H844      1.0  0.61885  0.47754  0.72910  1.0000
  H   H845      1.0  0.69192  0.54523  0.96104  1.0000
  H   H846      1.0  0.55130  0.58993  0.86389  1.0000
  H   H847      1.0  0.53592  0.59451  0.84077  1.0000
  C   C538      1.0  0.57661  0.44507  0.98982  1.0000
  H   H848      1.0  0.58409  0.59810  0.84312  1.0000
  H   H849      1.0  0.56843  0.60324  0.82018  1.0000
  H   H850      1.0  0.59049  0.58452  0.81903  1.0000
  H   H851      1.0  0.52939  0.34990  0.90657  1.0000
  H   H852      1.0  0.52218  0.61607  0.89206  1.0000
  H   H853      1.0  0.56481  0.35926  0.95087  1.0000
  H   H854      1.0  0.55271  0.65668  0.73968  1.0000
  H   H855      1.0  0.63876  0.53009  0.94604  1.0000
  C   C539      1.0  0.51202  0.49641  0.99709  1.0000
  H   H856      1.0  0.54370  0.55080  0.82213  1.0000
  H   H857      1.0  0.49967  0.48350  0.79870  1.0000
  H   H858      1.0  0.63665  0.42094  0.72674  1.0000
  H   H859      1.0  0.67621  0.46315  0.72477  1.0000
  H   H860      1.0  0.49838  0.65511  0.70135  1.0000
  H   H861      1.0  0.66079  0.44660  0.75748  1.0000
  H   H862      1.0  0.64228  0.46845  0.75883  1.0000
  H   H863      1.0  0.64774  0.43267  0.70273  1.0000
  C   C540      1.0  0.64838  0.43239  0.72034  1.0000
  C   C541      1.0  0.64499  0.45252  0.75217  1.0000
  H   H864      1.0  0.65715  0.48465  0.72636  1.0000
  N   N56       1.0  0.64402  0.45371  0.72881  1.0000
  S   S209      1.0  0.50721  0.59953  0.97473  1.0000
  H   H865      1.0  0.65901  0.58182  0.95968  1.0000
  H   H866      1.0  0.68951  0.54769  0.92156  1.0000
  H   H867      1.0  0.51645  0.48149  0.82122  1.0000
  C   C542      1.0  0.53069  0.44146  0.81511  1.0000
  H   H868      1.0  0.51117  0.38118  0.93984  1.0000
  H   H869      1.0  0.58188  0.56360  0.86302  1.0000
  H   H870      1.0  0.67355  0.52432  0.96178  1.0000
  H   H871      1.0  0.53327  0.44617  0.83163  1.0000
  H   H872      1.0  0.54498  0.44567  0.80544  1.0000
  S   S210      1.0  0.73914  0.51963  0.68276  1.0000
  S   S211      1.0  0.50160  0.38334  0.81984  1.0000
  H   H873      1.0  0.52305  0.49427  0.98318  1.0000
  Fe  Fe107     1.0  0.49910  0.62095  0.77607  1.0000
  H   H874      1.0  0.50080  0.63754  0.72417  1.0000
  C   C543      1.0  0.49641  0.63351  0.87732  1.0000
  H   H875      1.0  0.54803  0.36784  0.89483  1.0000
  H   H876      1.0  0.53549  0.65428  0.96189  1.0000
  C   C544      1.0  0.52592  0.65626  0.94742  1.0000
  H   H877      1.0  0.51130  0.64740  0.95059  1.0000
  S   S212      1.0  0.49874  0.40095  0.98456  1.0000
  H   H878      1.0  0.55375  0.33939  0.93523  1.0000
  S   S213      1.0  0.55648  0.62936  0.99507  1.0000
  C   C545      1.0  0.59786  0.61733  0.99590  1.0000
  C   C546      1.0  0.57721  0.61028  0.99609  1.0000
  H   H879      1.0  0.60068  0.63411  0.99433  1.0000
  H   H880      1.0  0.51715  0.75083  0.29268  1.0000
  H   H881      1.0  0.52324  0.92813  0.30660  1.0000
  H   H882      1.0  0.52974  0.72930  0.26207  1.0000
  H   H883      1.0  0.51185  0.78741  0.27967  1.0000
  C   C547      1.0  0.51789  0.89525  0.31407  1.0000
  C   C548      1.0  0.51333  0.72900  0.26733  1.0000
  H   H884      1.0  0.49955  0.80090  0.30147  1.0000
  S   S214      1.0  0.50955  0.70071  0.23526  1.0000
  C   C549      1.0  0.53169  0.67671  0.28739  1.0000
  C   C550      1.0  0.51965  0.91657  0.31909  1.0000
  C   C551      1.0  0.49948  0.71618  0.25685  1.0000
  C   C552      1.0  0.50621  0.74135  0.28465  1.0000
  H   H885      1.0  0.51975  0.81362  0.28586  1.0000
  H   H886      1.0  0.52003  0.89066  0.29774  1.0000
  S   S215      1.0  0.51175  0.85325  0.32204  1.0000
  H   H887      1.0  0.52615  0.68847  0.29933  1.0000
  C   C553      1.0  0.50599  0.80323  0.28506  1.0000
  H   H888      1.0  0.53155  0.68504  0.27159  1.0000
  H   H889      1.0  0.54842  0.67204  0.29052  1.0000
  H   H890      1.0  0.51243  0.82330  0.24761  1.0000
  H   H891      1.0  0.49734  0.84464  0.27738  1.0000
  Fe  Fe108     1.0  0.49764  0.67192  0.21811  1.0000
  C   C554      1.0  0.51371  0.87986  0.32993  1.0000
  H   H892      1.0  0.50270  0.79745  0.24329  1.0000
  C   C555      1.0  0.49813  0.81356  0.24899  1.0000
  C   C556      1.0  0.49601  0.66518  0.28462  1.0000
  S   S216      1.0  0.52049  0.95023  0.34504  1.0000
  H   H893      1.0  0.62076  0.97869  0.43766  1.0000
  H   H894      1.0  0.63971  0.75191  0.51457  1.0000
  H   H895      1.0  0.62825  0.95400  0.53768  1.0000
  H   H896      1.0  0.62332  0.89950  0.56016  1.0000
  H   H897      1.0  0.63926  0.76274  0.55182  1.0000
  H   H898      1.0  0.62166  0.74216  0.55900  1.0000
  Fe  Fe109     1.0  0.63606  0.98124  0.49035  1.0000
  S   S217      1.0  0.63853  0.95000  0.47321  1.0000
  H   H899      1.0  0.60584  0.93442  0.51564  1.0000
  Fe  Fe110     1.0  0.51629  0.80459  0.62686  1.0000
  S   S218      1.0  0.54987  0.81180  0.61653  1.0000
  C   C557      1.0  0.63870  0.74569  0.55676  1.0000
  Fe  Fe111     1.0  0.65848  0.78424  0.48874  1.0000
  S   S219      1.0  0.62440  0.77925  0.48187  1.0000
  S   S220      1.0  0.67723  0.75384  0.47944  1.0000
  Fe  Fe112     1.0  0.64664  0.82929  0.50443  1.0000
  S   S221      1.0  0.61191  0.82641  0.49951  1.0000
  S   S222      1.0  0.65841  0.85963  0.51779  1.0000
  Fe  Fe113     1.0  0.61674  0.79345  0.51345  1.0000
  S   S223      1.0  0.59456  0.77368  0.53397  1.0000
  Fe  Fe114     1.0  0.62275  0.81233  0.46861  1.0000
  S   S224      1.0  0.60885  0.82234  0.43715  1.0000
  S   S225      1.0  0.65074  0.79709  0.52111  1.0000
  S   S226      1.0  0.65744  0.81678  0.47269  1.0000
  C   C558      1.0  0.64796  0.70952  0.54788  1.0000
  S   S227      1.0  0.53244  0.77463  0.40049  1.0000
  C   C559      1.0  0.58618  0.81030  0.42835  1.0000
  C   C560      1.0  0.57768  0.79288  0.43934  1.0000
  C   C561      1.0  0.56104  0.78220  0.43072  1.0000
  C   C562      1.0  0.55235  0.78926  0.41145  1.0000
  C   C563      1.0  0.56035  0.80714  0.40085  1.0000
  C   C564      1.0  0.57738  0.81749  0.40918  1.0000
  H   H900      1.0  0.58422  0.78733  0.45420  1.0000
  H   H901      1.0  0.55483  0.76840  0.43899  1.0000
  H   H902      1.0  0.55377  0.81266  0.38597  1.0000
  H   H903      1.0  0.58386  0.83099  0.40062  1.0000
  S   S228      1.0  0.50497  0.80612  0.66107  1.0000
  C   C565      1.0  0.72366  0.70744  0.48500  1.0000
  C   C566      1.0  0.70528  0.71938  0.47931  1.0000
  C   C567      1.0  0.70080  0.73970  0.48731  1.0000
  C   C568      1.0  0.71493  0.74789  0.50126  1.0000
  C   C569      1.0  0.73340  0.73600  0.50684  1.0000
  H   H904      1.0  0.56675  0.94884  0.41498  1.0000
  H   H905      1.0  0.69451  0.71280  0.46853  1.0000
  H   H906      1.0  0.71183  0.76349  0.50753  1.0000
  H   H907      1.0  0.50358  0.79282  0.51528  1.0000
  C   C570      1.0  0.56219  0.80088  0.59371  1.0000
  C   C571      1.0  0.55624  0.78150  0.58607  1.0000
  C   C572      1.0  0.56657  0.77315  0.56792  1.0000
  C   C573      1.0  0.58256  0.78431  0.55707  1.0000
  C   C574      1.0  0.58849  0.80369  0.56468  1.0000
  C   C575      1.0  0.57847  0.81182  0.58309  1.0000
  H   H908      1.0  0.54392  0.77283  0.59434  1.0000
  H   H909      1.0  0.56203  0.75806  0.56218  1.0000
  H   H910      1.0  0.60086  0.81237  0.55648  1.0000
  H   H911      1.0  0.58324  0.82674  0.58904  1.0000
  H   H912      1.0  0.61797  0.90933  0.52317  1.0000
  H   H913      1.0  0.62175  0.73161  0.52169  1.0000
  H   H914      1.0  0.51385  0.99240  0.51175  1.0000
  H   H915      1.0  0.67339  0.75401  0.53199  1.0000
  C   C576      1.0  0.64447  0.92504  0.48572  1.0000
  C   C577      1.0  0.65660  0.92314  0.50387  1.0000
  C   C578      1.0  0.66105  0.90299  0.51332  1.0000
  C   C579      1.0  0.65329  0.88457  0.50484  1.0000
  C   C580      1.0  0.64124  0.88649  0.48664  1.0000
  C   C581      1.0  0.63700  0.90660  0.47706  1.0000
  H   H916      1.0  0.66287  0.93716  0.51038  1.0000
  H   H917      1.0  0.67060  0.90163  0.52724  1.0000
  H   H918      1.0  0.63526  0.87245  0.47987  1.0000
  H   H919      1.0  0.62783  0.90783  0.46288  1.0000
  C   C582      1.0  0.67176  0.73738  0.53806  1.0000
  H   H920      1.0  0.61230  0.91582  0.58090  1.0000
  H   H921      1.0  0.68028  0.72700  0.52639  1.0000
  Fe  Fe115     1.0  0.51129  0.79027  0.37587  1.0000
  C   C583      1.0  0.51128  0.88611  0.35108  1.0000
  C   C584      1.0  0.58712  0.95661  0.45049  1.0000
  H   H922      1.0  0.65578  0.69875  0.53610  1.0000
  H   H923      1.0  0.50881  0.87421  0.36349  1.0000
  C   C585      1.0  0.51263  0.90776  0.35611  1.0000
  H   H924      1.0  0.63121  0.70492  0.55002  1.0000
  S   S229      1.0  0.65435  0.99539  0.51621  1.0000
  H   H925      1.0  0.54002  0.96508  0.48328  1.0000
  H   H926      1.0  0.65579  0.70648  0.56327  1.0000
  H   H927      1.0  0.62349  0.95244  0.42788  1.0000
  N   N57       1.0  0.59161  0.96546  0.42893  1.0000
  H   H928      1.0  0.56996  0.95399  0.45318  1.0000
  C   C586      1.0  0.55432  0.99553  0.48094  1.0000
  H   H929      1.0  0.56436  0.99218  0.49413  1.0000
  C   C587      1.0  0.55086  0.99126  0.58497  1.0000
  C   C588      1.0  0.73796  0.71572  0.49872  1.0000
  C   C589      1.0  0.58410  0.95095  0.41308  1.0000
  H   H930      1.0  0.58377  0.99368  0.41037  1.0000
  C   C590      1.0  0.54029  0.98034  0.47500  1.0000
  H   H931      1.0  0.61869  0.97452  0.40974  1.0000
  H   H932      1.0  0.63052  0.94757  0.56532  1.0000
  N   N58       1.0  0.64932  0.73195  0.54078  1.0000
  H   H933      1.0  0.59007  0.91344  0.52672  1.0000
  H   H934      1.0  0.58721  0.95712  0.39659  1.0000
  Fe  Fe116     1.0  0.49809  0.97437  0.41778  1.0000
  H   H935      1.0  0.52797  0.82368  0.56818  1.0000
  C   C591      1.0  0.61462  0.96791  0.42583  1.0000
  N   N59       1.0  0.64472  0.76813  0.41490  1.0000
  C   C592      1.0  0.65124  0.78858  0.42281  1.0000
  C   C593      1.0  0.65288  0.75068  0.42888  1.0000
  C   C594      1.0  0.65330  0.76546  0.39306  1.0000
  C   C595      1.0  0.62140  0.76792  0.41496  1.0000
  H   H936      1.0  0.64467  0.79116  0.43908  1.0000
  H   H937      1.0  0.64533  0.80222  0.41274  1.0000
  H   H938      1.0  0.66872  0.78932  0.42345  1.0000
  H   H939      1.0  0.64854  0.73493  0.42330  1.0000
  H   H940      1.0  0.67041  0.75069  0.42977  1.0000
  H   H941      1.0  0.64644  0.75216  0.44542  1.0000
  H   H942      1.0  0.67087  0.76564  0.39250  1.0000
  H   H943      1.0  0.64736  0.77845  0.38222  1.0000
  H   H944      1.0  0.64865  0.75019  0.38657  1.0000
  H   H945      1.0  0.61452  0.76960  0.43130  1.0000
  H   H946      1.0  0.61572  0.75294  0.40874  1.0000
  H   H947      1.0  0.61460  0.78132  0.40513  1.0000
  H   H948      1.0  0.64615  0.74377  0.57245  1.0000
  H   H949      1.0  0.58122  0.98243  0.59787  1.0000
  H   H950      1.0  0.68017  0.73566  0.55325  1.0000
  C   C596      1.0  0.50925  0.78885  0.55720  1.0000
  H   H951      1.0  0.53251  0.83471  0.54184  1.0000
  C   C597      1.0  0.63882  0.73519  0.52031  1.0000
  H   H952      1.0  0.59522  0.90141  0.56479  1.0000
  H   H953      1.0  0.64647  0.72524  0.50774  1.0000
  H   H954      1.0  0.59211  0.96743  0.46285  1.0000
  S   S230      1.0  0.51101  0.96492  0.44951  1.0000
  H   H955      1.0  0.50647  0.79296  0.57412  1.0000
  N   N60       1.0  0.60851  0.92890  0.54933  1.0000
  C   C598      1.0  0.59049  0.94316  0.55553  1.0000
  C   C599      1.0  0.62827  0.94061  0.54957  1.0000
  C   C600      1.0  0.60542  0.92124  0.52778  1.0000
  C   C601      1.0  0.60987  0.91061  0.56449  1.0000
  H   H956      1.0  0.57527  0.93494  0.55574  1.0000
  H   H957      1.0  0.58908  0.95712  0.54439  1.0000
  H   H958      1.0  0.59245  0.94940  0.57163  1.0000
  H   H959      1.0  0.64234  0.93013  0.54598  1.0000
  H   H960      1.0  0.54530  0.81012  0.54966  1.0000
  S   S231      1.0  0.49791  0.77586  0.62056  1.0000
  H   H961      1.0  0.59205  0.93497  0.41461  1.0000
  H   H962      1.0  0.56315  0.98502  0.42830  1.0000
  N   N61       1.0  0.51233  0.80801  0.54357  1.0000
  C   C602      1.0  0.51687  0.92308  0.34002  1.0000
  S   S232      1.0  0.51881  0.79288  0.34073  1.0000
  C   C603      1.0  0.51681  0.80171  0.52145  1.0000
  S   S233      1.0  0.51721  0.99130  0.39249  1.0000
  Fe  Fe117     1.0  0.50245  0.82522  0.34311  1.0000
  S   S234      1.0  0.60472  0.98557  0.50708  1.0000
  H   H963      1.0  0.52324  0.77772  0.55635  1.0000
  C   C604      1.0  0.53028  0.81968  0.55114  1.0000
  C   C605      1.0  0.58056  0.98638  0.42637  1.0000
  C   C606      1.0  0.57303  0.98961  0.58452  1.0000
  H   H964      1.0  0.72689  0.69192  0.47857  1.0000
  H   H965      1.0  0.53138  0.79130  0.52021  1.0000
  Fe  Fe118     1.0  0.50269  0.96848  0.37071  1.0000
  C   C607      1.0  0.52700  0.98468  0.45805  1.0000
  S   S235      1.0  0.49780  0.82359  0.37844  1.0000
  H   H966      1.0  0.59580  0.94114  0.45321  1.0000
  H   H967      1.0  0.51115  0.91248  0.37243  1.0000
  H   H968      1.0  0.51925  0.81576  0.51068  1.0000
  H   H969      1.0  0.54200  0.98519  0.59860  1.0000
  S   S236      1.0  0.61211  0.99373  0.56520  1.0000
  H   H970      1.0  0.74432  0.74263  0.51744  1.0000
  C   C608      1.0  0.58453  0.99689  0.56662  1.0000
  H   H971      1.0  0.51426  0.73617  0.74121  1.0000
  C   C609      1.0  0.50192  0.73105  0.73129  1.0000
  C   C610      1.0  0.54086  0.69018  0.93931  1.0000
  H   H972      1.0  0.52782  0.66802  0.74890  1.0000
  N   N62       1.0  0.52095  0.67885  0.94225  1.0000
  H   H973      1.0  0.55079  0.68354  0.92603  1.0000
  C   C611      1.0  0.50895  0.68076  0.92251  1.0000
  C   C612      1.0  0.49771  0.74235  0.71208  1.0000
  H   H974      1.0  0.51652  0.68681  0.97505  1.0000
  H   H975      1.0  0.51718  0.67222  0.90925  1.0000
  H   H976      1.0  0.53779  0.70734  0.93563  1.0000
  H   H977      1.0  0.52459  0.69037  0.71664  1.0000
  H   H978      1.0  0.50680  0.75596  0.70739  1.0000
  H   H979      1.0  0.55036  0.68882  0.95388  1.0000
  H   H980      1.0  0.54977  0.68008  0.70704  1.0000
  H   H981      1.0  0.52687  0.67893  0.69098  1.0000
  C   C613      1.0  0.53252  0.67733  0.70750  1.0000
  S   S237      1.0  0.49672  0.69945  0.76214  1.0000
  H   H982      1.0  0.50400  0.70520  0.95655  1.0000
  H   H983      1.0  0.50628  0.69759  0.91728  1.0000
  C   C614      1.0  0.50808  0.68816  0.95983  1.0000
  H   H984      1.0  0.49627  0.66554  0.72749  1.0000
  H   H985      1.0  0.82682  0.24620  0.46794  1.0000
  C   C615      1.0  0.80931  0.28466  0.45866  1.0000
  H   H986      1.0  0.79697  0.27978  0.44785  1.0000
  H   H987      1.0  0.78579  0.26874  0.50545  1.0000
  H   H988      1.0  0.77417  0.27205  0.47991  1.0000
  H   H989      1.0  0.82503  0.28223  0.45051  1.0000
  H   H990      1.0  0.78449  0.29428  0.49253  1.0000
  H   H991      1.0  0.84092  0.27752  0.48536  1.0000
  H   H992      1.0  0.82292  0.29710  0.49606  1.0000
  H   H993      1.0  0.81033  0.24061  0.49103  1.0000
  H   H994      1.0  0.82473  0.27128  0.50860  1.0000
  H   H995      1.0  0.79877  0.24414  0.46550  1.0000
  C   C616      1.0  0.78728  0.27711  0.48970  1.0000
  N   N63       1.0  0.80818  0.27289  0.47927  1.0000
  C   C617      1.0  0.81118  0.24993  0.47577  1.0000
  C   C618      1.0  0.82492  0.27990  0.49295  1.0000
  H   H996      1.0  0.80701  0.30203  0.46075  1.0000
  C   C619      1.0  0.90516  0.32510  0.50185  1.0000
  S   S238      1.0  0.92961  0.32242  0.51461  1.0000
  H   H997      1.0  0.88718  0.31503  0.52967  1.0000
  C   C620      1.0  0.88644  0.32035  0.51324  1.0000
  H   H998      1.0  0.85247  0.31877  0.51246  1.0000
  C   C621      1.0  0.86675  0.32249  0.50350  1.0000
  C   C622      1.0  0.86571  0.32874  0.48207  1.0000
  S   S239      1.0  0.74988  0.30375  0.52187  1.0000
  S   S240      1.0  0.84149  0.32971  0.46886  1.0000
  S   S241      1.0  0.75653  0.48901  0.30691  1.0000
  H   H999      1.0  0.77476  0.44262  0.31027  1.0000
  H   H1000     1.0  0.75377  0.41100  0.30492  1.0000
  C   C623      1.0  0.77373  0.43884  0.32763  1.0000
  C   C624      1.0  0.75337  0.40805  0.32242  1.0000
  H   H1001     1.0  0.76711  0.39726  0.32629  1.0000
  S   S242      1.0  0.95939  0.50945  0.59515  1.0000
  H   H1002     1.0  0.80550  0.44151  0.63292  1.0000
  H   H1003     1.0  0.88093  0.40252  0.55660  1.0000
  H   H1004     1.0  0.87014  0.56059  0.41110  1.0000
  H   H1005     1.0  0.76858  0.55600  0.62784  1.0000
  N   N64       1.0  0.87857  0.38632  0.52732  1.0000
  C   C625      1.0  0.76002  0.56237  0.64205  1.0000
  H   H1006     1.0  0.87218  0.51029  0.61127  1.0000
  C   C626      1.0  0.91173  0.51667  0.35285  1.0000
  S   S243      1.0  0.97441  0.61419  0.51445  1.0000
  H   H1007     1.0  0.95345  0.46037  0.40623  1.0000
  H   H1008     1.0  0.86809  0.41475  0.51054  1.0000
  H   H1009     1.0  0.88966  0.54237  0.36031  1.0000
  H   H1010     1.0  0.85852  0.54296  0.39328  1.0000
  Fe  Fe119     1.0  0.96920  0.49628  0.35542  1.0000
  S   S244      1.0  0.96720  0.51218  0.38667  1.0000
  Fe  Fe120     1.0  0.95993  0.39142  0.50886  1.0000
  S   S245      1.0  0.94125  0.41831  0.52332  1.0000
  C   C627      1.0  0.89089  0.39760  0.54263  1.0000
  H   H1011     1.0  0.79831  0.49852  0.46500  1.0000
  S   S246      1.0  0.94526  0.37284  0.48412  1.0000
  Fe  Fe121     1.0  0.79444  0.51898  0.62434  1.0000
  S   S247      1.0  0.80766  0.54704  0.60609  1.0000
  Fe  Fe122     1.0  0.77908  0.47392  0.62810  1.0000
  S   S248      1.0  0.76461  0.44649  0.61243  1.0000
  S   S249      1.0  0.79841  0.52032  0.65941  1.0000
  H   H1012     1.0  0.96088  0.47497  0.56810  1.0000
  S   S250      1.0  0.81097  0.48719  0.62093  1.0000
  Fe  Fe123     1.0  0.78770  0.63237  0.46819  1.0000
  S   S251      1.0  0.78838  0.62275  0.43381  1.0000
  Fe  Fe124     1.0  0.77465  0.62063  0.51319  1.0000
  H   H1013     1.0  0.88838  0.54349  0.65538  1.0000
  H   H1014     1.0  0.89535  0.56213  0.62066  1.0000
  H   H1015     1.0  0.97204  0.40781  0.56699  1.0000
  S   S252      1.0  0.80361  0.61210  0.49332  1.0000
  Fe  Fe125     1.0  0.79544  0.47186  0.37099  1.0000
  S   S253      1.0  0.80298  0.43801  0.38149  1.0000
  Fe  Fe126     1.0  0.77656  0.51531  0.38167  1.0000
  S   S254      1.0  0.76225  0.53018  0.41133  1.0000
  Fe  Fe127     1.0  0.81686  0.51193  0.35431  1.0000
  C   C628      1.0  0.98342  0.41450  0.57788  1.0000
  S   S255      1.0  0.76283  0.48625  0.36841  1.0000
  S   S256      1.0  0.80826  0.49952  0.38697  1.0000
  Fe  Fe128     1.0  0.77401  0.37252  0.48253  1.0000
  Fe  Fe129     1.0  0.76977  0.33127  0.50875  1.0000
  Fe  Fe130     1.0  0.79685  0.36730  0.52425  1.0000
  S   S257      1.0  0.81389  0.38506  0.54888  1.0000
  S   S258      1.0  0.80654  0.48295  0.33852  1.0000
  S   S259      1.0  0.80754  0.37654  0.49115  1.0000
  Fe  Fe131     1.0  0.77402  0.49901  0.33635  1.0000
  C   C629      1.0  0.78995  0.42708  0.40415  1.0000
  C   C630      1.0  0.76978  0.43450  0.41065  1.0000
  H   H1016     1.0  0.88041  0.55595  0.59803  1.0000
  C   C631      1.0  0.76940  0.40824  0.43986  1.0000
  C   C632      1.0  0.78960  0.40090  0.43341  1.0000
  C   C633      1.0  0.79972  0.41012  0.41543  1.0000
  H   H1017     1.0  0.90550  0.36825  0.51519  1.0000
  C   C634      1.0  0.89878  0.65640  0.47714  1.0000
  H   H1018     1.0  0.79737  0.38799  0.44216  1.0000
  S   S260      1.0  0.77898  0.33814  0.47451  1.0000
  C   C635      1.0  0.77894  0.59773  0.42784  1.0000
  C   C636      1.0  0.77339  0.58297  0.44385  1.0000
  C   C637      1.0  0.76773  0.56248  0.43857  1.0000
  C   C638      1.0  0.76806  0.55645  0.41731  1.0000
  C   C639      1.0  0.77312  0.57136  0.40129  1.0000
  C   C640      1.0  0.77828  0.59201  0.40656  1.0000
  H   H1019     1.0  0.77290  0.56704  0.38484  1.0000
  H   H1020     1.0  0.78212  0.60352  0.39410  1.0000
  C   C641      1.0  0.79360  0.56003  0.58552  1.0000
  C   C642      1.0  0.77361  0.55370  0.58011  1.0000
  C   C643      1.0  0.76255  0.56494  0.56409  1.0000
  C   C644      1.0  0.77156  0.58230  0.55322  1.0000
  C   C645      1.0  0.79165  0.58841  0.55848  1.0000
  C   C646      1.0  0.80257  0.57737  0.57467  1.0000
  H   H1021     1.0  0.79870  0.60176  0.55016  1.0000
  H   H1022     1.0  0.81805  0.58232  0.57874  1.0000
  C   C647      1.0  0.77806  0.43120  0.59294  1.0000
  C   C648      1.0  0.79944  0.43385  0.58769  1.0000
  C   C649      1.0  0.81024  0.41973  0.57396  1.0000
  C   C650      1.0  0.79956  0.40338  0.56480  1.0000
  C   C651      1.0  0.77802  0.40126  0.56939  1.0000
  C   C652      1.0  0.76738  0.41499  0.58361  1.0000
  H   H1023     1.0  0.80771  0.44658  0.59437  1.0000
  S   S261      1.0  0.98502  0.37681  0.43523  1.0000
  H   H1024     1.0  0.76968  0.38866  0.56247  1.0000
  C   C653      1.0  0.89267  0.37939  0.50955  1.0000
  S   S262      1.0  0.78544  0.52954  0.34956  1.0000
  H   H1025     1.0  0.86220  0.48645  0.33792  1.0000
  C   C654      1.0  0.89137  0.52632  0.35491  1.0000
  S   S263      1.0  0.93180  0.46267  0.62048  1.0000
  H   H1026     1.0  0.97864  0.43577  0.50271  1.0000
  H   H1027     1.0  0.85160  0.59473  0.41969  1.0000
  H   H1028     1.0  0.83586  0.57440  0.36678  1.0000
  C   C655      1.0  0.88853  0.46678  0.62434  1.0000
  H   H1029     1.0  0.82525  0.54322  0.41546  1.0000
  N   N65       1.0  0.93407  0.43950  0.38960  1.0000
  H   H1030     1.0  0.78536  0.42271  0.66120  1.0000
  H   H1031     1.0  0.98285  0.63327  0.60896  1.0000
  H   H1032     1.0  0.86181  0.56953  0.64164  1.0000
  H   H1033     1.0  0.77803  0.51409  0.45188  1.0000
  H   H1034     1.0  0.82169  0.55299  0.37894  1.0000
  C   C656      1.0  0.91403  0.44071  0.37820  1.0000
  H   H1035     1.0  0.92968  0.40767  0.40169  1.0000
  H   H1036     1.0  0.91493  0.45209  0.36442  1.0000
  H   H1037     1.0  0.76017  0.54962  0.65462  1.0000
  C   C657      1.0  0.86156  0.40067  0.51909  1.0000
  H   H1038     1.0  0.88866  0.46124  0.60828  1.0000
  H   H1039     1.0  0.84994  0.60175  0.39189  1.0000
  H   H1040     1.0  0.89290  0.51862  0.64274  1.0000
  H   H1041     1.0  0.82647  0.60157  0.40867  1.0000
  C   C658      1.0  0.87460  0.64749  0.50664  1.0000
  H   H1042     1.0  0.93910  0.47282  0.38496  1.0000
  C   C659      1.0  0.86880  0.47675  0.65647  1.0000
  S   S264      1.0  0.99522  0.66174  0.51336  1.0000
  H   H1043     1.0  0.88973  0.63973  0.53614  1.0000
  C   C660      1.0  0.93251  0.42380  0.40738  1.0000
  N   N66       1.0  0.77078  0.48145  0.45787  1.0000
  H   H1044     1.0  0.86471  0.65595  0.47507  1.0000
  H   H1045     1.0  0.98477  0.55924  0.58466  1.0000
  Fe  Fe132     1.0  0.96091  0.48272  0.61938  1.0000
  H   H1046     1.0  0.88153  0.35602  0.54371  1.0000
  H   H1047     1.0  0.85884  0.37220  0.55186  1.0000
  H   H1048     1.0  0.90045  0.39306  0.50142  1.0000
  C   C661      1.0  0.95688  0.43938  0.52942  1.0000
  C   C662      1.0  0.95160  0.45095  0.54746  1.0000
  C   C663      1.0  0.96472  0.46679  0.55367  1.0000
  C   C664      1.0  0.88060  0.53110  0.64658  1.0000
  H   H1049     1.0  0.79422  0.49560  0.43712  1.0000
  C   C665      1.0  0.98285  0.47157  0.54153  1.0000
  S   S265      1.0  0.76209  0.50582  0.62806  1.0000
  C   C666      1.0  0.75511  0.48141  0.44101  1.0000
  Fe  Fe133     1.0  0.97794  0.37009  0.46976  1.0000
  C   C667      1.0  0.75358  0.42357  0.35693  1.0000
  Fe  Fe134     1.0  0.95539  0.34465  0.50406  1.0000
  H   H1050     1.0  0.85162  0.39244  0.50790  1.0000
  H   H1051     1.0  0.91944  0.42815  0.41881  1.0000
  C   C668      1.0  0.91634  0.65307  0.49012  1.0000
  H   H1052     1.0  0.91023  0.42507  0.37193  1.0000
  C   C669      1.0  0.86053  0.52295  0.61623  1.0000
  S   S266      1.0  0.76262  0.36569  0.51621  1.0000
  C   C670      1.0  0.99062  0.61276  0.58302  1.0000
  H   H1053     1.0  0.92544  0.52525  0.35682  1.0000
  C   C671      1.0  0.98566  0.40434  0.43204  1.0000
  C   C672      1.0  0.87590  0.49486  0.34227  1.0000
  C   C673      1.0  0.91291  0.64665  0.51132  1.0000
  H   H1054     1.0  0.92218  0.47857  0.66278  1.0000
  H   H1055     1.0  0.76290  0.47902  0.42515  1.0000
  C   C674      1.0  0.97482  0.44433  0.51699  1.0000
  H   H1056     1.0  0.81221  0.57973  0.38215  1.0000
  H   H1057     1.0  0.85082  0.40645  0.53216  1.0000
  C   C675      1.0  0.90746  0.47660  0.65497  1.0000
  C   C676      1.0  0.78606  0.49812  0.45280  1.0000
  C   C677      1.0  0.90406  0.33176  0.48054  1.0000
  C   C678      1.0  0.95523  0.55694  0.50857  1.0000
  H   H1058     1.0  0.90124  0.66135  0.46071  1.0000
  H   H1059     1.0  0.96731  0.41020  0.46073  1.0000
  C   C679      1.0  0.75981  0.48578  0.47840  1.0000
  H   H1060     1.0  0.82688  0.42152  0.57034  1.0000
  C   C680      1.0  0.95315  0.52810  0.53447  1.0000
  C   C681      1.0  0.87335  0.51547  0.34970  1.0000
  H   H1061     1.0  0.95310  0.44444  0.36116  1.0000
  H   H1062     1.0  0.79429  0.46013  0.47154  1.0000
  H   H1063     1.0  0.86890  0.56739  0.38327  1.0000
  H   H1064     1.0  0.81525  0.40417  0.41036  1.0000
  C   C682      1.0  0.98766  0.46069  0.52289  1.0000
  S   S267      1.0  0.84816  0.52868  0.35172  1.0000
  H   H1065     1.0  0.82695  0.44449  0.65036  1.0000
  C   C683      1.0  0.93821  0.46053  0.39794  1.0000
  H   H1066     1.0  0.74810  0.47349  0.48265  1.0000
  S   S268      1.0  0.99222  0.46908  0.60703  1.0000
  S   S269      1.0  0.75722  0.59628  0.53346  1.0000
  H   H1067     1.0  0.85239  0.52917  0.60180  1.0000
  C   C684      1.0  0.82026  0.43371  0.63885  1.0000
  H   H1068     1.0  0.99365  0.53674  0.54062  1.0000
  C   C685      1.0  0.89217  0.64416  0.51956  1.0000
  H   H1069     1.0  0.84836  0.51536  0.62675  1.0000
  H   H1070     1.0  0.88383  0.33779  0.45397  1.0000
  H   H1071     1.0  0.97198  0.44882  0.45908  1.0000
  H   H1072     1.0  0.84785  0.40075  0.64338  1.0000
  S   S270      1.0  0.97661  0.50152  0.64369  1.0000
  H   H1073     1.0  0.89965  0.53701  0.60839  1.0000
  C   C686      1.0  0.78208  0.46056  0.45925  1.0000
  H   H1074     1.0  0.96981  0.60452  0.63284  1.0000
  C   C687      1.0  0.97574  0.60091  0.61704  1.0000
  H   H1075     1.0  0.74707  0.56007  0.55992  1.0000
  Fe  Fe135     1.0  0.81649  0.64264  0.50398  1.0000
  H   H1076     1.0  0.81784  0.39744  0.61867  1.0000
  H   H1077     1.0  0.84740  0.56397  0.61850  1.0000
  H   H1078     1.0  0.96189  0.51520  0.54328  1.0000
  C   C688      1.0  0.98985  0.44828  0.42948  1.0000
  H   H1079     1.0  0.99173  0.53585  0.41435  1.0000
  H   H1080     1.0  0.76672  0.54016  0.58817  1.0000
  H   H1081     1.0  0.86867  0.52372  0.65759  1.0000
  S   S271      1.0  0.98745  0.33997  0.48742  1.0000
  H   H1082     1.0  0.94246  0.55049  0.49925  1.0000
  Fe  Fe136     1.0  0.97212  0.64426  0.49457  1.0000
  Fe  Fe137     1.0  0.99133  0.49691  0.58424  1.0000
  H   H1083     1.0  0.91840  0.33516  0.47151  1.0000
  C   C689      1.0  0.82672  0.56942  0.38134  1.0000
  H   H1084     1.0  0.98662  0.51215  0.51204  1.0000
  C   C690      1.0  0.86915  0.36761  0.53800  1.0000
  H   H1085     1.0  0.97731  0.56043  0.54379  1.0000
  C   C691      1.0  0.84200  0.59316  0.40540  1.0000
  H   H1086     1.0  0.92554  0.46586  0.40939  1.0000
  N   N67       1.0  0.87080  0.53998  0.62715  1.0000
  S   S272      1.0  0.96857  0.36361  0.52984  1.0000
  S   S273      1.0  0.75771  0.63918  0.48729  1.0000
  H   H1087     1.0  0.88386  0.37105  0.49753  1.0000
  H   H1088     1.0  0.76336  0.55125  0.45107  1.0000
  H   H1089     1.0  0.76204  0.44742  0.40196  1.0000
  C   C692      1.0  0.80714  0.39908  0.63293  1.0000
  H   H1090     1.0  0.75408  0.43844  0.36587  1.0000
  C   C693      1.0  0.91433  0.49629  0.34488  1.0000
  H   H1091     1.0  0.92621  0.64417  0.52156  1.0000
  H   H1092     1.0  0.89769  0.41217  0.53522  1.0000
  C   C694      1.0  0.98413  0.54920  0.53195  1.0000
  H   H1093     1.0  0.96549  0.56604  0.49724  1.0000
  H   H1094     1.0  0.96694  0.43207  0.38284  1.0000
  C   C695      1.0  0.88727  0.54919  0.61292  1.0000
  S   S274      1.0  0.80331  0.33242  0.51992  1.0000
  C   C696      1.0  0.90779  0.46987  0.63404  1.0000
  H   H1095     1.0  0.90439  0.38748  0.54850  1.0000
  N   N68       1.0  0.83926  0.57066  0.40061  1.0000
  C   C697      1.0  0.86912  0.47053  0.63536  1.0000
  C   C698      1.0  0.86015  0.55995  0.39698  1.0000
  H   H1096     1.0  0.83741  0.56040  0.43344  1.0000
  C   C699      1.0  0.97637  0.58003  0.61030  1.0000
  H   H1097     1.0  0.90053  0.44614  0.38863  1.0000
  C   C700      1.0  0.85479  0.55663  0.63288  1.0000
  H   H1098     1.0  0.93774  0.44717  0.55713  1.0000
  C   C701      1.0  0.83596  0.40299  0.65658  1.0000
  C   C702      1.0  0.97649  0.41712  0.44777  1.0000
  C   C703      1.0  0.95154  0.43297  0.37484  1.0000
  C   C704      1.0  0.75940  0.42486  0.42825  1.0000
  H   H1099     1.0  0.94902  0.41714  0.36830  1.0000
  H   H1100     1.0  0.81264  0.56802  0.42229  1.0000
  H   H1101     1.0  0.79172  0.40576  0.62728  1.0000
  H   H1102     1.0  0.77360  0.58730  0.46031  1.0000
  Fe  Fe138     1.0  0.81332  0.48774  0.65617  1.0000
  H   H1103     1.0  0.84177  0.55001  0.64304  1.0000
  Fe  Fe139     1.0  0.97722  0.52719  0.61833  1.0000
  S   S275      1.0  0.75644  0.39751  0.46264  1.0000
  N   N69       1.0  0.96744  0.53985  0.51977  1.0000
  H   H1104     1.0  0.76929  0.57556  0.64774  1.0000
  C   C705      1.0  0.82820  0.56006  0.41875  1.0000
  H   H1105     1.0  0.94734  0.42264  0.41632  1.0000
  H   H1106     1.0  0.79016  0.45653  0.44387  1.0000
  S   S276      1.0  0.96829  0.56003  0.62831  1.0000
  S   S277      1.0  0.84881  0.64582  0.51850  1.0000
  H   H1107     1.0  0.85448  0.46804  0.62767  1.0000
  S   S278      1.0  0.99173  0.39167  0.49277  1.0000
  S   S279      1.0  0.99255  0.47563  0.42863  1.0000
  C   C706      1.0  0.98311  0.61716  0.60355  1.0000
  H   H1108     1.0  0.94789  0.56849  0.51984  1.0000
  H   H1109     1.0  0.85904  0.35925  0.52709  1.0000
  H   H1110     1.0  0.94551  0.53870  0.54647  1.0000
  S   S280      1.0  0.78848  0.64943  0.52606  1.0000
  Fe  Fe140     1.0  0.81188  0.34171  0.48635  1.0000
  H   H1111     1.0  0.76749  0.41345  0.36180  1.0000
  H   H1112     1.0  0.77107  0.44764  0.46352  1.0000
  H   H1113     1.0  0.97855  0.40980  0.59441  1.0000
  H   H1114     1.0  0.94049  0.52061  0.52582  1.0000
  C   C707      1.0  0.97888  0.43902  0.44669  1.0000
  N   N70       1.0  0.81601  0.41277  0.64877  1.0000
  C   C708      1.0  0.87803  0.65336  0.48525  1.0000
  H   H1115     1.0  0.75084  0.41286  0.58759  1.0000
  S   S281      1.0  0.93974  0.48393  0.34101  1.0000
  H   H1116     1.0  0.98153  0.43207  0.57650  1.0000
  S   S282      1.0  0.80282  0.66249  0.47727  1.0000
  S   S283      1.0  0.94212  0.65830  0.47964  1.0000
  H   H1117     1.0  0.83169  0.43241  0.62515  1.0000
  C   C709      1.0  0.98410  0.57542  0.58982  1.0000
  H   H1118     1.0  0.77114  0.48592  0.49152  1.0000
  C   C710      1.0  0.88446  0.33321  0.47062  1.0000
  C   C711      1.0  0.97723  0.52519  0.50415  1.0000
  H   H1119     1.0  0.96517  0.51784  0.49459  1.0000
  C   C712      1.0  0.89632  0.48548  0.33954  1.0000
  H   H1120     1.0  0.80431  0.38290  0.63963  1.0000
  C   C713      1.0  0.99103  0.59189  0.57605  1.0000
  H   H1121     1.0  0.98821  0.53353  0.49290  1.0000
  H   H1122     1.0  0.74593  0.49679  0.43992  1.0000
  H   H1123     1.0  0.75113  0.50146  0.47792  1.0000
  H   H1124     1.0  0.99527  0.55813  0.52137  1.0000
  H   H1125     1.0  0.74722  0.60064  0.62645  1.0000
  H   H1126     1.0  0.74719  0.58160  0.60600  1.0000
  H   H1127     1.0  0.77441  0.45411  0.33571  1.0000
  S   S284      1.0  0.99320  0.51833  0.34080  1.0000
  Fe  Fe141     1.0  0.99316  0.53214  0.37321  1.0000
  Fe  Fe142     1.0  0.99374  0.48963  0.39568  1.0000
  S   S285      1.0  0.99426  0.47200  0.36542  1.0000
  Fe  Fe143     1.0  0.76699  0.50473  0.66337  1.0000
  S   S286      1.0  0.78237  0.47196  0.66357  1.0000
  H   H1128     1.0  0.89814  0.46987  0.33300  1.0000
  H   H1129     1.0  0.78805  0.42914  0.33207  1.0000
  N   N71       1.0  0.75406  0.42810  0.33379  1.0000
  C   C714      1.0  0.88806  0.47968  0.66622  1.0000
  H   H1130     1.0  0.88800  0.48427  0.68261  1.0000
  S   S287      1.0  0.84480  0.48037  0.67140  1.0000
  H   H1131     1.0  0.80664  0.42609  0.67877  1.0000
  H   H1132     1.0  0.84309  0.41314  0.66840  1.0000
  H   H1133     1.0  0.79716  0.40003  0.67477  1.0000
  C   C715      1.0  0.80064  0.41548  0.66670  1.0000
  H   H1134     1.0  0.83340  0.38720  0.66436  1.0000
  C   C716      1.0  0.84771  0.70072  0.49906  1.0000
  H   H1135     1.0  0.84670  0.74063  0.51292  1.0000
  H   H1136     1.0  0.82649  0.73689  0.53322  1.0000
  H   H1137     1.0  0.80100  0.72851  0.50578  1.0000
  H   H1138     1.0  0.96331  0.69317  0.44873  1.0000
  H   H1139     1.0  0.82119  0.73229  0.48540  1.0000
  N   N72       1.0  0.83047  0.71148  0.51144  1.0000
  H   H1140     1.0  0.98864  0.70547  0.47382  1.0000
  H   H1141     1.0  0.85129  0.72220  0.53472  1.0000
  C   C717      1.0  0.81440  0.72052  0.49691  1.0000
  C   C718      1.0  0.83913  0.72859  0.52361  1.0000
  C   C719      1.0  0.97646  0.68405  0.44063  1.0000
  C   C720      1.0  0.82059  0.69596  0.52625  1.0000
  H   H1142     1.0  0.85567  0.71183  0.48767  1.0000
  H   H1143     1.0  0.83213  0.68876  0.53759  1.0000
  H   H1144     1.0  0.85993  0.69340  0.50960  1.0000
  H   H1145     1.0  0.84167  0.68760  0.48982  1.0000
  H   H1146     1.0  0.81445  0.68272  0.51745  1.0000
  H   H1147     1.0  0.97665  0.66786  0.44810  1.0000
  H   H1148     1.0  0.80700  0.70316  0.53545  1.0000
  S   S288      1.0  0.76184  0.70170  0.50591  1.0000
  H   H1149     1.0  0.80737  0.70797  0.48765  1.0000
  H   H1150     1.0  0.97238  0.68247  0.42376  1.0000
  Fe  Fe144     1.0  0.77389  0.66775  0.49860  1.0000
  H   H1151     1.0  0.98339  0.72577  0.43965  1.0000
  H   H1152     1.0  0.99271  0.71455  0.41506  1.0000
