data_image0
_chemical_formula_structural       CHCH3CH2CHCHNCH5FeS2FeS2FeSFeS3FeSHCSHFeS4FeSFeS2FeSCFeS2FeS2FeSFeS3FeSHS2C6H5SFeH2C2H4C6H6FeH3C7H4C6H4C6H4C2H6CH4CHNHNH2CH2C3H2CH2C2H2SHCH9NC4H3SNHC2H2SCHCFeSFeCH4FeNCH2C2H2C2H2C2H2SHC2H2SH2CH3CHCHCHSHSCHCH2C3HNH3CHCHCH2FeSC2H5CNC2H4C2HCH2SC2HNCFeH5FeH2NFeH2FeHNCHC2SHCHCHCH8SH6CHS2HCSHCHCH2CFeS2FeS2FeSFeS3HSFeS2FeS2FeSFeS3CH4C5H3C2H2NCH4C6H4C6HCH2C3NC2H4C6H6NH2CH2CHCHCHCHCHNC4H12C3H4C3HCH7C2HNH2NHCHSH5CH3CH5CH3CH4CH2NC3H2C2H2CH2C3H2C3SHCHCH2NC2H7CFeS2FeSCFeS3HSH2SHFeS2FeS2FeS2FeSFeS4FeSHFeSCFeS2FeS2FeSFeS3FeSHS2C6H4C7H4C6H4C6H4C2FeHC6H5C3HSCHCHCHC2H3C4H4C2HFeH3C2SH6FeHCH2CHC2SH6N3H2NC4H11NC4H15CH2C2H2SHC2H3C4H2CFeHCHSNSHFe2NCHC2HFeNC2H3CH7SH10CH2SHCHC3FeHCHFeCH3FeS2FeS2FeCFeS3C3HSFeS2FeS2FeSFeS3H3CHCHCH4C2H3C6H4C6H4CH3C2H3C2HCH2SC6H4C6H4C2HC4H3CHCSH2CSH4NH3SH4CHC4H5CNH3CH2SH2N2CH2CH3NH3CH5CNH4CH2S2H3CH4NH2CH4CH2C3H7FeSNFeS2FeSFeS3FeS2NH2FeSFeS5FeSFeSFeSFeSFeSFeS3HSH2FeHFeHFeSH2SNFeHSFe2SFeS2FeS2FeSFeS3HC3H2C7H2C6H2NC6H4NSHC9H4C6H4C6H4C6H4C6H4C6H2CSHCFeH2CHCHNC4H15CNC4H12CH2SC3FeH4Fe2CSH2SCH3FeHCFeH2FeCH3FeH3SCHCH2SC2H4SNCH2CSH7C2H2CHCH2CH5FeH4S2HSCHNH3SH4NHCH2CH2CSCH5C2SCHCSHCHCH2SHSH2SC2H4SH6C2H3CH3CSH5CH3NHNH2CHCHCH5SH5CH2CHCH3CH3CSH2C2HCHNHCH2NC2H8CH5S2CHFeSFeSFeS2H3FeS2HSHFeS2FeHFeS2H2SFeS2FeSCHS2C7H3S2H2C6H4C6H2C6H4NFeHCNC4H14CFeCHS2CH2FeH2SH2SFeHSHSH4FeH2FeC2FeHSH7SHNHCHCH3CHFeS2FeS2FeSFeS3FeS2FeS2FeHFeS2FeS2FeS2Fe2HS2FeS2FeS2FeSFeS3HCHSH2CHCS2C3HC2H4C6H4C2H2C6H4C4H3C2HC6H4C2H3C3HC7H4C6H4C6H2CHCH3NC4H11SHCHSH4CHNH12CHSCHCH5CHCHCH2CNHCH2CHCHCHSH9C3H2NSCHCH2CH4CH3NCH2C2HCH3C7H2CH7NHCH6NCHCH5CHCNCHNH3CHCH6CH2C3HC3HNH6CNCH2CH5CH6C2H2C2NCSC2H5CH6SCH2C2H2CH2CFeSFeS2FeSFeS3FeSFeHFeSCSHFeS2FeS2FeSFeS3FeSHSFe2SFeS2FeS2FeSFeS3FeS2FeSCFeCFeS3H7C6H4C6H5C3H2C2H3C6H4C2H3C6H4C6H4C6H4CHNHSH7CHFeCH8CH3S2HCHCH2CNSH2CSH2NC2H4CH2CH4CH7NHCH7CHCHC2H3CH2CNSH3CH4NHCHSCH3FeCHNC5HNH2CH5C3H6SHCHCHCH2SH7NCH3C3HSH3C3HC3H2CH2CSFeS2FeS2FeSFeHS2NFeS2FeS2FeSFeS3HC2H5C6H3C6SH7CHC2H3CHCH2C6H4C6H3CHC2H6CH3C2H2SH6CHSCH4NHCH2C3H2C3H2CH2NCHCHCHCH2CHCH6CHCHCHN2CH5CNHCH3SHCH6C3H3C3HNHCSCH3CSH2FeSHFeS2Fe2HS2FeS2CSFeSFeSH2FeS2FeS2FeSFeS3FeS2FeS2FeSFeS3FeS2FeSFeSHSHFeS2FeS2FeSFeS2HCNHC6H4C6H4C3HC2HC6H4C6H4C6H3CH4C6H4C4H2CNC3H5CHCNC4H12CHCH9C2HCH2CHCFeHCHC2H5SCHC2H5CNCHCH3CH3CH6C2H2C2HCH3NHCH4C2HNCHCH9NC2H5CH3C3HCH4SHCS3H2NH2SCH2C2H2CHNH3SH3FeS2FeS2FeSFeNS2HFe2S2FeS2FeSFeS3C2HCH3CH2CH2C7H6CH3CH2C6H5C2HCH3CHC6H4C2HCH4CHCNC5H11CH2NC2H9CH4NHCH3C2H2CH2NCH2S2HCHCSNH2CHC2H2CHC2H4CH2CNH2CH2CH8C6HNHC2HCH2CH7SH2CH4
_chemical_formula_sum              "C960 H1536 N96 Fe192 S384"
_cell_length_a       76.0009
_cell_length_b       76.2697
_cell_length_c       76.25
_cell_angle_alpha    81.067
_cell_angle_beta     80.9412
_cell_angle_gamma    81.2172

_space_group_name_H-M_alt    "P 1"
_space_group_IT_number       1

loop_
  _space_group_symop_operation_xyz
  'x, y, z'

loop_
  _atom_site_type_symbol
  _atom_site_label
  _atom_site_symmetry_multiplicity
  _atom_site_fract_x
  _atom_site_fract_y
  _atom_site_fract_z
  _atom_site_occupancy
  C   C1        1.0  0.32599  0.32358  0.48663  1.0000
  H   H1        1.0  0.33036  0.31470  0.46067  1.0000
  C   C2        1.0  0.32232  0.32391  0.46913  1.0000
  H   H2        1.0  0.30540  0.29262  0.49063  1.0000
  H   H3        1.0  0.32720  0.28160  0.48336  1.0000
  H   H4        1.0  0.30771  0.27437  0.47768  1.0000
  C   C3        1.0  0.31310  0.27929  0.48848  1.0000
  H   H5        1.0  0.33505  0.03758  0.48083  1.0000
  H   H6        1.0  0.31801  0.24332  0.49128  1.0000
  C   C4        1.0  0.32290  0.24924  0.50177  1.0000
  H   H7        1.0  0.32261  0.23925  0.51408  1.0000
  C   C5        1.0  0.29318  0.26383  0.51142  1.0000
  H   H8        1.0  0.29191  0.25423  0.52400  1.0000
  N   N1        1.0  0.31212  0.26653  0.50520  1.0000
  C   C6        1.0  0.31928  0.27379  0.51912  1.0000
  H   H9        1.0  0.31798  0.26497  0.53219  1.0000
  H   H10       1.0  0.28476  0.27667  0.51417  1.0000
  H   H11       1.0  0.33378  0.27518  0.51525  1.0000
  H   H12       1.0  0.31226  0.28739  0.52125  1.0000
  H   H13       1.0  0.28732  0.25844  0.50121  1.0000
  Fe  Fe1       1.0  0.05448  0.53493  0.34559  1.0000
  S   S1        1.0  0.05395  0.51350  0.36915  1.0000
  S   S2        1.0  0.02680  0.54944  0.34037  1.0000
  Fe  Fe2       1.0  0.09665  0.53361  0.34282  1.0000
  S   S3        1.0  0.09802  0.51206  0.36636  1.0000
  S   S4        1.0  0.12172  0.54731  0.33172  1.0000
  Fe  Fe3       1.0  0.07859  0.50023  0.35385  1.0000
  S   S5        1.0  0.08033  0.47108  0.35186  1.0000
  Fe  Fe4       1.0  0.07322  0.52798  0.37867  1.0000
  S   S6        1.0  0.06821  0.53482  0.40655  1.0000
  S   S7        1.0  0.07836  0.52073  0.32922  1.0000
  S   S8        1.0  0.07263  0.55034  0.35613  1.0000
  Fe  Fe5       1.0  0.04663  0.43604  0.48165  1.0000
  S   S9        1.0  0.05193  0.45333  0.45527  1.0000
  H   H14       1.0  0.02433  0.54887  0.40120  1.0000
  C   C7        1.0  0.08708  0.49558  0.48276  1.0000
  S   S10       1.0  0.09551  0.44435  0.45924  1.0000
  H   H15       1.0  0.20785  0.65693  0.49025  1.0000
  Fe  Fe6       1.0  0.07491  0.43189  0.44912  1.0000
  S   S11       1.0  0.08292  0.41885  0.42428  1.0000
  S   S12       1.0  0.06814  0.41355  0.47447  1.0000
  S   S13       1.0  0.07393  0.61189  0.44618  1.0000
  S   S14       1.0  0.11158  0.59353  0.46068  1.0000
  Fe  Fe7       1.0  0.10309  0.60799  0.43512  1.0000
  S   S15       1.0  0.11462  0.59552  0.41050  1.0000
  Fe  Fe8       1.0  0.08298  0.60023  0.47247  1.0000
  S   S16       1.0  0.24636  0.61875  0.46435  1.0000
  S   S17       1.0  0.28703  0.62826  0.46623  1.0000
  Fe  Fe9       1.0  0.27151  0.62266  0.44521  1.0000
  S   S18       1.0  0.28452  0.60472  0.42428  1.0000
  C   C8        1.0  0.00895  0.58319  0.39639  1.0000
  Fe  Fe10      1.0  0.24569  0.55540  0.35808  1.0000
  S   S19       1.0  0.27387  0.54179  0.35236  1.0000
  S   S20       1.0  0.23618  0.57785  0.37530  1.0000
  Fe  Fe11      1.0  0.22979  0.52902  0.34019  1.0000
  S   S21       1.0  0.25721  0.51308  0.33349  1.0000
  S   S22       1.0  0.20512  0.51779  0.33453  1.0000
  Fe  Fe12      1.0  0.26155  0.51631  0.36131  1.0000
  S   S23       1.0  0.27465  0.49684  0.38257  1.0000
  Fe  Fe13      1.0  0.26760  0.53971  0.32478  1.0000
  S   S24       1.0  0.28705  0.54855  0.29935  1.0000
  S   S25       1.0  0.23374  0.53000  0.36854  1.0000
  S   S26       1.0  0.23984  0.55559  0.32989  1.0000
  Fe  Fe14      1.0  0.23969  0.41941  0.45116  1.0000
  S   S27       1.0  0.23623  0.43052  0.42243  1.0000
  H   H16       1.0  0.26119  0.56001  0.42418  1.0000
  S   S28       1.0  0.23387  0.39129  0.46090  1.0000
  S   S29       1.0  0.22354  0.43059  0.47512  1.0000
  C   C9        1.0  0.26315  0.47905  0.39397  1.0000
  C   C10       1.0  0.24904  0.47380  0.38714  1.0000
  C   C11       1.0  0.24070  0.45903  0.39612  1.0000
  C   C12       1.0  0.24598  0.44984  0.41227  1.0000
  C   C13       1.0  0.25966  0.45551  0.41942  1.0000
  C   C14       1.0  0.26852  0.46978  0.41007  1.0000
  H   H17       1.0  0.24483  0.48083  0.37473  1.0000
  H   H18       1.0  0.23012  0.45471  0.39051  1.0000
  H   H19       1.0  0.26371  0.44867  0.43196  1.0000
  H   H20       1.0  0.27958  0.47357  0.41533  1.0000
  H   H21       1.0  0.13636  0.38119  0.47640  1.0000
  S   S30       1.0  0.08755  0.62609  0.48026  1.0000
  Fe  Fe15      1.0  0.07970  0.63754  0.45313  1.0000
  H   H22       1.0  0.28704  0.51721  0.41112  1.0000
  H   H23       1.0  0.24109  0.50531  0.28433  1.0000
  C   C15       1.0  0.30711  0.52218  0.27947  1.0000
  C   C16       1.0  0.30441  0.54007  0.28268  1.0000
  H   H24       1.0  0.24494  0.54734  0.40432  1.0000
  H   H25       1.0  0.17999  0.60690  0.47886  1.0000
  H   H26       1.0  0.29880  0.51280  0.28756  1.0000
  H   H27       1.0  0.26989  0.50382  0.42133  1.0000
  C   C17       1.0  0.27099  0.59762  0.41050  1.0000
  C   C18       1.0  0.25236  0.60250  0.41247  1.0000
  C   C19       1.0  0.24193  0.59643  0.40150  1.0000
  C   C20       1.0  0.24997  0.58531  0.38857  1.0000
  C   C21       1.0  0.26861  0.58041  0.38660  1.0000
  C   C22       1.0  0.27908  0.58666  0.39745  1.0000
  H   H28       1.0  0.24598  0.61101  0.42240  1.0000
  H   H29       1.0  0.22755  0.60038  0.40303  1.0000
  H   H30       1.0  0.27498  0.57201  0.37658  1.0000
  H   H31       1.0  0.29349  0.58289  0.39577  1.0000
  H   H32       1.0  0.20668  0.62280  0.46851  1.0000
  H   H33       1.0  0.16490  0.59920  0.44105  1.0000
  Fe  Fe16      1.0  0.11584  0.62065  0.46592  1.0000
  H   H34       1.0  0.30544  0.33622  0.44907  1.0000
  H   H35       1.0  0.00590  0.45030  0.39275  1.0000
  H   H36       1.0  0.02416  0.58393  0.48713  1.0000
  C   C23       1.0  0.17444  0.65497  0.45337  1.0000
  C   C24       1.0  0.08246  0.45706  0.37209  1.0000
  C   C25       1.0  0.08137  0.46402  0.38826  1.0000
  C   C26       1.0  0.08149  0.45237  0.40449  1.0000
  C   C27       1.0  0.08307  0.43383  0.40439  1.0000
  C   C28       1.0  0.08459  0.42697  0.38818  1.0000
  C   C29       1.0  0.08416  0.43856  0.37209  1.0000
  H   H37       1.0  0.07995  0.47834  0.38827  1.0000
  H   H38       1.0  0.08025  0.45767  0.41704  1.0000
  H   H39       1.0  0.08583  0.41266  0.38807  1.0000
  H   H40       1.0  0.08502  0.43317  0.35961  1.0000
  C   C30       1.0  0.08184  0.55096  0.40796  1.0000
  C   C31       1.0  0.08016  0.55859  0.42374  1.0000
  C   C32       1.0  0.09061  0.57196  0.42469  1.0000
  C   C33       1.0  0.10262  0.57782  0.40982  1.0000
  C   C34       1.0  0.10475  0.56971  0.39426  1.0000
  C   C35       1.0  0.09442  0.55624  0.39335  1.0000
  H   H41       1.0  0.07071  0.55430  0.43520  1.0000
  H   H42       1.0  0.08932  0.57770  0.43697  1.0000
  H   H43       1.0  0.11419  0.57402  0.38279  1.0000
  H   H44       1.0  0.09629  0.55001  0.38130  1.0000
  C   C36       1.0  0.14459  0.53891  0.33436  1.0000
  C   C37       1.0  0.15058  0.52054  0.33741  1.0000
  C   C38       1.0  0.16905  0.51439  0.33779  1.0000
  C   C39       1.0  0.18179  0.52646  0.33566  1.0000
  C   C40       1.0  0.17575  0.54484  0.33314  1.0000
  C   C41       1.0  0.15732  0.55098  0.33227  1.0000
  H   H45       1.0  0.14106  0.51105  0.33882  1.0000
  H   H46       1.0  0.17352  0.50015  0.33958  1.0000
  H   H47       1.0  0.18529  0.55434  0.33138  1.0000
  H   H48       1.0  0.15290  0.56521  0.32984  1.0000
  C   C42       1.0  0.29753  0.34844  0.47328  1.0000
  C   C43       1.0  0.22732  0.53471  0.26429  1.0000
  H   H49       1.0  0.21739  0.50988  0.29227  1.0000
  H   H50       1.0  0.32201  0.50268  0.26302  1.0000
  H   H51       1.0  0.14442  0.61216  0.43541  1.0000
  H   H52       1.0  0.11542  0.48621  0.39551  1.0000
  H   H53       1.0  0.27063  0.37351  0.42442  1.0000
  H   H54       1.0  0.02074  0.51286  0.33862  1.0000
  C   C44       1.0  0.23072  0.51452  0.29161  1.0000
  H   H55       1.0  0.11598  0.47889  0.44475  1.0000
  H   H56       1.0  0.24906  0.52369  0.40287  1.0000
  H   H57       1.0  0.28232  0.54993  0.41371  1.0000
  H   H58       1.0  0.28216  0.51303  0.43521  1.0000
  C   C45       1.0  0.10718  0.38260  0.46038  1.0000
  H   H59       1.0  0.04270  0.45961  0.35543  1.0000
  N   N2        1.0  0.23066  0.53331  0.28306  1.0000
  H   H60       1.0  0.01416  0.43197  0.45945  1.0000
  N   N3        1.0  0.28661  0.39473  0.41360  1.0000
  H   H61       1.0  0.09653  0.38956  0.45227  1.0000
  H   H62       1.0  0.14227  0.38290  0.42669  1.0000
  C   C46       1.0  0.03115  0.61663  0.48919  1.0000
  H   H63       1.0  0.30208  0.37360  0.42908  1.0000
  H   H64       1.0  0.15032  0.60453  0.39588  1.0000
  C   C47       1.0  0.12424  0.55060  0.49260  1.0000
  C   C48       1.0  0.31530  0.33576  0.49735  1.0000
  C   C49       1.0  0.24829  0.53912  0.28344  1.0000
  H   H65       1.0  0.31325  0.39303  0.42065  1.0000
  H   H66       1.0  0.01560  0.58148  0.36096  1.0000
  C   C50       1.0  0.12880  0.38014  0.43376  1.0000
  H   H67       1.0  0.25869  0.39312  0.41273  1.0000
  H   H68       1.0  0.12247  0.41106  0.46242  1.0000
  C   C51       1.0  0.21629  0.54486  0.29291  1.0000
  C   C52       1.0  0.10253  0.48322  0.48442  1.0000
  H   H69       1.0  0.04185  0.61297  0.49805  1.0000
  H   H70       1.0  0.04042  0.48304  0.35662  1.0000
  S   S31       1.0  0.25163  0.65683  0.47811  1.0000
  H   H71       1.0  0.21573  0.55915  0.28687  1.0000
  C   C53       1.0  0.30001  0.38848  0.42610  1.0000
  H   H72       1.0  0.23363  0.51294  0.30566  1.0000
  H   H73       1.0  0.04608  0.45278  0.38761  1.0000
  H   H74       1.0  0.28307  0.39207  0.38681  1.0000
  H   H75       1.0  0.11861  0.38705  0.42506  1.0000
  H   H76       1.0  0.03955  0.57768  0.35937  1.0000
  H   H77       1.0  0.27641  0.54559  0.43757  1.0000
  H   H78       1.0  0.26610  0.53761  0.39358  1.0000
  H   H79       1.0  0.04096  0.57141  0.40846  1.0000
  H   H80       1.0  0.01362  0.55305  0.38115  1.0000
  N   N4        1.0  0.26251  0.53196  0.42235  1.0000
  C   C54       1.0  0.24770  0.52909  0.43713  1.0000
  C   C55       1.0  0.25530  0.53533  0.40506  1.0000
  C   C56       1.0  0.27603  0.51583  0.42257  1.0000
  C   C57       1.0  0.27098  0.54754  0.42458  1.0000
  H   H81       1.0  0.25269  0.52636  0.45039  1.0000
  H   H82       1.0  0.24100  0.51745  0.43575  1.0000
  H   H83       1.0  0.23727  0.54105  0.43733  1.0000
  S   S32       1.0  0.10856  0.63494  0.43941  1.0000
  N   N5        1.0  0.01455  0.60892  0.49735  1.0000
  H   H84       1.0  0.00706  0.63000  0.44360  1.0000
  C   C58       1.0  0.17839  0.62029  0.47162  1.0000
  C   C59       1.0  0.11852  0.49247  0.43808  1.0000
  H   H85       1.0  0.11181  0.50216  0.44739  1.0000
  H   H86       1.0  0.13025  0.51540  0.40930  1.0000
  S   S33       1.0  0.27972  0.36348  0.46416  1.0000
  C   C60       1.0  0.01044  0.48462  0.38070  1.0000
  H   H87       1.0  0.00352  0.48317  0.39474  1.0000
  C   C61       1.0  0.19355  0.62930  0.46583  1.0000
  Fe  Fe17      1.0  0.25953  0.38730  0.47333  1.0000
  S   S34       1.0  0.26588  0.41508  0.46205  1.0000
  Fe  Fe18      1.0  0.07186  0.46369  0.46845  1.0000
  C   C62       1.0  0.11554  0.51470  0.41218  1.0000
  H   H88       1.0  0.08488  0.50688  0.43174  1.0000
  H   H89       1.0  0.13325  0.49299  0.43650  1.0000
  H   H90       1.0  0.10997  0.51862  0.39929  1.0000
  H   H91       1.0  0.03761  0.54927  0.37961  1.0000
  Fe  Fe19      1.0  0.23845  0.64815  0.45697  1.0000
  N   N6        1.0  0.11159  0.49668  0.42065  1.0000
  C   C63       1.0  0.09196  0.49632  0.42357  1.0000
  H   H92       1.0  0.10947  0.52508  0.42094  1.0000
  H   H93       1.0  0.08836  0.48327  0.43081  1.0000
  C   C64       1.0  0.00781  0.52074  0.34160  1.0000
  C   C65       1.0  0.12028  0.48326  0.40884  1.0000
  H   H94       1.0  0.11733  0.46955  0.41473  1.0000
  H   H95       1.0  0.08631  0.49876  0.41068  1.0000
  C   C66       1.0  0.13892  0.37697  0.46278  1.0000
  C   C67       1.0  0.26931  0.38838  0.42155  1.0000
  H   H96       1.0  0.13514  0.48305  0.40643  1.0000
  H   H97       1.0  0.18564  0.65064  0.49521  1.0000
  C   C68       1.0  0.30067  0.64207  0.39599  1.0000
  C   C69       1.0  0.30125  0.34815  0.49074  1.0000
  H   H98       1.0  0.31356  0.56583  0.27405  1.0000
  H   H99       1.0  0.22720  0.54873  0.25747  1.0000
  S   S35       1.0  0.07202  0.49285  0.46856  1.0000
  H   H100      1.0  0.14609  0.65239  0.45633  1.0000
  C   C70       1.0  0.14337  0.41751  0.48770  1.0000
  C   C71       1.0  0.31547  0.55195  0.27183  1.0000
  H   H101      1.0  0.03945  0.63170  0.44419  1.0000
  H   H102      1.0  0.29554  0.39356  0.43923  1.0000
  S   S36       1.0  0.26275  0.65165  0.43639  1.0000
  H   H103      1.0  0.13960  0.40916  0.44345  1.0000
  H   H104      1.0  0.02754  0.59821  0.36626  1.0000
  C   C72       1.0  0.03006  0.49219  0.49654  1.0000
  H   H105      1.0  0.00510  0.60983  0.47214  1.0000
  H   H106      1.0  0.30139  0.64323  0.43090  1.0000
  H   H107      1.0  0.17120  0.42157  0.47797  1.0000
  C   C73       1.0  0.04136  0.57801  0.39433  1.0000
  H   H108      1.0  0.29493  0.37265  0.39851  1.0000
  C   C74       1.0  0.19162  0.64684  0.45701  1.0000
  H   H109      1.0  0.02250  0.44054  0.37628  1.0000
  C   C75       1.0  0.01115  0.64199  0.44671  1.0000
  H   H110      1.0  0.11627  0.41326  0.44037  1.0000
  S   S37       1.0  0.06549  0.44777  0.49526  1.0000
  H   H111      1.0  0.10608  0.36803  0.46230  1.0000
  S   S38       1.0  0.14247  0.61705  0.47706  1.0000
  C   C76       1.0  0.15929  0.64582  0.45885  1.0000
  H   H112      1.0  0.12587  0.53569  0.49464  1.0000
  C   C77       1.0  0.16118  0.62852  0.46825  1.0000
  H   H113      1.0  0.30626  0.62773  0.39558  1.0000
  H   H114      1.0  0.26430  0.39350  0.43449  1.0000
  C   C78       1.0  0.28408  0.41451  0.41035  1.0000
  C   C79       1.0  0.30816  0.33619  0.46258  1.0000
  C   C80       1.0  0.03504  0.65874  0.45051  1.0000
  H   H115      1.0  0.00714  0.57696  0.41065  1.0000
  N   N7        1.0  0.02569  0.57513  0.38634  1.0000
  H   H116      1.0  0.07170  0.51969  0.49128  1.0000
  H   H117      1.0  0.27372  0.41974  0.40131  1.0000
  H   H118      1.0  0.16004  0.63815  0.42241  1.0000
  C   C81       1.0  0.02954  0.64296  0.44704  1.0000
  H   H119      1.0  0.16117  0.62401  0.38719  1.0000
  C   C82       1.0  0.00702  0.53883  0.34340  1.0000
  H   H120      1.0  0.24871  0.55337  0.27756  1.0000
  C   C83       1.0  0.29295  0.38756  0.39647  1.0000
  H   H121      1.0  0.20282  0.54062  0.29327  1.0000
  H   H122      1.0  0.13773  0.42871  0.47886  1.0000
  Fe  Fe20      1.0  0.27712  0.65746  0.45834  1.0000
  S   S39       1.0  0.06612  0.58052  0.48935  1.0000
  C   C84       1.0  0.32035  0.51647  0.26549  1.0000
  C   C85       1.0  0.12596  0.40583  0.44933  1.0000
  H   H123      1.0  0.04425  0.47633  0.38866  1.0000
  H   H124      1.0  0.17856  0.58732  0.40438  1.0000
  H   H125      1.0  0.00316  0.45511  0.36943  1.0000
  H   H126      1.0  0.10526  0.47199  0.47693  1.0000
  H   H127      1.0  0.21839  0.54418  0.30710  1.0000
  C   C86       1.0  0.02524  0.55572  0.38715  1.0000
  N   N8        1.0  0.02318  0.46849  0.37704  1.0000
  C   C87       1.0  0.01323  0.45293  0.37896  1.0000
  C   C88       1.0  0.18232  0.59995  0.40748  1.0000
  H   H128      1.0  0.18065  0.62563  0.42856  1.0000
  H   H129      1.0  0.02871  0.63152  0.48652  1.0000
  H   H130      1.0  0.15134  0.59098  0.42744  1.0000
  H   H131      1.0  0.01740  0.49677  0.37859  1.0000
  C   C89       1.0  0.33025  0.65108  0.39276  1.0000
  C   C90       1.0  0.15441  0.61674  0.39960  1.0000
  H   H132      1.0  0.14178  0.62532  0.40413  1.0000
  C   C91       1.0  0.15636  0.60316  0.43012  1.0000
  H   H133      1.0  0.30598  0.39211  0.39009  1.0000
  H   H134      1.0  0.10402  0.38720  0.47384  1.0000
  S   S40       1.0  0.05784  0.66115  0.45095  1.0000
  C   C92       1.0  0.03274  0.47141  0.35858  1.0000
  C   C93       1.0  0.16233  0.41353  0.48724  1.0000
  H   H135      1.0  0.15269  0.37986  0.45682  1.0000
  N   N9        1.0  0.12524  0.38636  0.45157  1.0000
  C   C94       1.0  0.32894  0.54616  0.25808  1.0000
  Fe  Fe21      1.0  0.24944  0.42414  0.48707  1.0000
  H   H136      1.0  0.03676  0.61166  0.47621  1.0000
  H   H137      1.0  0.28711  0.64216  0.40405  1.0000
  H   H138      1.0  0.19163  0.59627  0.41777  1.0000
  H   H139      1.0  0.05422  0.57230  0.38685  1.0000
  H   H140      1.0  0.12833  0.36549  0.43489  1.0000
  Fe  Fe22      1.0  0.08769  0.42729  0.48501  1.0000
  H   H141      1.0  0.17951  0.63568  0.40580  1.0000
  H   H142      1.0  0.13897  0.36220  0.46457  1.0000
  N   N10       1.0  0.31243  0.65161  0.40383  1.0000
  Fe  Fe23      1.0  0.21966  0.40214  0.48579  1.0000
  H   H143      1.0  0.29675  0.41992  0.40422  1.0000
  H   H144      1.0  0.19004  0.60623  0.39505  1.0000
  Fe  Fe24      1.0  0.26079  0.62726  0.48454  1.0000
  H   H145      1.0  0.25949  0.53090  0.27593  1.0000
  N   N11       1.0  0.16625  0.61211  0.41374  1.0000
  C   C95       1.0  0.17186  0.62861  0.41778  1.0000
  H   H146      1.0  0.27937  0.42027  0.42306  1.0000
  C   C96       1.0  0.31454  0.64282  0.42220  1.0000
  C   C97       1.0  0.08361  0.51005  0.49258  1.0000
  S   S41       1.0  0.21008  0.65927  0.45114  1.0000
  H   H147      1.0  0.02327  0.47408  0.34844  1.0000
  C   C98       1.0  0.03634  0.46495  0.38992  1.0000
  H   H148      1.0  0.04203  0.59250  0.39424  1.0000
  C   C99       1.0  0.33137  0.52838  0.25461  1.0000
  H   H149      1.0  0.32028  0.62847  0.42242  1.0000
  C   C100      1.0  0.02715  0.58355  0.36743  1.0000
  H   H150      1.0  0.02969  0.46277  0.40402  1.0000
  H   H151      1.0  0.25142  0.53785  0.29736  1.0000
  H   H152      1.0  0.21412  0.53041  0.26357  1.0000
  H   H153      1.0  0.29876  0.64826  0.38211  1.0000
  H   H154      1.0  0.23791  0.52615  0.25645  1.0000
  H   H155      1.0  0.02614  0.50401  0.48674  1.0000
  H   H156      1.0  0.32918  0.65760  0.37879  1.0000
  H   H157      1.0  0.03401  0.48048  0.48900  1.0000
  S   S42       1.0  0.01822  0.43493  0.49642  1.0000
  H   H158      1.0  0.00879  0.59782  0.39625  1.0000
  H   H159      1.0  0.22074  0.62572  0.49755  1.0000
  H   H160      1.0  0.32327  0.64967  0.42864  1.0000
  H   H161      1.0  0.13510  0.55495  0.48198  1.0000
  H   H162      1.0  0.11117  0.55532  0.48739  1.0000
  H   H163      1.0  0.12693  0.47628  0.49642  1.0000
  C   C101      1.0  0.11475  0.48559  0.49554  1.0000
  H   H164      1.0  0.13389  0.58240  0.49627  1.0000
  S   S43       1.0  0.25926  0.44693  0.49711  1.0000
  S   S44       1.0  0.24484  0.39602  0.49946  1.0000
  H   H165      1.0  0.28331  0.58993  0.49975  1.0000
  C   C102      1.0  0.16976  0.39917  0.49897  1.0000
  S   S45       1.0  0.19318  0.39274  0.49972  1.0000
  H   H166      1.0  0.29325  0.35742  0.49919  1.0000
  C   C103      1.0  0.13188  0.40704  0.49985  1.0000
  H   H167      1.0  0.00273  0.47335  0.49685  1.0000
  C   C104      1.0  0.01833  0.58916  0.49995  1.0000
  H   H168      1.0  0.22865  0.48849  0.54604  1.0000
  H   H169      1.0  0.03554  0.51686  0.58325  1.0000
  C   C105      1.0  0.02616  0.50928  0.57941  1.0000
  Fe  Fe25      1.0  0.11375  0.50416  0.58674  1.0000
  S   S46       1.0  0.11879  0.52568  0.56380  1.0000
  S   S47       1.0  0.13653  0.49298  0.60315  1.0000
  Fe  Fe26      1.0  0.07760  0.49850  0.57492  1.0000
  S   S48       1.0  0.08099  0.51940  0.55109  1.0000
  S   S49       1.0  0.05477  0.48200  0.57522  1.0000
  Fe  Fe27      1.0  0.10986  0.50776  0.54735  1.0000
  S   S50       1.0  0.12548  0.50129  0.52108  1.0000
  Fe  Fe28      1.0  0.08933  0.53520  0.57016  1.0000
  S   S51       1.0  0.08024  0.56476  0.56881  1.0000
  S   S52       1.0  0.10630  0.48553  0.56981  1.0000
  S   S53       1.0  0.08448  0.51493  0.59459  1.0000
  H   H170      1.0  0.02822  0.58438  0.50951  1.0000
  S   S54       1.0  0.25446  0.61608  0.51379  1.0000
  Fe  Fe29      1.0  0.23455  0.51982  0.59536  1.0000
  S   S55       1.0  0.24524  0.51119  0.56846  1.0000
  S   S56       1.0  0.20551  0.53317  0.59774  1.0000
  Fe  Fe30      1.0  0.27111  0.50816  0.60999  1.0000
  S   S57       1.0  0.28363  0.49803  0.58403  1.0000
  S   S58       1.0  0.28898  0.50251  0.63278  1.0000
  Fe  Fe31      1.0  0.26962  0.52353  0.57058  1.0000
  S   S59       1.0  0.28581  0.53801  0.54667  1.0000
  Fe  Fe32      1.0  0.25812  0.48668  0.58417  1.0000
  S   S60       1.0  0.25557  0.45904  0.57826  1.0000
  S   S61       1.0  0.25820  0.53439  0.59639  1.0000
  S   S62       1.0  0.24624  0.49457  0.61122  1.0000
  C   C106      1.0  0.18879  0.47170  0.55575  1.0000
  H   H171      1.0  0.28286  0.55103  0.70332  1.0000
  H   H172      1.0  0.21992  0.48153  0.57894  1.0000
  H   H173      1.0  0.20482  0.50854  0.56379  1.0000
  H   H174      1.0  0.02421  0.46934  0.56594  1.0000
  C   C107      1.0  0.21764  0.48133  0.54383  1.0000
  C   C108      1.0  0.28884  0.54900  0.71605  1.0000
  C   C109      1.0  0.32801  0.50781  0.66241  1.0000
  C   C110      1.0  0.33035  0.52592  0.65843  1.0000
  C   C111      1.0  0.31592  0.54099  0.73000  1.0000
  H   H175      1.0  0.31573  0.51614  0.56424  1.0000
  H   H176      1.0  0.30646  0.52773  0.69228  1.0000
  H   H177      1.0  0.32771  0.55896  0.57342  1.0000
  C   C112      1.0  0.30475  0.51208  0.64240  1.0000
  C   C113      1.0  0.31531  0.50100  0.65446  1.0000
  H   H178      1.0  0.00328  0.52941  0.58420  1.0000
  H   H179      1.0  0.22190  0.63663  0.53428  1.0000
  N   N12       1.0  0.12473  0.55771  0.50947  1.0000
  C   C114      1.0  0.30696  0.53025  0.63860  1.0000
  H   H180      1.0  0.13085  0.38479  0.52097  1.0000
  H   H181      1.0  0.29545  0.53899  0.58028  1.0000
  H   H182      1.0  0.28191  0.53870  0.72545  1.0000
  H   H183      1.0  0.29862  0.53913  0.62985  1.0000
  C   C115      1.0  0.25732  0.45537  0.55573  1.0000
  C   C116      1.0  0.25213  0.43966  0.55178  1.0000
  C   C117      1.0  0.25259  0.43683  0.53387  1.0000
  C   C118      1.0  0.25845  0.44964  0.51983  1.0000
  C   C119      1.0  0.26376  0.46526  0.52382  1.0000
  C   C120      1.0  0.26318  0.46815  0.54168  1.0000
  H   H184      1.0  0.24764  0.42969  0.56259  1.0000
  H   H185      1.0  0.24855  0.42472  0.53093  1.0000
  H   H186      1.0  0.26838  0.47519  0.51302  1.0000
  H   H187      1.0  0.26729  0.48025  0.54457  1.0000
  C   C121      1.0  0.26282  0.59400  0.52221  1.0000
  C   C122      1.0  0.27724  0.58415  0.51273  1.0000
  C   C123      1.0  0.28412  0.56692  0.52031  1.0000
  C   C124      1.0  0.27639  0.55932  0.53720  1.0000
  C   C125      1.0  0.26173  0.56903  0.54649  1.0000
  C   C126      1.0  0.25509  0.58638  0.53909  1.0000
  H   H188      1.0  0.33463  0.54134  0.60271  1.0000
  C   C127      1.0  0.20942  0.62389  0.50856  1.0000
  H   H189      1.0  0.25569  0.56331  0.55951  1.0000
  H   H190      1.0  0.24397  0.59394  0.54652  1.0000
  C   C128      1.0  0.07213  0.57218  0.54837  1.0000
  C   C129      1.0  0.06172  0.56172  0.54182  1.0000
  C   C130      1.0  0.05903  0.56501  0.52380  1.0000
  N   N13       1.0  0.20246  0.64087  0.51583  1.0000
  C   C131      1.0  0.07549  0.59047  0.51936  1.0000
  C   C132      1.0  0.07833  0.58706  0.53737  1.0000
  H   H191      1.0  0.05624  0.55070  0.55054  1.0000
  H   H192      1.0  0.00592  0.58288  0.50528  1.0000
  H   H193      1.0  0.21207  0.65959  0.52933  1.0000
  H   H194      1.0  0.08628  0.59526  0.54248  1.0000
  C   C133      1.0  0.15560  0.50432  0.60165  1.0000
  C   C134      1.0  0.17129  0.49512  0.60814  1.0000
  C   C135      1.0  0.18678  0.50365  0.60681  1.0000
  C   C136      1.0  0.18659  0.52164  0.59932  1.0000
  C   C137      1.0  0.17082  0.53090  0.59312  1.0000
  C   C138      1.0  0.15549  0.52227  0.59409  1.0000
  H   H195      1.0  0.17145  0.48131  0.61423  1.0000
  H   H196      1.0  0.19872  0.49645  0.61192  1.0000
  H   H197      1.0  0.17044  0.54487  0.58755  1.0000
  H   H198      1.0  0.14344  0.52966  0.58939  1.0000
  H   H199      1.0  0.19883  0.61863  0.50312  1.0000
  H   H200      1.0  0.30590  0.51545  0.71443  1.0000
  N   N14       1.0  0.01532  0.48896  0.51133  1.0000
  H   H201      1.0  0.21468  0.61337  0.51901  1.0000
  H   H202      1.0  0.29546  0.55946  0.51306  1.0000
  C   C139      1.0  0.06654  0.57896  0.51241  1.0000
  H   H203      1.0  0.19427  0.45743  0.55476  1.0000
  H   H204      1.0  0.09674  0.55578  0.51786  1.0000
  C   C140      1.0  0.12272  0.57748  0.50616  1.0000
  H   H205      1.0  0.21304  0.48757  0.53088  1.0000
  C   C141      1.0  0.20977  0.47383  0.57575  1.0000
  H   H206      1.0  0.18303  0.50153  0.57059  1.0000
  C   C142      1.0  0.31198  0.52638  0.70520  1.0000
  H   H207      1.0  0.31255  0.55887  0.68675  1.0000
  C   C143      1.0  0.19659  0.65465  0.50126  1.0000
  H   H208      1.0  0.22358  0.46731  0.54221  1.0000
  C   C144      1.0  0.19499  0.50071  0.56016  1.0000
  H   H209      1.0  0.01834  0.61121  0.52420  1.0000
  N   N15       1.0  0.10344  0.44551  0.53936  1.0000
  C   C145      1.0  0.09172  0.43167  0.53963  1.0000
  C   C146      1.0  0.11086  0.44286  0.55651  1.0000
  C   C147      1.0  0.09282  0.46343  0.53682  1.0000
  C   C148      1.0  0.11839  0.44405  0.52449  1.0000
  H   H210      1.0  0.08569  0.43340  0.52699  1.0000
  H   H211      1.0  0.08051  0.43221  0.55093  1.0000
  H   H212      1.0  0.09939  0.41797  0.54097  1.0000
  H   H213      1.0  0.12065  0.45237  0.55635  1.0000
  H   H214      1.0  0.10007  0.44497  0.56799  1.0000
  H   H215      1.0  0.11811  0.42911  0.55925  1.0000
  H   H216      1.0  0.08703  0.46584  0.52399  1.0000
  H   H217      1.0  0.31371  0.48694  0.65762  1.0000
  H   H218      1.0  0.08153  0.46516  0.54791  1.0000
  H   H219      1.0  0.12739  0.45443  0.52387  1.0000
  H   H220      1.0  0.11332  0.44574  0.51132  1.0000
  H   H221      1.0  0.12677  0.43074  0.52605  1.0000
  C   C149      1.0  0.15812  0.38900  0.51099  1.0000
  C   C150      1.0  0.03215  0.49219  0.57458  1.0000
  C   C151      1.0  0.00782  0.51638  0.57994  1.0000
  H   H222      1.0  0.09233  0.52285  0.51228  1.0000
  H   H223      1.0  0.17597  0.63348  0.52451  1.0000
  H   H224      1.0  0.32118  0.55114  0.64343  1.0000
  H   H225      1.0  0.33073  0.53693  0.72804  1.0000
  C   C152      1.0  0.31969  0.53706  0.64649  1.0000
  C   C153      1.0  0.21681  0.64690  0.52354  1.0000
  C   C154      1.0  0.11095  0.49964  0.50591  1.0000
  H   H226      1.0  0.31795  0.33568  0.51090  1.0000
  C   C155      1.0  0.18705  0.63800  0.52993  1.0000
  H   H227      1.0  0.18322  0.47740  0.54311  1.0000
  H   H228      1.0  0.17737  0.47191  0.56691  1.0000
  H   H229      1.0  0.19056  0.50755  0.54733  1.0000
  H   H230      1.0  0.19887  0.47340  0.58732  1.0000
  H   H231      1.0  0.31985  0.54815  0.55739  1.0000
  H   H232      1.0  0.21650  0.45987  0.57497  1.0000
  H   H233      1.0  0.30326  0.54898  0.59681  1.0000
  C   C156      1.0  0.01971  0.48257  0.56968  1.0000
  C   C157      1.0  0.13946  0.39292  0.51147  1.0000
  H   H234      1.0  0.00594  0.51701  0.51161  1.0000
  N   N16       1.0  0.20280  0.48190  0.55887  1.0000
  H   H235      1.0  0.12251  0.58335  0.51869  1.0000
  H   H236      1.0  0.31354  0.55359  0.73619  1.0000
  N   N17       1.0  0.30845  0.54343  0.71288  1.0000
  H   H237      1.0  0.05192  0.55617  0.51854  1.0000
  C   C158      1.0  0.32876  0.54601  0.56808  1.0000
  H   H238      1.0  0.22859  0.64927  0.51320  1.0000
  S   S63       1.0  0.10800  0.41057  0.50177  1.0000
  H   H239      1.0  0.10996  0.58304  0.50075  1.0000
  H   H240      1.0  0.33191  0.55398  0.69814  1.0000
  H   H241      1.0  0.14256  0.55570  0.52913  1.0000
  H   H242      1.0  0.02195  0.50781  0.52676  1.0000
  H   H243      1.0  0.31401  0.57064  0.70514  1.0000
  C   C159      1.0  0.32486  0.51475  0.57463  1.0000
  H   H244      1.0  0.32663  0.52191  0.70229  1.0000
  H   H245      1.0  0.10128  0.47419  0.53641  1.0000
  H   H246      1.0  0.28562  0.56179  0.72191  1.0000
  C   C160      1.0  0.33546  0.52898  0.59638  1.0000
  H   H247      1.0  0.19106  0.62760  0.54106  1.0000
  H   H248      1.0  0.32110  0.50352  0.58509  1.0000
  H   H249      1.0  0.16362  0.37795  0.52013  1.0000
  H   H250      1.0  0.30013  0.52574  0.60096  1.0000
  H   H251      1.0  0.10903  0.55784  0.53556  1.0000
  C   C161      1.0  0.31703  0.55739  0.70020  1.0000
  H   H252      1.0  0.14389  0.53586  0.51878  1.0000
  H   H253      1.0  0.08105  0.60143  0.51076  1.0000
  H   H254      1.0  0.18148  0.65053  0.53576  1.0000
  C   C162      1.0  0.02132  0.47329  0.52400  1.0000
  H   H255      1.0  0.11149  0.53716  0.52646  1.0000
  H   H256      1.0  0.01041  0.47025  0.53512  1.0000
  H   H257      1.0  0.30992  0.53046  0.73990  1.0000
  H   H258      1.0  0.03307  0.47559  0.53002  1.0000
  C   C163      1.0  0.00808  0.61529  0.51486  1.0000
  H   H259      1.0  0.04231  0.49472  0.50158  1.0000
  H   H260      1.0  0.00509  0.63016  0.51336  1.0000
  N   N18       1.0  0.32350  0.53158  0.58239  1.0000
  C   C164      1.0  0.14199  0.55079  0.51624  1.0000
  C   C165      1.0  0.01040  0.50489  0.52081  1.0000
  C   C166      1.0  0.30479  0.53654  0.59049  1.0000
  H   H261      1.0  0.02536  0.46108  0.51722  1.0000
  H   H262      1.0  0.33170  0.51813  0.60731  1.0000
  C   C167      1.0  0.10986  0.55191  0.52294  1.0000
  C   C168      1.0  0.09533  0.51185  0.50448  1.0000
  H   H263      1.0  0.15357  0.55503  0.50650  1.0000
  H   H264      1.0  0.29965  0.68397  0.48626  1.0000
  C   C169      1.0  0.30963  0.69190  0.45862  1.0000
  H   H265      1.0  0.31270  0.67797  0.41054  1.0000
  H   H266      1.0  0.02606  0.68570  0.45608  1.0000
  C   C170      1.0  0.02201  0.67342  0.45354  1.0000
  C   C171      1.0  0.30840  0.69222  0.47710  1.0000
  C   C172      1.0  0.31838  0.70336  0.48381  1.0000
  H   H267      1.0  0.30250  0.67758  0.39083  1.0000
  H   H268      1.0  0.31710  0.70351  0.49810  1.0000
  C   C173      1.0  0.32113  0.70288  0.44705  1.0000
  C   C174      1.0  0.32983  0.71439  0.47223  1.0000
  C   C175      1.0  0.00377  0.67243  0.45331  1.0000
  S   S64       1.0  0.29728  0.67817  0.44913  1.0000
  H   H269      1.0  0.32224  0.70291  0.43274  1.0000
  C   C176      1.0  0.33114  0.71399  0.45376  1.0000
  H   H270      1.0  0.29086  0.67136  0.41277  1.0000
  C   C177      1.0  0.30430  0.67045  0.40443  1.0000
  H   H271      1.0  0.17280  0.66855  0.44657  1.0000
  H   H272      1.0  0.19150  0.66774  0.50614  1.0000
  N   N19       1.0  0.52963  0.32836  0.21609  1.0000
  C   C178      1.0  0.54044  0.31069  0.21464  1.0000
  C   C179      1.0  0.51690  0.32736  0.23289  1.0000
  H   H273      1.0  0.53175  0.30021  0.21454  1.0000
  H   H274      1.0  0.50734  0.31758  0.23323  1.0000
  H   H275      1.0  0.54821  0.30638  0.22615  1.0000
  H   H276      1.0  0.51026  0.32387  0.19999  1.0000
  H   H277      1.0  0.52411  0.32324  0.24482  1.0000
  H   H278      1.0  0.55021  0.31102  0.20212  1.0000
  H   H279      1.0  0.46709  0.32081  0.38387  1.0000
  C   C180      1.0  0.53647  0.08443  0.48188  1.0000
  Fe  Fe33      1.0  0.62493  0.07356  0.46104  1.0000
  S   S65       1.0  0.59657  0.07076  0.47306  1.0000
  S   S66       1.0  0.63711  0.05170  0.44379  1.0000
  Fe  Fe34      1.0  0.62389  0.10974  0.47614  1.0000
  S   S67       1.0  0.59537  0.10848  0.48922  1.0000
  C   C181      1.0  0.38072  0.00673  0.47793  1.0000
  Fe  Fe35      1.0  0.59120  0.10007  0.46350  1.0000
  S   S68       1.0  0.56868  0.11244  0.44805  1.0000
  S   S69       1.0  0.63303  0.08065  0.48597  1.0000
  S   S70       1.0  0.61910  0.10281  0.44971  1.0000
  H   H280      1.0  0.63836  0.09549  0.37041  1.0000
  S   S71       1.0  0.41688  0.10667  0.48298  1.0000
  H   H281      1.0  0.55366  0.29427  0.49483  1.0000
  H   H282      1.0  0.48122  0.33114  0.32696  1.0000
  S   S72       1.0  0.40761  0.06720  0.47731  1.0000
  H   H283      1.0  0.44333  0.33236  0.36439  1.0000
  Fe  Fe36      1.0  0.40504  0.09515  0.46290  1.0000
  S   S73       1.0  0.41397  0.09871  0.43329  1.0000
  S   S74       1.0  0.37647  0.10303  0.47455  1.0000
  Fe  Fe37      1.0  0.52009  0.11022  0.35437  1.0000
  S   S75       1.0  0.53148  0.10723  0.38010  1.0000
  S   S76       1.0  0.51247  0.13806  0.33948  1.0000
  Fe  Fe38      1.0  0.51822  0.06946  0.35781  1.0000
  S   S77       1.0  0.52965  0.06397  0.38380  1.0000
  S   S78       1.0  0.50629  0.04720  0.34887  1.0000
  Fe  Fe39      1.0  0.51144  0.08840  0.39112  1.0000
  S   S79       1.0  0.49863  0.08963  0.41972  1.0000
  Fe  Fe40      1.0  0.54873  0.08319  0.37041  1.0000
  S   S80       1.0  0.57696  0.07760  0.37702  1.0000
  S   S81       1.0  0.49847  0.09294  0.36609  1.0000
  S   S82       1.0  0.53888  0.08714  0.34354  1.0000
  S   S83       1.0  0.61794  0.28700  0.47728  1.0000
  Fe  Fe41      1.0  0.63477  0.23957  0.46243  1.0000
  S   S84       1.0  0.60603  0.24774  0.47313  1.0000
  H   H284      1.0  0.36935  0.22617  0.43808  1.0000
  Fe  Fe42      1.0  0.60885  0.27414  0.45606  1.0000
  S   S85       1.0  0.58454  0.28705  0.44274  1.0000
  C   C182      1.0  0.63512  0.01644  0.44053  1.0000
  Fe  Fe43      1.0  0.51956  0.24001  0.35894  1.0000
  S   S86       1.0  0.49487  0.26026  0.35542  1.0000
  S   S87       1.0  0.52556  0.20959  0.36649  1.0000
  Fe  Fe44      1.0  0.54223  0.26882  0.36262  1.0000
  S   S88       1.0  0.51991  0.29146  0.35936  1.0000
  S   S89       1.0  0.57073  0.26947  0.36764  1.0000
  Fe  Fe45      1.0  0.50220  0.27307  0.37733  1.0000
  S   S90       1.0  0.48411  0.28442  0.40049  1.0000
  Fe  Fe46      1.0  0.51361  0.27810  0.33724  1.0000
  S   S91       1.0  0.50152  0.29605  0.31375  1.0000
  S   S92       1.0  0.52511  0.25179  0.38249  1.0000
  S   S93       1.0  0.53769  0.25660  0.33890  1.0000
  Fe  Fe47      1.0  0.39249  0.27179  0.45540  1.0000
  S   S94       1.0  0.40269  0.27238  0.42579  1.0000
  H   H285      1.0  0.56695  0.21618  0.40299  1.0000
  S   S95       1.0  0.36331  0.26905  0.46444  1.0000
  S   S96       1.0  0.40235  0.24724  0.47306  1.0000
  C   C183      1.0  0.46185  0.27977  0.40757  1.0000
  C   C184      1.0  0.45341  0.28372  0.42450  1.0000
  C   C185      1.0  0.43541  0.28107  0.43036  1.0000
  C   C186      1.0  0.42558  0.27490  0.41911  1.0000
  C   C187      1.0  0.43400  0.27090  0.40215  1.0000
  C   C188      1.0  0.45218  0.27311  0.39647  1.0000
  H   H286      1.0  0.46080  0.28891  0.43314  1.0000
  H   H287      1.0  0.42906  0.28419  0.44344  1.0000
  H   H288      1.0  0.42644  0.26615  0.39338  1.0000
  H   H289      1.0  0.45858  0.26999  0.38343  1.0000
  C   C189      1.0  0.63396  0.02289  0.47076  1.0000
  C   C190      1.0  0.58077  0.28098  0.42232  1.0000
  C   C191      1.0  0.56346  0.28499  0.41726  1.0000
  C   C192      1.0  0.56011  0.28101  0.40077  1.0000
  C   C193      1.0  0.57420  0.27348  0.38897  1.0000
  C   C194      1.0  0.59150  0.26937  0.39406  1.0000
  C   C195      1.0  0.59474  0.27287  0.41079  1.0000
  H   H290      1.0  0.55261  0.29141  0.42601  1.0000
  H   H291      1.0  0.54675  0.28430  0.39695  1.0000
  H   H292      1.0  0.60251  0.26370  0.38495  1.0000
  H   H293      1.0  0.60814  0.26986  0.41450  1.0000
  C   C196      1.0  0.51684  0.15802  0.34636  1.0000
  C   C197      1.0  0.52801  0.15753  0.35939  1.0000
  C   C198      1.0  0.53059  0.17348  0.36520  1.0000
  C   C199      1.0  0.52226  0.19018  0.35788  1.0000
  C   C200      1.0  0.51132  0.19076  0.34461  1.0000
  C   C201      1.0  0.50861  0.17473  0.33891  1.0000
  H   H294      1.0  0.53477  0.14485  0.36493  1.0000
  H   H295      1.0  0.53911  0.17286  0.37544  1.0000
  H   H296      1.0  0.50483  0.20351  0.33885  1.0000
  H   H297      1.0  0.50003  0.17527  0.32874  1.0000
  C   C202      1.0  0.43748  0.09504  0.42939  1.0000
  C   C203      1.0  0.44740  0.09087  0.44379  1.0000
  C   C204      1.0  0.46620  0.08897  0.44070  1.0000
  C   C205      1.0  0.47516  0.09067  0.42316  1.0000
  C   C206      1.0  0.46524  0.09421  0.40874  1.0000
  C   C207      1.0  0.44640  0.09657  0.41185  1.0000
  H   H298      1.0  0.44064  0.08913  0.45734  1.0000
  H   H299      1.0  0.47376  0.08616  0.45193  1.0000
  H   H300      1.0  0.47195  0.09535  0.39519  1.0000
  H   H301      1.0  0.43877  0.09962  0.40066  1.0000
  C   C208      1.0  0.34953  0.01272  0.47335  1.0000
  C   C209      1.0  0.65212  0.06976  0.39494  1.0000
  Fe  Fe48      1.0  0.37347  0.24518  0.48327  1.0000
  H   H302      1.0  0.33725  0.25086  0.49701  1.0000
  C   C210      1.0  0.57197  0.10297  0.42811  1.0000
  C   C211      1.0  0.56786  0.11350  0.41221  1.0000
  C   C212      1.0  0.57009  0.10578  0.39635  1.0000
  C   C213      1.0  0.57570  0.08742  0.39653  1.0000
  C   C214      1.0  0.57958  0.07685  0.41251  1.0000
  C   C215      1.0  0.57817  0.08471  0.42817  1.0000
  H   H303      1.0  0.56314  0.12762  0.41212  1.0000
  H   H304      1.0  0.56729  0.11403  0.38396  1.0000
  H   H305      1.0  0.58336  0.06255  0.41289  1.0000
  H   H306      1.0  0.58110  0.07645  0.44047  1.0000
  H   H307      1.0  0.52413  0.28495  0.47760  1.0000
  C   C216      1.0  0.63569  0.15548  0.47477  1.0000
  C   C217      1.0  0.63788  0.16065  0.45620  1.0000
  C   C218      1.0  0.64020  0.17853  0.44906  1.0000
  H   H308      1.0  0.63862  0.15071  0.44733  1.0000
  S   S97       1.0  0.64494  0.21341  0.45071  1.0000
  C   C219      1.0  0.63492  0.02893  0.45239  1.0000
  H   H309      1.0  0.40042  0.07344  0.41291  1.0000
  C   C220      1.0  0.52687  0.31884  0.29783  1.0000
  H   H310      1.0  0.45814  0.00102  0.32997  1.0000
  C   C221      1.0  0.53882  0.00615  0.32777  1.0000
  H   H311      1.0  0.52549  0.11106  0.45701  1.0000
  C   C222      1.0  0.49787  0.32520  0.28745  1.0000
  C   C223      1.0  0.63191  0.08302  0.37352  1.0000
  H   H312      1.0  0.41316  0.05753  0.43961  1.0000
  H   H313      1.0  0.37410  0.06045  0.45687  1.0000
  H   H314      1.0  0.53598  0.31086  0.30645  1.0000
  C   C224      1.0  0.51074  0.01050  0.35571  1.0000
  C   C225      1.0  0.51795  0.02567  0.34616  1.0000
  C   C226      1.0  0.53228  0.02335  0.33240  1.0000
  C   C227      1.0  0.51024  0.07226  0.47739  1.0000
  H   H315      1.0  0.38612  0.02779  0.42403  1.0000
  H   H316      1.0  0.49948  0.01219  0.36620  1.0000
  H   H317      1.0  0.53761  0.03497  0.32462  1.0000
  H   H318      1.0  0.56961  0.25448  0.49948  1.0000
  C   C228      1.0  0.46910  0.30663  0.35355  1.0000
  C   C229      1.0  0.51533  0.10211  0.46354  1.0000
  H   H319      1.0  0.51634  0.05820  0.48095  1.0000
  Fe  Fe49      1.0  0.61692  0.25981  0.49349  1.0000
  H   H320      1.0  0.52180  0.26357  0.49089  1.0000
  H   H321      1.0  0.54938  0.27065  0.45733  1.0000
  H   H322      1.0  0.63130  0.04785  0.38749  1.0000
  C   C230      1.0  0.62410  0.08736  0.40461  1.0000
  C   C231      1.0  0.34789  0.02915  0.47997  1.0000
  S   S98       1.0  0.36093  0.22021  0.48154  1.0000
  H   H323      1.0  0.45879  0.30138  0.36432  1.0000
  H   H324      1.0  0.41427  0.23628  0.41485  1.0000
  H   H325      1.0  0.57261  0.28330  0.48164  1.0000
  H   H326      1.0  0.38118  0.24199  0.42214  1.0000
  H   H327      1.0  0.38338  0.23959  0.44535  1.0000
  H   H328      1.0  0.38629  0.19852  0.45198  1.0000
  Fe  Fe50      1.0  0.37986  0.07535  0.49042  1.0000
  H   H329      1.0  0.50577  0.10214  0.45386  1.0000
  C   C232      1.0  0.48506  0.33157  0.34038  1.0000
  H   H330      1.0  0.54181  0.06306  0.45647  1.0000
  H   H331      1.0  0.40724  0.19769  0.41464  1.0000
  C   C233      1.0  0.36816  0.16559  0.48719  1.0000
  H   H332      1.0  0.61016  0.09248  0.40196  1.0000
  C   C234      1.0  0.63690  0.18659  0.47891  1.0000
  C   C235      1.0  0.50945  0.31458  0.29884  1.0000
  S   S99       1.0  0.63594  0.13257  0.48443  1.0000
  H   H333      1.0  0.54333  0.07089  0.48633  1.0000
  H   H334      1.0  0.50777  0.10819  0.47533  1.0000
  H   H335      1.0  0.48186  0.29760  0.35481  1.0000
  H   H336      1.0  0.62345  0.05226  0.41005  1.0000
  H   H337      1.0  0.36427  0.07157  0.43762  1.0000
  H   H338      1.0  0.50286  0.07698  0.48993  1.0000
  N   N20       1.0  0.38832  0.05327  0.43183  1.0000
  N   N21       1.0  0.52405  0.08380  0.46895  1.0000
  N   N22       1.0  0.47129  0.32524  0.35499  1.0000
  H   H339      1.0  0.63854  0.07379  0.36377  1.0000
  H   H340      1.0  0.65932  0.08174  0.39250  1.0000
  N   N23       1.0  0.57802  0.21460  0.37542  1.0000
  C   C236      1.0  0.57932  0.19487  0.37757  1.0000
  C   C237      1.0  0.57340  0.22204  0.35737  1.0000
  C   C238      1.0  0.59538  0.21997  0.37751  1.0000
  C   C239      1.0  0.56391  0.22154  0.38922  1.0000
  H   H341      1.0  0.58271  0.18875  0.39106  1.0000
  H   H342      1.0  0.58982  0.18912  0.36736  1.0000
  H   H343      1.0  0.56632  0.19058  0.37600  1.0000
  H   H344      1.0  0.57215  0.23690  0.35526  1.0000
  H   H345      1.0  0.58379  0.21713  0.34663  1.0000
  H   H346      1.0  0.56036  0.21835  0.35530  1.0000
  H   H347      1.0  0.59468  0.23484  0.37580  1.0000
  H   H348      1.0  0.60641  0.21494  0.36737  1.0000
  H   H349      1.0  0.59921  0.21481  0.39105  1.0000
  H   H350      1.0  0.56257  0.23640  0.38805  1.0000
  H   H351      1.0  0.55057  0.21788  0.38800  1.0000
  N   N24       1.0  0.48838  0.14515  0.40165  1.0000
  C   C240      1.0  0.48736  0.13397  0.38776  1.0000
  C   C241      1.0  0.50646  0.14118  0.40735  1.0000
  C   C242      1.0  0.47470  0.14109  0.41725  1.0000
  C   C243      1.0  0.48503  0.16426  0.39421  1.0000
  H   H352      1.0  0.49742  0.13671  0.37578  1.0000
  H   H353      1.0  0.47390  0.13637  0.38318  1.0000
  H   H354      1.0  0.49009  0.11952  0.39282  1.0000
  H   H355      1.0  0.51711  0.14409  0.39592  1.0000
  H   H356      1.0  0.50774  0.14928  0.41791  1.0000
  H   H357      1.0  0.50948  0.12678  0.41280  1.0000
  H   H358      1.0  0.47473  0.14959  0.42784  1.0000
  H   H359      1.0  0.47722  0.12687  0.42340  1.0000
  H   H360      1.0  0.46094  0.14318  0.41334  1.0000
  H   H361      1.0  0.49492  0.16761  0.38217  1.0000
  H   H362      1.0  0.48612  0.17318  0.40412  1.0000
  H   H363      1.0  0.47145  0.16771  0.38992  1.0000
  H   H364      1.0  0.42659  0.21635  0.42523  1.0000
  H   H365      1.0  0.52923  0.09016  0.49403  1.0000
  H   H366      1.0  0.39067  0.02774  0.48840  1.0000
  C   C244      1.0  0.53415  0.07644  0.45292  1.0000
  H   H367      1.0  0.49006  0.31740  0.37408  1.0000
  H   H368      1.0  0.64261  0.18218  0.43469  1.0000
  C   C245      1.0  0.47698  0.32591  0.37253  1.0000
  C   C246      1.0  0.36898  0.19740  0.48856  1.0000
  H   H369      1.0  0.45254  0.09122  0.48670  1.0000
  H   H370      1.0  0.48435  0.32209  0.28809  1.0000
  S   S100      1.0  0.39361  0.29065  0.47503  1.0000
  H   H371      1.0  0.46522  0.30545  0.34033  1.0000
  C   C247      1.0  0.40513  0.04648  0.43952  1.0000
  C   C248      1.0  0.55771  0.28668  0.48323  1.0000
  H   H372      1.0  0.65334  0.06336  0.40894  1.0000
  H   H373      1.0  0.63137  0.09918  0.40338  1.0000
  H   H374      1.0  0.56435  0.00314  0.37820  1.0000
  C   C249      1.0  0.37817  0.03819  0.43187  1.0000
  C   C250      1.0  0.63516  0.16860  0.48604  1.0000
  C   C251      1.0  0.55344  0.26155  0.46934  1.0000
  C   C252      1.0  0.62411  0.05825  0.39571  1.0000
  H   H375      1.0  0.65718  0.31405  0.48551  1.0000
  H   H376      1.0  0.40229  0.03991  0.45358  1.0000
  C   C253      1.0  0.63979  0.19161  0.46034  1.0000
  Fe  Fe51      1.0  0.36492  0.28598  0.48559  1.0000
  H   H377      1.0  0.41036  0.19469  0.44715  1.0000
  C   C254      1.0  0.37920  0.02361  0.48415  1.0000
  H   H378      1.0  0.63399  0.03228  0.48002  1.0000
  S   S101      1.0  0.63689  0.26542  0.44364  1.0000
  N   N25       1.0  0.54873  0.27042  0.48569  1.0000
  S   S102      1.0  0.34309  0.30781  0.49607  1.0000
  H   H379      1.0  0.38436  0.07816  0.44277  1.0000
  Fe  Fe52      1.0  0.38850  0.11268  0.49605  1.0000
  Fe  Fe53      1.0  0.41654  0.07931  0.49869  1.0000
  N   N26       1.0  0.63306  0.07460  0.39219  1.0000
  C   C255      1.0  0.39860  0.20527  0.44841  1.0000
  H   H380      1.0  0.39958  0.21218  0.46000  1.0000
  C   C256      1.0  0.52904  0.27549  0.48901  1.0000
  C   C257      1.0  0.41451  0.22644  0.42728  1.0000
  H   H381      1.0  0.41639  0.23397  0.43809  1.0000
  Fe  Fe54      1.0  0.64623  0.27614  0.46626  1.0000
  N   N27       1.0  0.39779  0.21803  0.43176  1.0000
  C   C258      1.0  0.38221  0.23201  0.43438  1.0000
  C   C259      1.0  0.39576  0.20841  0.41695  1.0000
  H   H382      1.0  0.63673  0.19640  0.48779  1.0000
  H   H383      1.0  0.63413  0.99997  0.49123  1.0000
  H   H384      1.0  0.38322  0.20198  0.41990  1.0000
  C   C260      1.0  0.47257  0.10128  0.49810  1.0000
  H   H385      1.0  0.52505  0.07505  0.44326  1.0000
  H   H386      1.0  0.39512  0.21769  0.40419  1.0000
  H   H387      1.0  0.47516  0.11145  0.48678  1.0000
  H   H388      1.0  0.62329  0.08096  0.41882  1.0000
  H   H389      1.0  0.54687  0.24927  0.47061  1.0000
  H   H390      1.0  0.33797  0.00878  0.46905  1.0000
  H   H391      1.0  0.37455  0.03147  0.44572  1.0000
  S   S103      1.0  0.35928  0.05608  0.49317  1.0000
  H   H392      1.0  0.54710  0.09299  0.47590  1.0000
  H   H393      1.0  0.54938  0.00464  0.31658  1.0000
  H   H394      1.0  0.50017  0.07213  0.46826  1.0000
  H   H395      1.0  0.61761  0.08666  0.37107  1.0000
  H   H396      1.0  0.54389  0.08540  0.44567  1.0000
  H   H397      1.0  0.65934  0.06010  0.38587  1.0000
  H   H398      1.0  0.38034  0.06741  0.40709  1.0000
  H   H399      1.0  0.63600  0.02089  0.42630  1.0000
  H   H400      1.0  0.36537  0.04276  0.42618  1.0000
  H   H401      1.0  0.40108  0.05247  0.40467  1.0000
  C   C261      1.0  0.39272  0.06201  0.41327  1.0000
  H   H402      1.0  0.41375  0.03640  0.43173  1.0000
  H   H403      1.0  0.49825  0.32298  0.34093  1.0000
  S   S104      1.0  0.64573  0.24960  0.48420  1.0000
  H   H404      1.0  0.48966  0.00752  0.30143  1.0000
  C   C262      1.0  0.63398  0.00450  0.47710  1.0000
  H   H405      1.0  0.61014  0.06116  0.39243  1.0000
  C   C263      1.0  0.36266  0.03486  0.48526  1.0000
  C   C264      1.0  0.36267  0.18386  0.48158  1.0000
  C   C265      1.0  0.37728  0.06645  0.44270  1.0000
  Fe  Fe55      1.0  0.40136  0.26565  0.49367  1.0000
  H   H406      1.0  0.55436  0.29588  0.47102  1.0000
  C   C266      1.0  0.45961  0.08997  0.49813  1.0000
  H   H407      1.0  0.56821  0.25761  0.46645  1.0000
  Fe  Fe56      1.0  0.60415  0.07931  0.49726  1.0000
  C   C267      1.0  0.36581  0.00127  0.47242  1.0000
  H   H408      1.0  0.35327  0.18749  0.47193  1.0000
  H   H409      1.0  0.48969  0.00878  0.32478  1.0000
  H   H410      1.0  0.36289  0.15535  0.48197  1.0000
  Fe  Fe57      1.0  0.48333  0.09533  0.57748  1.0000
  S   S105      1.0  0.50918  0.08954  0.55977  1.0000
  S   S106      1.0  0.46505  0.07400  0.58812  1.0000
  Fe  Fe58      1.0  0.48693  0.13603  0.57386  1.0000
  S   S107      1.0  0.51283  0.13288  0.55507  1.0000
  S   S108      1.0  0.47238  0.16309  0.58076  1.0000
  Fe  Fe59      1.0  0.49955  0.11454  0.54242  1.0000
  C   C268      1.0  0.38601  0.17417  0.50721  1.0000
  Fe  Fe60      1.0  0.51947  0.10820  0.57442  1.0000
  S   S109      1.0  0.54586  0.09851  0.58433  1.0000
  S   S110      1.0  0.47305  0.11962  0.55948  1.0000
  S   S111      1.0  0.49431  0.11217  0.59398  1.0000
  C   C269      1.0  0.54220  0.31210  0.61141  1.0000
  C   C270      1.0  0.48518  0.02176  0.58110  1.0000
  C   C271      1.0  0.61758  0.10614  0.52878  1.0000
  H   H411      1.0  0.55480  0.30787  0.61752  1.0000
  S   S112      1.0  0.60458  0.25329  0.52228  1.0000
  Fe  Fe61      1.0  0.49457  0.29094  0.60964  1.0000
  S   S113      1.0  0.48773  0.30232  0.58212  1.0000
  S   S114      1.0  0.49336  0.31578  0.62408  1.0000
  Fe  Fe62      1.0  0.50083  0.25278  0.59806  1.0000
  S   S115      1.0  0.49478  0.26248  0.57002  1.0000
  S   S116      1.0  0.51072  0.22310  0.60413  1.0000
  Fe  Fe63      1.0  0.51142  0.28408  0.57128  1.0000
  S   S117      1.0  0.53029  0.29748  0.54914  1.0000
  Fe  Fe64      1.0  0.47173  0.27982  0.58360  1.0000
  S   S118      1.0  0.44306  0.28572  0.57725  1.0000
  S   S119      1.0  0.51922  0.27347  0.59840  1.0000
  S   S120      1.0  0.47676  0.26912  0.61187  1.0000
  H   H412      1.0  0.58601  0.12622  0.52359  1.0000
  H   H413      1.0  0.43081  0.08171  0.55131  1.0000
  H   H414      1.0  0.52604  0.02123  0.61053  1.0000
  C   C272      1.0  0.54082  0.05054  0.61382  1.0000
  H   H415      1.0  0.44130  0.23629  0.55764  1.0000
  C   C273      1.0  0.45586  0.07712  0.51296  1.0000
  H   H416      1.0  0.48302  0.21330  0.53438  1.0000
  C   C274      1.0  0.44295  0.20077  0.55494  1.0000
  H   H417      1.0  0.45737  0.23121  0.52023  1.0000
  H   H418      1.0  0.44743  0.19445  0.56792  1.0000
  H   H419      1.0  0.53372  0.32235  0.61914  1.0000
  H   H420      1.0  0.60683  0.09837  0.52730  1.0000
  C   C275      1.0  0.50295  0.31867  0.67528  1.0000
  C   C276      1.0  0.50074  0.31182  0.65963  1.0000
  H   H421      1.0  0.50596  0.30946  0.68704  1.0000
  H   H422      1.0  0.55023  0.29298  0.58356  1.0000
  H   H423      1.0  0.50204  0.29751  0.65954  1.0000
  C   C277      1.0  0.43859  0.27992  0.55695  1.0000
  C   C278      1.0  0.42073  0.28046  0.55391  1.0000
  C   C279      1.0  0.41691  0.27523  0.53810  1.0000
  C   C280      1.0  0.43098  0.26943  0.52527  1.0000
  C   C281      1.0  0.44880  0.26925  0.52818  1.0000
  C   C282      1.0  0.45259  0.27453  0.54390  1.0000
  H   H424      1.0  0.40980  0.28472  0.56389  1.0000
  H   H425      1.0  0.40313  0.27539  0.53601  1.0000
  H   H426      1.0  0.45974  0.26498  0.51823  1.0000
  H   H427      1.0  0.46637  0.27438  0.54592  1.0000
  C   C283      1.0  0.58432  0.26598  0.53012  1.0000
  C   C284      1.0  0.57283  0.25839  0.54462  1.0000
  C   C285      1.0  0.55624  0.26797  0.55068  1.0000
  C   C286      1.0  0.55124  0.28533  0.54246  1.0000
  C   C287      1.0  0.56299  0.29315  0.52839  1.0000
  C   C288      1.0  0.57938  0.28342  0.52205  1.0000
  H   H428      1.0  0.57664  0.24493  0.55097  1.0000
  H   H429      1.0  0.54730  0.26185  0.56161  1.0000
  H   H430      1.0  0.55928  0.30668  0.52218  1.0000
  H   H431      1.0  0.40970  0.31999  0.62183  1.0000
  C   C289      1.0  0.41902  0.32441  0.60972  1.0000
  H   H432      1.0  0.50422  0.03291  0.60725  1.0000
  H   H433      1.0  0.53617  0.06226  0.57968  1.0000
  H   H434      1.0  0.51814  0.04980  0.57902  1.0000
  C   C290      1.0  0.52880  0.32435  0.58473  1.0000
  C   C291      1.0  0.55712  0.30506  0.58240  1.0000
  H   H435      1.0  0.46459  0.23751  0.54939  1.0000
  H   H436      1.0  0.43575  0.30084  0.63395  1.0000
  H   H437      1.0  0.44566  0.09631  0.55535  1.0000
  C   C292      1.0  0.52997  0.05003  0.58587  1.0000
  C   C293      1.0  0.47827  0.08649  0.52745  1.0000
  H   H438      1.0  0.63456  0.12571  0.54542  1.0000
  C   C294      1.0  0.47358  0.20417  0.54209  1.0000
  H   H439      1.0  0.62550  0.10872  0.51529  1.0000
  H   H440      1.0  0.48522  0.08505  0.53889  1.0000
  S   S121      1.0  0.38470  0.13790  0.50986  1.0000
  C   C295      1.0  0.56075  0.08908  0.56736  1.0000
  C   C296      1.0  0.57503  0.07621  0.57195  1.0000
  C   C297      1.0  0.58667  0.06803  0.55858  1.0000
  C   C298      1.0  0.58438  0.07308  0.54056  1.0000
  C   C299      1.0  0.57034  0.08626  0.53588  1.0000
  C   C300      1.0  0.55832  0.09407  0.54934  1.0000
  H   H441      1.0  0.57696  0.07239  0.58585  1.0000
  H   H442      1.0  0.59761  0.05791  0.56217  1.0000
  H   H443      1.0  0.56854  0.09015  0.52195  1.0000
  H   H444      1.0  0.54729  0.10407  0.54576  1.0000
  C   C301      1.0  0.48335  0.17914  0.58802  1.0000
  C   C302      1.0  0.50201  0.17703  0.58776  1.0000
  C   C303      1.0  0.51024  0.19057  0.59270  1.0000
  C   C304      1.0  0.50002  0.20656  0.59743  1.0000
  C   C305      1.0  0.48138  0.20867  0.59763  1.0000
  C   C306      1.0  0.47310  0.19488  0.59331  1.0000
  H   H445      1.0  0.51009  0.16497  0.58381  1.0000
  H   H446      1.0  0.52464  0.18872  0.59274  1.0000
  H   H447      1.0  0.47331  0.22069  0.60172  1.0000
  H   H448      1.0  0.45863  0.19642  0.59422  1.0000
  C   C307      1.0  0.48250  0.04081  0.57844  1.0000
  C   C308      1.0  0.47036  0.05029  0.59072  1.0000
  H   H449      1.0  0.48945  0.04812  0.56676  1.0000
  C   C309      1.0  0.46392  0.02192  0.60820  1.0000
  C   C310      1.0  0.44924  0.32981  0.59745  1.0000
  C   C311      1.0  0.59734  0.13364  0.52438  1.0000
  C   C312      1.0  0.44892  0.22107  0.52780  1.0000
  H   H450      1.0  0.58828  0.28946  0.51105  1.0000
  H   H451      1.0  0.43485  0.22793  0.52967  1.0000
  H   H452      1.0  0.47881  0.19876  0.55496  1.0000
  C   C313      1.0  0.42111  0.12573  0.55680  1.0000
  H   H453      1.0  0.45154  0.04772  0.61489  1.0000
  C   C314      1.0  0.46106  0.04065  0.60543  1.0000
  S   S122      1.0  0.43811  0.06456  0.51451  1.0000
  H   H454      1.0  0.60415  0.13697  0.51046  1.0000
  H   H455      1.0  0.41859  0.12471  0.52258  1.0000
  C   C315      1.0  0.44421  0.30561  0.62136  1.0000
  S   S123      1.0  0.59954  0.06288  0.52425  1.0000
  H   H456      1.0  0.55078  0.26405  0.51381  1.0000
  H   H457      1.0  0.41225  0.13753  0.55102  1.0000
  H   H458      1.0  0.45848  0.22303  0.56946  1.0000
  H   H459      1.0  0.39989  0.09351  0.54619  1.0000
  N   N28       1.0  0.54594  0.31908  0.59217  1.0000
  H   H460      1.0  0.49935  0.06614  0.60218  1.0000
  H   H461      1.0  0.45664  0.01481  0.61983  1.0000
  H   H462      1.0  0.42117  0.00579  0.54734  1.0000
  S   S124      1.0  0.38888  0.08565  0.51322  1.0000
  H   H463      1.0  0.49450  0.01445  0.57170  1.0000
  H   H464      1.0  0.53992  0.03824  0.58281  1.0000
  H   H465      1.0  0.52135  0.31270  0.58596  1.0000
  H   H466      1.0  0.46266  0.06528  0.53897  1.0000
  C   C316      1.0  0.62475  0.13335  0.53673  1.0000
  H   H467      1.0  0.61956  0.14625  0.54199  1.0000
  C   C317      1.0  0.49671  0.32347  0.64428  1.0000
  C   C318      1.0  0.51661  0.03353  0.61309  1.0000
  C   C319      1.0  0.42632  0.11264  0.52931  1.0000
  C   C320      1.0  0.40111  0.10595  0.55159  1.0000
  H   H468      1.0  0.44079  0.11454  0.52662  1.0000
  H   H469      1.0  0.43505  0.12921  0.55436  1.0000
  H   H470      1.0  0.55115  0.03880  0.61152  1.0000
  H   H471      1.0  0.42896  0.20750  0.55786  1.0000
  H   H472      1.0  0.42701  0.09131  0.57191  1.0000
  C   C321      1.0  0.46552  0.07512  0.52742  1.0000
  N   N29       1.0  0.41997  0.10959  0.54875  1.0000
  H   H473      1.0  0.42470  0.10113  0.52266  1.0000
  H   H474      1.0  0.39564  0.10421  0.56608  1.0000
  H   H475      1.0  0.39228  0.11706  0.54469  1.0000
  C   C322      1.0  0.60035  0.11878  0.55428  1.0000
  H   H476      1.0  0.41699  0.12372  0.57157  1.0000
  H   H477      1.0  0.59438  0.13116  0.56022  1.0000
  S   S125      1.0  0.49766  0.11400  0.51338  1.0000
  H   H478      1.0  0.54872  0.24530  0.50308  1.0000
  H   H479      1.0  0.51269  0.03292  0.62785  1.0000
  N   N30       1.0  0.45508  0.21355  0.54519  1.0000
  N   N31       1.0  0.52472  0.04996  0.60539  1.0000
  C   C323      1.0  0.45482  0.22821  0.55589  1.0000
  H   H480      1.0  0.59146  0.14650  0.52940  1.0000
  H   H481      1.0  0.47421  0.19261  0.53461  1.0000
  C   C324      1.0  0.43131  0.09407  0.55721  1.0000
  H   H482      1.0  0.62663  0.09736  0.53759  1.0000
  H   H483      1.0  0.44928  0.21051  0.51916  1.0000
  H   H484      1.0  0.45349  0.00803  0.51855  1.0000
  N   N32       1.0  0.44882  0.00919  0.54696  1.0000
  H   H485      1.0  0.44266  0.18968  0.54712  1.0000
  H   H486      1.0  0.50694  0.06610  0.62329  1.0000
  H   H487      1.0  0.42770  0.02614  0.53439  1.0000
  C   C325      1.0  0.51151  0.06583  0.60872  1.0000
  H   H488      1.0  0.52505  0.28219  0.50131  1.0000
  H   H489      1.0  0.53738  0.05062  0.62855  1.0000
  H   H490      1.0  0.60941  0.11063  0.56348  1.0000
  H   H491      1.0  0.45819  0.30473  0.62444  1.0000
  H   H492      1.0  0.47410  0.01891  0.54592  1.0000
  C   C326      1.0  0.47582  0.01226  0.59611  1.0000
  N   N33       1.0  0.61001  0.12298  0.53605  1.0000
  H   H493      1.0  0.54717  0.06285  0.60825  1.0000
  H   H494      1.0  0.51736  0.07843  0.60342  1.0000
  H   H495      1.0  0.45516  0.03187  0.55719  1.0000
  H   H496      1.0  0.63231  0.13658  0.52312  1.0000
  C   C327      1.0  0.48180  0.09966  0.51290  1.0000
  H   H497      1.0  0.56000  0.30983  0.56780  1.0000
  H   H498      1.0  0.38589  0.20268  0.50673  1.0000
  S   S126      1.0  0.42719  0.26069  0.50623  1.0000
  S   S127      1.0  0.37287  0.26172  0.50552  1.0000
  H   H499      1.0  0.58915  0.11097  0.55413  1.0000
  H   H500      1.0  0.44432  0.29604  0.61169  1.0000
  H   H501      1.0  0.42446  0.02397  0.55842  1.0000
  C   C328      1.0  0.42968  0.01658  0.54679  1.0000
  H   H502      1.0  0.53102  0.32963  0.57020  1.0000
  H   H503      1.0  0.45838  0.03344  0.53317  1.0000
  H   H504      1.0  0.53472  0.30033  0.61351  1.0000
  H   H505      1.0  0.57021  0.30069  0.58759  1.0000
  N   N34       1.0  0.43740  0.32403  0.61398  1.0000
  H   H506      1.0  0.59077  0.00239  0.51847  1.0000
  H   H507      1.0  0.46321  0.32980  0.60021  1.0000
  C   C329      1.0  0.45960  0.02401  0.54576  1.0000
  H   H508      1.0  0.44984  0.32076  0.58714  1.0000
  H   H509      1.0  0.44649  0.00393  0.57579  1.0000
  H   H510      1.0  0.56860  0.33136  0.59558  1.0000
  H   H511      1.0  0.39472  0.17051  0.51749  1.0000
  C   C330      1.0  0.38099  0.19245  0.50115  1.0000
  H   H512      1.0  0.41889  0.31531  0.59960  1.0000
  H   H513      1.0  0.48452  0.31872  0.73284  1.0000
  C   C331      1.0  0.37961  0.16061  0.50031  1.0000
  C   C332      1.0  0.47883  0.31849  0.74729  1.0000
  C   C333      1.0  0.55471  0.25800  0.50117  1.0000
  H   H514      1.0  0.42842  0.33228  0.63999  1.0000
  H   H515      1.0  0.46487  0.31518  0.74879  1.0000
  H   H516      1.0  0.63371  0.16480  0.50039  1.0000
  H   H517      1.0  0.50654  0.32915  0.75895  1.0000
  H   H518      1.0  0.48689  0.30738  0.75500  1.0000
  H   H519      1.0  0.45742  0.33254  0.77489  1.0000
  H   H520      1.0  0.47944  0.32468  0.78113  1.0000
  Fe  Fe65      1.0  0.49676  0.40611  0.03381  1.0000
  S   S128      1.0  0.50700  0.43178  0.03556  1.0000
  N   N35       1.0  0.54412  0.64438  0.15601  1.0000
  Fe  Fe66      1.0  0.50352  0.39089  0.07297  1.0000
  S   S129      1.0  0.51404  0.41545  0.07676  1.0000
  S   S130      1.0  0.50390  0.36909  0.09694  1.0000
  Fe  Fe67      1.0  0.49130  0.43025  0.06311  1.0000
  S   S131      1.0  0.47322  0.45222  0.07580  1.0000
  Fe  Fe68      1.0  0.52863  0.41411  0.04904  1.0000
  S   S132      1.0  0.55738  0.41893  0.04412  1.0000
  S   S133      1.0  0.47942  0.40578  0.06085  1.0000
  S   S134      1.0  0.51980  0.38828  0.04569  1.0000
  Fe  Fe69      1.0  0.40817  0.53751  0.04669  1.0000
  S   S135      1.0  0.43014  0.55449  0.04470  1.0000
  S   S136      1.0  0.38979  0.53345  0.07339  1.0000
  N   N36       1.0  0.51324  0.56503  0.23695  1.0000
  H   H521      1.0  0.61569  0.55701  0.10527  1.0000
  H   H522      1.0  0.51997  0.63226  0.15847  1.0000
  Fe  Fe70      1.0  0.44636  0.53546  0.02706  1.0000
  S   S137      1.0  0.47574  0.52698  0.02864  1.0000
  Fe  Fe71      1.0  0.41993  0.56821  0.01940  1.0000
  S   S138      1.0  0.42040  0.59774  0.01200  1.0000
  S   S139      1.0  0.42534  0.51692  0.03074  1.0000
  S   S140      1.0  0.39661  0.55275  0.02212  1.0000
  S   S141      1.0  0.48191  0.62072  0.09802  1.0000
  S   S142      1.0  0.48385  0.60552  0.05947  1.0000
  Fe  Fe72      1.0  0.46527  0.62455  0.07572  1.0000
  S   S143      1.0  0.43607  0.62160  0.08273  1.0000
  Fe  Fe73      1.0  0.50181  0.60424  0.08028  1.0000
  S   S144      1.0  0.51612  0.57833  0.09217  1.0000
  Fe  Fe74      1.0  0.61790  0.49981  0.03868  1.0000
  S   S145      1.0  0.59033  0.51527  0.04176  1.0000
  Fe  Fe75      1.0  0.62284  0.50208  0.07802  1.0000
  S   S146      1.0  0.59546  0.51719  0.08355  1.0000
  Fe  Fe76      1.0  0.58633  0.49832  0.06839  1.0000
  S   S147      1.0  0.55942  0.48892  0.07726  1.0000
  Fe  Fe77      1.0  0.60229  0.53267  0.05653  1.0000
  S   S148      1.0  0.59499  0.56247  0.05234  1.0000
  S   S149      1.0  0.61324  0.48160  0.06479  1.0000
  S   S150      1.0  0.63052  0.51873  0.05148  1.0000
  H   H523      1.0  0.53821  0.38054  0.09237  1.0000
  S   S151      1.0  0.60163  0.51377  0.21705  1.0000
  H   H524      1.0  0.58034  0.48439  0.22585  1.0000
  H   H525      1.0  0.66191  0.46003  0.23193  1.0000
  Fe  Fe78      1.0  0.61860  0.49037  0.23036  1.0000
  H   H526      1.0  0.46301  0.66403  0.09931  1.0000
  Fe  Fe79      1.0  0.60862  0.52917  0.23717  1.0000
  H   H527      1.0  0.42211  0.46538  0.01427  1.0000
  Fe  Fe80      1.0  0.52271  0.62909  0.21707  1.0000
  S   S152      1.0  0.54924  0.61446  0.20562  1.0000
  H   H528      1.0  0.44819  0.57051  0.24213  1.0000
  H   H529      1.0  0.56921  0.38577  0.12383  1.0000
  S   S153      1.0  0.49966  0.62704  0.20273  1.0000
  N   N37       1.0  0.63664  0.56087  0.08303  1.0000
  Fe  Fe81      1.0  0.39728  0.52492  0.18110  1.0000
  H   H530      1.0  0.64936  0.50018  0.16182  1.0000
  S   S154      1.0  0.40890  0.51610  0.15365  1.0000
  Fe  Fe82      1.0  0.39998  0.55530  0.20208  1.0000
  Fe  Fe83      1.0  0.51946  0.38304  0.23600  1.0000
  S   S155      1.0  0.39123  0.50606  0.20658  1.0000
  Fe  Fe84      1.0  0.49990  0.65385  0.24299  1.0000
  S   S156      1.0  0.42017  0.53390  0.19118  1.0000
  S   S157      1.0  0.37687  0.54732  0.19103  1.0000
  Fe  Fe85      1.0  0.52042  0.39003  0.19487  1.0000
  S   S158      1.0  0.49996  0.38035  0.21755  1.0000
  S   S159      1.0  0.52981  0.37353  0.17174  1.0000
  Fe  Fe86      1.0  0.52814  0.41956  0.21506  1.0000
  S   S160      1.0  0.54120  0.44517  0.21122  1.0000
  Fe  Fe87      1.0  0.49045  0.40968  0.21889  1.0000
  S   S161      1.0  0.46077  0.42001  0.21985  1.0000
  S   S162      1.0  0.54075  0.39122  0.21312  1.0000
  S   S163      1.0  0.50949  0.41904  0.19487  1.0000
  H   H531      1.0  0.55265  0.47755  0.21653  1.0000
  C   C334      1.0  0.45932  0.47101  0.23006  1.0000
  C   C335      1.0  0.46545  0.45316  0.22734  1.0000
  C   C336      1.0  0.45352  0.44232  0.22379  1.0000
  H   H532      1.0  0.43793  0.64056  0.13958  1.0000
  H   H533      1.0  0.47937  0.44775  0.22813  1.0000
  C   C337      1.0  0.45147  0.59591  0.22594  1.0000
  C   C338      1.0  0.55073  0.40868  0.10080  1.0000
  C   C339      1.0  0.43119  0.57559  0.22129  1.0000
  C   C340      1.0  0.42534  0.58766  0.20694  1.0000
  C   C341      1.0  0.43284  0.60376  0.20194  1.0000
  C   C342      1.0  0.44596  0.60783  0.21132  1.0000
  C   C343      1.0  0.61830  0.52676  0.13863  1.0000
  H   H534      1.0  0.42554  0.56316  0.22526  1.0000
  H   H535      1.0  0.45149  0.62035  0.20752  1.0000
  C   C344      1.0  0.59201  0.45684  0.23046  1.0000
  C   C345      1.0  0.57856  0.47065  0.22571  1.0000
  C   C346      1.0  0.56279  0.46672  0.22056  1.0000
  C   C347      1.0  0.56010  0.44895  0.22034  1.0000
  C   C348      1.0  0.57325  0.43505  0.22570  1.0000
  C   C349      1.0  0.58918  0.43901  0.23068  1.0000
  H   H536      1.0  0.47146  0.45137  0.01407  1.0000
  H   H537      1.0  0.44894  0.43092  0.01683  1.0000
  N   N38       1.0  0.56119  0.39124  0.09745  1.0000
  C   C350      1.0  0.57837  0.56717  0.23940  1.0000
  C   C351      1.0  0.58225  0.56950  0.22071  1.0000
  C   C352      1.0  0.57331  0.58413  0.21052  1.0000
  C   C353      1.0  0.56030  0.59640  0.21893  1.0000
  C   C354      1.0  0.55633  0.59403  0.23762  1.0000
  C   C355      1.0  0.44234  0.43648  0.02928  1.0000
  H   H538      1.0  0.59222  0.56008  0.21407  1.0000
  H   H539      1.0  0.57647  0.58590  0.19607  1.0000
  H   H540      1.0  0.55934  0.36920  0.08352  1.0000
  H   H541      1.0  0.45959  0.64200  0.12657  1.0000
  N   N39       1.0  0.47940  0.58457  0.00803  1.0000
  S   S164      1.0  0.62795  0.48649  0.01352  1.0000
  H   H542      1.0  0.48486  0.56423  0.23847  1.0000
  C   C356      1.0  0.64473  0.49738  0.13513  1.0000
  C   C357      1.0  0.43583  0.46226  0.04521  1.0000
  C   C358      1.0  0.57585  0.48274  0.01587  1.0000
  C   C359      1.0  0.53816  0.57478  0.08125  1.0000
  C   C360      1.0  0.55102  0.56296  0.08988  1.0000
  C   C361      1.0  0.56858  0.55956  0.08116  1.0000
  C   C362      1.0  0.57333  0.56781  0.06370  1.0000
  C   C363      1.0  0.56053  0.57989  0.05515  1.0000
  C   C364      1.0  0.54291  0.58330  0.06388  1.0000
  H   H543      1.0  0.56414  0.58635  0.04165  1.0000
  H   H544      1.0  0.53298  0.59228  0.05703  1.0000
  H   H545      1.0  0.48695  0.64310  0.16161  1.0000
  H   H546      1.0  0.57107  0.65027  0.15491  1.0000
  C   C365      1.0  0.42248  0.60630  0.03152  1.0000
  C   C366      1.0  0.43344  0.61967  0.03057  1.0000
  C   C367      1.0  0.43739  0.62457  0.04635  1.0000
  C   C368      1.0  0.42970  0.61673  0.06308  1.0000
  C   C369      1.0  0.41794  0.60409  0.06400  1.0000
  C   C370      1.0  0.41453  0.59870  0.04823  1.0000
  H   H547      1.0  0.43930  0.62585  0.01769  1.0000
  H   H548      1.0  0.44640  0.63445  0.04556  1.0000
  H   H549      1.0  0.41201  0.59795  0.07688  1.0000
  H   H550      1.0  0.40580  0.58856  0.04901  1.0000
  C   C371      1.0  0.39575  0.52989  0.09549  1.0000
  C   C372      1.0  0.38242  0.53356  0.11000  1.0000
  C   C373      1.0  0.38626  0.52991  0.12784  1.0000
  C   C374      1.0  0.40343  0.52215  0.13143  1.0000
  C   C375      1.0  0.41681  0.51859  0.11692  1.0000
  C   C376      1.0  0.41308  0.52264  0.09906  1.0000
  H   H551      1.0  0.36892  0.53900  0.10741  1.0000
  H   H552      1.0  0.37575  0.53254  0.13881  1.0000
  H   H553      1.0  0.43016  0.51257  0.11947  1.0000
  H   H554      1.0  0.42344  0.51958  0.08809  1.0000
  C   C377      1.0  0.47539  0.47350  0.06413  1.0000
  C   C378      1.0  0.49035  0.47655  0.05136  1.0000
  C   C379      1.0  0.49088  0.49329  0.04079  1.0000
  C   C380      1.0  0.47635  0.50679  0.04297  1.0000
  C   C381      1.0  0.46176  0.50393  0.05622  1.0000
  C   C382      1.0  0.46135  0.48733  0.06691  1.0000
  H   H555      1.0  0.50135  0.46596  0.04944  1.0000
  H   H556      1.0  0.50217  0.49549  0.03052  1.0000
  H   H557      1.0  0.45064  0.51446  0.05816  1.0000
  H   H558      1.0  0.44982  0.48502  0.07689  1.0000
  C   C383      1.0  0.55799  0.43789  0.05406  1.0000
  C   C384      1.0  0.57436  0.44215  0.05707  1.0000
  C   C385      1.0  0.57476  0.45756  0.06476  1.0000
  C   C386      1.0  0.55885  0.46876  0.06931  1.0000
  C   C387      1.0  0.54243  0.46423  0.06668  1.0000
  C   C388      1.0  0.54203  0.44888  0.05891  1.0000
  H   H559      1.0  0.58672  0.43358  0.05349  1.0000
  H   H560      1.0  0.58737  0.46061  0.06731  1.0000
  H   H561      1.0  0.53002  0.47267  0.07037  1.0000
  H   H562      1.0  0.52934  0.44576  0.05648  1.0000
  C   C389      1.0  0.52040  0.37342  0.15180  1.0000
  C   C390      1.0  0.51280  0.38897  0.14170  1.0000
  C   C391      1.0  0.50761  0.38806  0.12478  1.0000
  C   C392      1.0  0.50969  0.37154  0.11811  1.0000
  C   C393      1.0  0.51697  0.35615  0.12845  1.0000
  C   C394      1.0  0.52251  0.35711  0.14493  1.0000
  H   H563      1.0  0.51129  0.40170  0.14672  1.0000
  H   H564      1.0  0.50182  0.40004  0.11704  1.0000
  C   C395      1.0  0.49686  0.58679  0.01304  1.0000
  S   S165      1.0  0.61281  0.46159  0.23514  1.0000
  H   H565      1.0  0.55094  0.39080  0.07279  1.0000
  C   C396      1.0  0.57934  0.39411  0.08822  1.0000
  Fe  Fe88      1.0  0.64791  0.51257  0.23425  1.0000
  H   H566      1.0  0.52503  0.58679  0.22019  1.0000
  H   H567      1.0  0.55123  0.34333  0.20365  1.0000
  C   C397      1.0  0.46733  0.57859  0.02430  1.0000
  H   H568      1.0  0.57996  0.49205  0.15842  1.0000
  C   C398      1.0  0.56258  0.37961  0.11473  1.0000
  H   H569      1.0  0.57847  0.55084  0.08817  1.0000
  N   N40       1.0  0.44145  0.46791  0.16775  1.0000
  C   C399      1.0  0.45283  0.45072  0.17217  1.0000
  C   C400      1.0  0.42252  0.46622  0.17520  1.0000
  C   C401      1.0  0.44288  0.47259  0.14807  1.0000
  C   C402      1.0  0.44753  0.48215  0.17555  1.0000
  H   H570      1.0  0.46725  0.45154  0.16694  1.0000
  H   H571      1.0  0.44867  0.43964  0.16651  1.0000
  H   H572      1.0  0.45202  0.44669  0.18691  1.0000
  H   H573      1.0  0.42091  0.46280  0.19003  1.0000
  H   H574      1.0  0.41358  0.47897  0.17206  1.0000
  H   H575      1.0  0.41746  0.45557  0.16966  1.0000
  H   H576      1.0  0.45696  0.47405  0.14196  1.0000
  H   H577      1.0  0.43438  0.48545  0.14429  1.0000
  H   H578      1.0  0.43836  0.46214  0.14174  1.0000
  H   H579      1.0  0.43901  0.49525  0.17275  1.0000
  H   H580      1.0  0.46169  0.48400  0.17010  1.0000
  H   H581      1.0  0.44688  0.47892  0.19036  1.0000
  H   H582      1.0  0.47305  0.56561  0.03138  1.0000
  H   H583      1.0  0.65763  0.57596  0.08541  1.0000
  H   H584      1.0  0.63345  0.55499  0.05713  1.0000
  C   C403      1.0  0.63828  0.56533  0.06331  1.0000
  N   N41       1.0  0.51477  0.53003  0.06883  1.0000
  C   C404      1.0  0.52365  0.51893  0.05488  1.0000
  C   C405      1.0  0.49788  0.52319  0.07747  1.0000
  C   C406      1.0  0.51069  0.54876  0.06052  1.0000
  C   C407      1.0  0.52686  0.52922  0.08244  1.0000
  H   H585      1.0  0.53664  0.52349  0.04836  1.0000
  H   H586      1.0  0.51496  0.51937  0.04430  1.0000
  H   H587      1.0  0.52672  0.50468  0.06069  1.0000
  H   H588      1.0  0.49118  0.53088  0.08852  1.0000
  H   H589      1.0  0.48819  0.52426  0.06771  1.0000
  H   H590      1.0  0.50036  0.50883  0.08324  1.0000
  H   H591      1.0  0.50334  0.55736  0.07057  1.0000
  H   H592      1.0  0.50211  0.54973  0.04976  1.0000
  H   H593      1.0  0.52321  0.55464  0.05463  1.0000
  H   H594      1.0  0.54004  0.53358  0.07626  1.0000
  H   H595      1.0  0.52972  0.51536  0.08941  1.0000
  H   H596      1.0  0.52093  0.53807  0.09279  1.0000
  C   C408      1.0  0.43676  0.46619  0.01303  1.0000
  H   H597      1.0  0.58659  0.40081  0.09633  1.0000
  H   H598      1.0  0.42014  0.59697  0.11543  1.0000
  S   S166      1.0  0.47478  0.65346  0.23057  1.0000
  C   C409      1.0  0.59312  0.48387  0.15485  1.0000
  C   C410      1.0  0.44822  0.66557  0.09932  1.0000
  C   C411      1.0  0.61757  0.55991  0.09038  1.0000
  Fe  Fe89      1.0  0.49453  0.64393  0.08242  1.0000
  H   H599      1.0  0.42732  0.54868  0.13354  1.0000
  H   H600      1.0  0.53690  0.40704  0.10764  1.0000
  H   H601      1.0  0.55880  0.45366  0.01971  1.0000
  H   H602      1.0  0.57135  0.42130  0.22553  1.0000
  Fe  Fe90      1.0  0.41266  0.51686  0.21702  1.0000
  Fe  Fe91      1.0  0.37260  0.52924  0.21779  1.0000
  C   C412      1.0  0.40805  0.59155  0.12334  1.0000
  S   S167      1.0  0.40858  0.58301  0.19521  1.0000
  H   H603      1.0  0.54743  0.55650  0.10338  1.0000
  H   H604      1.0  0.57393  0.47610  0.02997  1.0000
  S   S168      1.0  0.64447  0.49609  0.21297  1.0000
  C   C413      1.0  0.53013  0.55248  0.23604  1.0000
  H   H605      1.0  0.40024  0.60220  0.13093  1.0000
  H   H606      1.0  0.50122  0.58811  0.22096  1.0000
  H   H607      1.0  0.53958  0.61998  0.14755  1.0000
  Fe  Fe92      1.0  0.49270  0.65637  0.20389  1.0000
  H   H608      1.0  0.39962  0.58898  0.11353  1.0000
  C   C414      1.0  0.44139  0.47827  0.22875  1.0000
  Fe  Fe93      1.0  0.41584  0.53372  0.00594  1.0000
  H   H609      1.0  0.61080  0.49384  0.17851  1.0000
  H   H610      1.0  0.52876  0.33474  0.18770  1.0000
  Fe  Fe94      1.0  0.49654  0.62981  0.04603  1.0000
  C   C415      1.0  0.56353  0.63859  0.15647  1.0000
  H   H611      1.0  0.60665  0.47582  0.19610  1.0000
  H   H612      1.0  0.41560  0.47291  0.22421  1.0000
  H   H613      1.0  0.58762  0.38122  0.08551  1.0000
  Fe  Fe95      1.0  0.48354  0.62397  0.23001  1.0000
  H   H614      1.0  0.41714  0.58954  0.15627  1.0000
  H   H615      1.0  0.42787  0.56694  0.15790  1.0000
  H   H616      1.0  0.57860  0.40273  0.07506  1.0000
  S   S169      1.0  0.51598  0.62717  0.06617  1.0000
  C   C416      1.0  0.62831  0.52014  0.15281  1.0000
  H   H617      1.0  0.46933  0.61233  0.00835  1.0000
  C   C417      1.0  0.56542  0.57949  0.24783  1.0000
  H   H618      1.0  0.57034  0.36630  0.11279  1.0000
  H   H619      1.0  0.64775  0.55879  0.24317  1.0000
  S   S170      1.0  0.43416  0.50068  0.23229  1.0000
  C   C418      1.0  0.43550  0.44950  0.22279  1.0000
  C   C419      1.0  0.60135  0.48393  0.18415  1.0000
  H   H620      1.0  0.47353  0.64925  0.00897  1.0000
  H   H621      1.0  0.58824  0.49157  0.18893  1.0000
  H   H622      1.0  0.42621  0.44111  0.22015  1.0000
  H   H623      1.0  0.66179  0.54338  0.08196  1.0000
  S   S171      1.0  0.50825  0.41181  0.23923  1.0000
  N   N42       1.0  0.41307  0.57506  0.13548  1.0000
  C   C420      1.0  0.42432  0.57899  0.14817  1.0000
  H   H624      1.0  0.38758  0.56565  0.13653  1.0000
  H   H625      1.0  0.38896  0.57810  0.15442  1.0000
  C   C421      1.0  0.42948  0.46749  0.22505  1.0000
  S   S172      1.0  0.34783  0.52022  0.23704  1.0000
  H   H626      1.0  0.60890  0.57265  0.08651  1.0000
  H   H627      1.0  0.62199  0.45323  0.17722  1.0000
  H   H628      1.0  0.62728  0.47099  0.15965  1.0000
  H   H629      1.0  0.42835  0.61320  0.19092  1.0000
  H   H630      1.0  0.49299  0.63933  0.12900  1.0000
  H   H631      1.0  0.44847  0.42802  0.04061  1.0000
  H   H632      1.0  0.53384  0.35513  0.21769  1.0000
  C   C422      1.0  0.39666  0.56835  0.14564  1.0000
  C   C423      1.0  0.42325  0.56129  0.12479  1.0000
  H   H633      1.0  0.43706  0.58367  0.14109  1.0000
  H   H634      1.0  0.43564  0.56594  0.11680  1.0000
  C   C424      1.0  0.61695  0.46205  0.16549  1.0000
  H   H635      1.0  0.44151  0.45442  0.05711  1.0000
  C   C425      1.0  0.64138  0.50522  0.15112  1.0000
  H   H636      1.0  0.62997  0.57824  0.05924  1.0000
  H   H637      1.0  0.54905  0.37720  0.12189  1.0000
  C   C426      1.0  0.58617  0.46009  0.17867  1.0000
  H   H638      1.0  0.40001  0.55559  0.15446  1.0000
  H   H639      1.0  0.45410  0.57678  0.02090  1.0000
  H   H640      1.0  0.43836  0.48062  0.01201  1.0000
  H   H641      1.0  0.41601  0.65411  0.10868  1.0000
  H   H642      1.0  0.46858  0.47926  0.23303  1.0000
  Fe  Fe96      1.0  0.62764  0.52039  0.20073  1.0000
  H   H643      1.0  0.50379  0.57390  0.01910  1.0000
  H   H644      1.0  0.41502  0.55788  0.11522  1.0000
  H   H645      1.0  0.56941  0.63038  0.14560  1.0000
  H   H646      1.0  0.63539  0.58824  0.08733  1.0000
  S   S173      1.0  0.63348  0.53758  0.22014  1.0000
  S   S174      1.0  0.63998  0.49445  0.10068  1.0000
  H   H647      1.0  0.52220  0.65933  0.17115  1.0000
  S   S175      1.0  0.50728  0.62376  0.24439  1.0000
  C   C427      1.0  0.63476  0.50406  0.12091  1.0000
  H   H648      1.0  0.58439  0.45115  0.16904  1.0000
  N   N43       1.0  0.59939  0.47249  0.17078  1.0000
  H   H649      1.0  0.64689  0.53981  0.10255  1.0000
  H   H650      1.0  0.60285  0.49328  0.14854  1.0000
  H   H651      1.0  0.59042  0.45141  0.19082  1.0000
  S   S176      1.0  0.62476  0.53173  0.17172  1.0000
  H   H652      1.0  0.61606  0.45341  0.15524  1.0000
  H   H653      1.0  0.61341  0.52375  0.11221  1.0000
  H   H654      1.0  0.42789  0.43469  0.03110  1.0000
  H   H655      1.0  0.54203  0.55963  0.23512  1.0000
  N   N44       1.0  0.44474  0.45549  0.02843  1.0000
  H   H656      1.0  0.57269  0.46746  0.18280  1.0000
  C   C428      1.0  0.64325  0.57489  0.09066  1.0000
  H   H657      1.0  0.51133  0.34698  0.20121  1.0000
  H   H658      1.0  0.44258  0.63356  0.11760  1.0000
  C   C429      1.0  0.53466  0.62843  0.15844  1.0000
  H   H659      1.0  0.51861  0.34335  0.12352  1.0000
  H   H660      1.0  0.60585  0.46221  0.00385  1.0000
  C   C430      1.0  0.54134  0.65523  0.13859  1.0000
  S   S177      1.0  0.48339  0.40759  0.00864  1.0000
  C   C431      1.0  0.64741  0.54339  0.08777  1.0000
  H   H661      1.0  0.44323  0.46144  0.00016  1.0000
  H   H662      1.0  0.59146  0.47571  0.14446  1.0000
  H   H663      1.0  0.54650  0.60357  0.24422  1.0000
  H   H664      1.0  0.49510  0.59640  0.02294  1.0000
  H   H665      1.0  0.64242  0.53236  0.08276  1.0000
  C   C432      1.0  0.44408  0.57977  0.23081  1.0000
  C   C433      1.0  0.48929  0.65447  0.15153  1.0000
  S   S178      1.0  0.46734  0.60067  0.23867  1.0000
  C   C434      1.0  0.49247  0.65238  0.13308  1.0000
  H   H666      1.0  0.61232  0.54921  0.08516  1.0000
  C   C435      1.0  0.55206  0.38257  0.08604  1.0000
  S   S179      1.0  0.39432  0.53914  0.22912  1.0000
  H   H667      1.0  0.54942  0.41781  0.08806  1.0000
  C   C436      1.0  0.56103  0.46093  0.00592  1.0000
  H   H668      1.0  0.53656  0.61992  0.17142  1.0000
  C   C437      1.0  0.62129  0.51858  0.12291  1.0000
  H   H669      1.0  0.60815  0.53827  0.13985  1.0000
  H   H670      1.0  0.55718  0.41558  0.10942  1.0000
  S   S180      1.0  0.50857  0.62962  0.01662  1.0000
  H   H671      1.0  0.42114  0.46146  0.04731  1.0000
  S   S181      1.0  0.51714  0.65903  0.21624  1.0000
  H   H672      1.0  0.51591  0.57245  0.20834  1.0000
  H   H673      1.0  0.54598  0.64733  0.12723  1.0000
  S   S182      1.0  0.50005  0.66598  0.09672  1.0000
  C   C438      1.0  0.53695  0.65524  0.17063  1.0000
  C   C439      1.0  0.46412  0.45702  0.02622  1.0000
  H   H674      1.0  0.46654  0.47121  0.02513  1.0000
  H   H675      1.0  0.44552  0.65613  0.09059  1.0000
  H   H676      1.0  0.46462  0.58861  0.03391  1.0000
  H   H677      1.0  0.64216  0.57193  0.10555  1.0000
  S   S183      1.0  0.47634  0.64917  0.06086  1.0000
  H   H678      1.0  0.50600  0.59224  0.00124  1.0000
  H   H679      1.0  0.56599  0.63029  0.16947  1.0000
  H   H680      1.0  0.65244  0.56632  0.05721  1.0000
  H   H681      1.0  0.65527  0.48622  0.13367  1.0000
  H   H682      1.0  0.47031  0.44952  0.03792  1.0000
  H   H683      1.0  0.52855  0.34506  0.15238  1.0000
  C   C440      1.0  0.51390  0.57867  0.22089  1.0000
  C   C441      1.0  0.49782  0.55510  0.23767  1.0000
  H   H684      1.0  0.53932  0.64764  0.18389  1.0000
  H   H685      1.0  0.59176  0.44870  0.01968  1.0000
  H   H686      1.0  0.53207  0.54532  0.22408  1.0000
  C   C442      1.0  0.54166  0.34179  0.21627  1.0000
  H   H687      1.0  0.43764  0.47648  0.04512  1.0000
  H   H688      1.0  0.49884  0.54838  0.22553  1.0000
  H   H689      1.0  0.54950  0.33833  0.22781  1.0000
  C   C443      1.0  0.44493  0.64372  0.12573  1.0000
  S   S184      1.0  0.43820  0.55057  0.00153  1.0000
  H   H690      1.0  0.38549  0.50280  0.24526  1.0000
  H   H691      1.0  0.52688  0.66026  0.13811  1.0000
  H   H692      1.0  0.56428  0.49338  0.01413  1.0000
  H   H693      1.0  0.59944  0.42821  0.23446  1.0000
  H   H694      1.0  0.58820  0.48939  0.01416  1.0000
  C   C444      1.0  0.59319  0.45604  0.00583  1.0000
  H   H695      1.0  0.53030  0.54221  0.24812  1.0000
  H   H696      1.0  0.49688  0.54467  0.24960  1.0000
  H   H697      1.0  0.50885  0.34061  0.23464  1.0000
  N   N45       1.0  0.43865  0.66208  0.11768  1.0000
  H   H698      1.0  0.62423  0.56620  0.24909  1.0000
  N   N46       1.0  0.57749  0.46971  0.00303  1.0000
  H   H699      1.0  0.54887  0.47082  0.00406  1.0000
  H   H700      1.0  0.48773  0.55771  0.00188  1.0000
  C   C445      1.0  0.41913  0.66382  0.11693  1.0000
  H   H701      1.0  0.41144  0.66127  0.13056  1.0000
  C   C446      1.0  0.51955  0.33364  0.20060  1.0000
  H   H702      1.0  0.33717  0.55559  0.24994  1.0000
  C   C447      1.0  0.38242  0.48549  0.28918  1.0000
  H   H703      1.0  0.39404  0.48079  0.25475  1.0000
  H   H704      1.0  0.37198  0.52116  0.28824  1.0000
  H   H705      1.0  0.62647  0.56171  0.29809  1.0000
  H   H706      1.0  0.54635  0.33613  0.28452  1.0000
  H   H707      1.0  0.64075  0.58016  0.25088  1.0000
  S   S185      1.0  0.52994  0.36094  0.25755  1.0000
  H   H708      1.0  0.33675  0.63704  0.39211  1.0000
  H   H709      1.0  0.39275  0.47355  0.28782  1.0000
  H   H710      1.0  0.63552  0.53205  0.28730  1.0000
  H   H711      1.0  0.66783  0.36696  0.43077  1.0000
  H   H712      1.0  0.65278  0.46536  0.28019  1.0000
  C   C448      1.0  0.62608  0.56788  0.28390  1.0000
  H   H713      1.0  0.66034  0.50519  0.28205  1.0000
  H   H714      1.0  0.62044  0.53904  0.27088  1.0000
  C   C449      1.0  0.52122  0.34377  0.27387  1.0000
  H   H715      1.0  0.65709  0.43546  0.25694  1.0000
  C   C450      1.0  0.38364  0.49246  0.25711  1.0000
  H   H716      1.0  0.44927  0.33648  0.34047  1.0000
  H   H717      1.0  0.37014  0.48832  0.25743  1.0000
  H   H718      1.0  0.38333  0.49042  0.30197  1.0000
  C   C451      1.0  0.65514  0.46856  0.26533  1.0000
  H   H719      1.0  0.64287  0.46636  0.26006  1.0000
  H   H720      1.0  0.56241  0.57779  0.26230  1.0000
  H   H721      1.0  0.37236  0.52584  0.26436  1.0000
  C   C452      1.0  0.45398  0.33680  0.35352  1.0000
  S   S186      1.0  0.50152  0.66476  0.26931  1.0000
  H   H722      1.0  0.35737  0.51134  0.27731  1.0000
  H   H723      1.0  0.49453  0.34778  0.26658  1.0000
  C   C453      1.0  0.65745  0.55692  0.27563  1.0000
  C   C454      1.0  0.50363  0.33979  0.27517  1.0000
  H   H724      1.0  0.61203  0.56850  0.28101  1.0000
  C   C455      1.0  0.63788  0.56607  0.25284  1.0000
  H   H725      1.0  0.64358  0.53111  0.26397  1.0000
  N   N47       1.0  0.63897  0.55752  0.27149  1.0000
  H   H726      1.0  0.45514  0.35098  0.35450  1.0000
  C   C456      1.0  0.63443  0.53910  0.27352  1.0000
  H   H727      1.0  0.36897  0.48096  0.29042  1.0000
  H   H728      1.0  0.41396  0.49376  0.27029  1.0000
  N   N48       1.0  0.38508  0.49957  0.27371  1.0000
  C   C457      1.0  0.37114  0.51515  0.27606  1.0000
  C   C458      1.0  0.40310  0.50512  0.27247  1.0000
  H   H729      1.0  0.51047  0.56407  0.26561  1.0000
  H   H730      1.0  0.48722  0.34553  0.34105  1.0000
  H   H731      1.0  0.65648  0.48307  0.26215  1.0000
  H   H732      1.0  0.33942  0.65817  0.39838  1.0000
  H   H733      1.0  0.49847  0.58353  0.25430  1.0000
  H   H734      1.0  0.40553  0.51580  0.26098  1.0000
  H   H735      1.0  0.40480  0.51041  0.28480  1.0000
  H   H736      1.0  0.62905  0.58188  0.28276  1.0000
  C   C459      1.0  0.51108  0.57393  0.25321  1.0000
  H   H737      1.0  0.66725  0.43443  0.27688  1.0000
  H   H738      1.0  0.47860  0.33976  0.37426  1.0000
  H   H739      1.0  0.52241  0.58162  0.25310  1.0000
  H   H740      1.0  0.66133  0.57058  0.27445  1.0000
  H   H741      1.0  0.65891  0.55018  0.28948  1.0000
  S   S187      1.0  0.58946  0.54897  0.25247  1.0000
  S   S188      1.0  0.62318  0.50504  0.25235  1.0000
  C   C460      1.0  0.53273  0.33322  0.28534  1.0000
  H   H742      1.0  0.66747  0.54932  0.26631  1.0000
  Fe  Fe97      1.0  0.50513  0.37311  0.70374  1.0000
  S   S189      1.0  0.51620  0.39751  0.68778  1.0000
  Fe  Fe98      1.0  0.52898  0.39970  0.71197  1.0000
  S   S190      1.0  0.55746  0.40471  0.71313  1.0000
  Fe  Fe99      1.0  0.49202  0.41334  0.70196  1.0000
  S   S191      1.0  0.47668  0.43692  0.68649  1.0000
  S   S192      1.0  0.37207  0.55001  0.70164  1.0000
  H   H743      1.0  0.45101  0.33600  0.63082  1.0000
  H   H744      1.0  0.44787  0.63704  0.68221  1.0000
  H   H745      1.0  0.45080  0.59034  0.74368  1.0000
  Fe  Fe100     1.0  0.40080  0.53718  0.69759  1.0000
  S   S193      1.0  0.42616  0.55015  0.68870  1.0000
  S   S194      1.0  0.39494  0.51533  0.68340  1.0000
  H   H746      1.0  0.54748  0.34569  0.59727  1.0000
  S   S195      1.0  0.63111  0.51968  0.73107  1.0000
  H   H747      1.0  0.62637  0.55355  0.70213  1.0000
  Fe  Fe101     1.0  0.59890  0.49443  0.71327  1.0000
  S   S196      1.0  0.60967  0.51899  0.69732  1.0000
  S   S197      1.0  0.57650  0.48438  0.70273  1.0000
  Fe  Fe102     1.0  0.63646  0.50668  0.70570  1.0000
  H   H748      1.0  0.42393  0.64084  0.68617  1.0000
  Fe  Fe103     1.0  0.60375  0.53014  0.72344  1.0000
  S   S198      1.0  0.59344  0.55883  0.72748  1.0000
  S   S199      1.0  0.62612  0.48114  0.72002  1.0000
  H   H749      1.0  0.42764  0.44368  0.73635  1.0000
  H   H750      1.0  0.49203  0.35130  0.63313  1.0000
  S   S200      1.0  0.46485  0.65012  0.73443  1.0000
  Fe  Fe104     1.0  0.50353  0.61914  0.71117  1.0000
  S   S201      1.0  0.48445  0.60903  0.73463  1.0000
  S   S202      1.0  0.52265  0.59839  0.69705  1.0000
  Fe  Fe105     1.0  0.46292  0.62648  0.72100  1.0000
  S   S203      1.0  0.43498  0.61954  0.72138  1.0000
  C   C461      1.0  0.49513  0.34206  0.64485  1.0000
  H   H751      1.0  0.59866  0.55950  0.68788  1.0000
  S   S204      1.0  0.48150  0.63464  0.69630  1.0000
  S   S205      1.0  0.50851  0.64269  0.72344  1.0000
  C   C462      1.0  0.50135  0.33726  0.67587  1.0000
  C   C463      1.0  0.57290  0.56894  0.72017  1.0000
  C   C464      1.0  0.56470  0.56104  0.70876  1.0000
  C   C465      1.0  0.54920  0.57016  0.70188  1.0000
  C   C466      1.0  0.54146  0.58692  0.70681  1.0000
  C   C467      1.0  0.54932  0.59454  0.71869  1.0000
  C   C468      1.0  0.56514  0.58567  0.72515  1.0000
  H   H752      1.0  0.57044  0.54806  0.70498  1.0000
  H   H753      1.0  0.54315  0.56420  0.69271  1.0000
  H   H754      1.0  0.54349  0.60749  0.72249  1.0000
  S   S206      1.0  0.52022  0.37395  0.72695  1.0000
  S   S207      1.0  0.36134  0.50969  0.71595  1.0000
  H   H755      1.0  0.60892  0.59757  0.67863  1.0000
  H   H756      1.0  0.62566  0.58580  0.65109  1.0000
  C   C469      1.0  0.42857  0.56908  0.69841  1.0000
  C   C470      1.0  0.44513  0.57587  0.69500  1.0000
  C   C471      1.0  0.44733  0.59115  0.70225  1.0000
  C   C472      1.0  0.43287  0.59992  0.71270  1.0000
  C   C473      1.0  0.41637  0.59305  0.71626  1.0000
  C   C474      1.0  0.41426  0.57759  0.70927  1.0000
  H   H757      1.0  0.45626  0.56940  0.68660  1.0000
  H   H758      1.0  0.46014  0.59630  0.69947  1.0000
  H   H759      1.0  0.46532  0.66282  0.67016  1.0000
  H   H760      1.0  0.40145  0.57246  0.71200  1.0000
  C   C475      1.0  0.45550  0.44591  0.69668  1.0000
  C   C476      1.0  0.44917  0.44022  0.71458  1.0000
  C   C477      1.0  0.43254  0.44824  0.72255  1.0000
  C   C478      1.0  0.42235  0.46216  0.71276  1.0000
  C   C479      1.0  0.42869  0.46786  0.69488  1.0000
  C   C480      1.0  0.44513  0.45960  0.68682  1.0000
  H   H761      1.0  0.42072  0.47832  0.68715  1.0000
  H   H762      1.0  0.44986  0.46380  0.67288  1.0000
  C   C481      1.0  0.56261  0.42690  0.71035  1.0000
  C   C482      1.0  0.55052  0.44139  0.70415  1.0000
  C   C483      1.0  0.55497  0.45890  0.70204  1.0000
  C   C484      1.0  0.57138  0.46214  0.70637  1.0000
  C   C485      1.0  0.58333  0.44769  0.71295  1.0000
  C   C486      1.0  0.57901  0.43011  0.71477  1.0000
  H   H763      1.0  0.53790  0.43907  0.70062  1.0000
  H   H764      1.0  0.54572  0.47001  0.69684  1.0000
  H   H765      1.0  0.59605  0.45003  0.71618  1.0000
  H   H766      1.0  0.58847  0.41895  0.71948  1.0000
  N   N49       1.0  0.62292  0.57092  0.67752  1.0000
  Fe  Fe106     1.0  0.36566  0.52696  0.68916  1.0000
  H   H767      1.0  0.45708  0.42964  0.72226  1.0000
  C   C487      1.0  0.43724  0.33621  0.62734  1.0000
  N   N50       1.0  0.46771  0.50604  0.68700  1.0000
  C   C488      1.0  0.47165  0.48789  0.69681  1.0000
  C   C489      1.0  0.48303  0.50976  0.67304  1.0000
  C   C490      1.0  0.46485  0.51942  0.69961  1.0000
  C   C491      1.0  0.45132  0.50712  0.67848  1.0000
  H   H768      1.0  0.47469  0.47754  0.68754  1.0000
  H   H769      1.0  0.46005  0.48422  0.70689  1.0000
  H   H770      1.0  0.48355  0.48674  0.70395  1.0000
  H   H771      1.0  0.48554  0.49989  0.66328  1.0000
  H   H772      1.0  0.48052  0.52336  0.66536  1.0000
  H   H773      1.0  0.49564  0.50904  0.67900  1.0000
  H   H774      1.0  0.46230  0.53329  0.69251  1.0000
  H   H775      1.0  0.47676  0.51877  0.70663  1.0000
  H   H776      1.0  0.45295  0.51742  0.70993  1.0000
  H   H777      1.0  0.44804  0.52061  0.67084  1.0000
  H   H778      1.0  0.43941  0.50470  0.68866  1.0000
  H   H779      1.0  0.45285  0.49706  0.66904  1.0000
  H   H780      1.0  0.41341  0.33810  0.60407  1.0000
  H   H781      1.0  0.34280  0.54276  0.56158  1.0000
  C   C492      1.0  0.49748  0.34890  0.66045  1.0000
  Fe  Fe107     1.0  0.48483  0.65772  0.70997  1.0000
  C   C493      1.0  0.60678  0.56358  0.67484  1.0000
  H   H782      1.0  0.54099  0.39737  0.74722  1.0000
  S   S208      1.0  0.50558  0.41703  0.72499  1.0000
  S   S209      1.0  0.59107  0.50674  0.73879  1.0000
  C   C494      1.0  0.61733  0.58704  0.68663  1.0000
  H   H783      1.0  0.64586  0.58137  0.66146  1.0000
  H   H784      1.0  0.34973  0.52523  0.59080  1.0000
  Fe  Fe108     1.0  0.48795  0.63324  0.74665  1.0000
  H   H785      1.0  0.50411  0.34029  0.73675  1.0000
  H   H786      1.0  0.62913  0.59288  0.68906  1.0000
  S   S210      1.0  0.40172  0.47214  0.72317  1.0000
  H   H787      1.0  0.53679  0.43062  0.74097  1.0000
  H   H788      1.0  0.57142  0.59184  0.73398  1.0000
  S   S211      1.0  0.66356  0.51259  0.68912  1.0000
  Fe  Fe109     1.0  0.49596  0.39122  0.73848  1.0000
  H   H789      1.0  0.47405  0.35115  0.72821  1.0000
  S   S212      1.0  0.50389  0.34506  0.69629  1.0000
  H   H790      1.0  0.43233  0.35029  0.62219  1.0000
  S   S213      1.0  0.48014  0.38903  0.71638  1.0000
  H   H791      1.0  0.61042  0.55153  0.66778  1.0000
  H   H792      1.0  0.40514  0.59973  0.72439  1.0000
  H   H793      1.0  0.63818  0.54487  0.68234  1.0000
  H   H794      1.0  0.60913  0.58384  0.69990  1.0000
  Fe  Fe110     1.0  0.61882  0.49536  0.74469  1.0000
  H   H795      1.0  0.63816  0.56373  0.65285  1.0000
  H   H796      1.0  0.66342  0.48424  0.66665  1.0000
  Fe  Fe111     1.0  0.37006  0.53166  0.72775  1.0000
  C   C495      1.0  0.63361  0.57570  0.65994  1.0000
  C   C496      1.0  0.63394  0.55733  0.68868  1.0000
  Fe  Fe112     1.0  0.39091  0.49984  0.71107  1.0000
  H   H797      1.0  0.49615  0.36322  0.66057  1.0000
  S   S214      1.0  0.39909  0.52071  0.72454  1.0000
  H   H798      1.0  0.59785  0.57359  0.66688  1.0000
  H   H799      1.0  0.64637  0.56226  0.69083  1.0000
  H   H800      1.0  0.65207  0.46837  0.74723  1.0000
  H   H801      1.0  0.43541  0.64211  0.66355  1.0000
  H   H802      1.0  0.55857  0.34046  0.57572  1.0000
  H   H803      1.0  0.66318  0.49213  0.72482  1.0000
  H   H804      1.0  0.44920  0.66073  0.70080  1.0000
  S   S215      1.0  0.34589  0.53556  0.66826  1.0000
  H   H805      1.0  0.44441  0.34359  0.59139  1.0000
  N   N51       1.0  0.43656  0.66468  0.67699  1.0000
  H   H806      1.0  0.33874  0.51070  0.56814  1.0000
  C   C497      1.0  0.43589  0.64536  0.67718  1.0000
  H   H807      1.0  0.42521  0.66420  0.70478  1.0000
  C   C498      1.0  0.55558  0.33485  0.59009  1.0000
  H   H808      1.0  0.51983  0.33469  0.59193  1.0000
  H   H809      1.0  0.46836  0.36342  0.74715  1.0000
  H   H810      1.0  0.33602  0.49900  0.67154  1.0000
  C   C499      1.0  0.46850  0.35014  0.74272  1.0000
  H   H811      1.0  0.45428  0.34765  0.74397  1.0000
  Fe  Fe113     1.0  0.50557  0.39724  0.86385  1.0000
  S   S216      1.0  0.48910  0.42415  0.85935  1.0000
  S   S217      1.0  0.51628  0.38134  0.84040  1.0000
  Fe  Fe114     1.0  0.50757  0.40120  0.90402  1.0000
  S   S218      1.0  0.49177  0.42849  0.90141  1.0000
  S   S219      1.0  0.51920  0.39050  0.93016  1.0000
  Fe  Fe115     1.0  0.47444  0.41622  0.88676  1.0000
  S   S220      1.0  0.44473  0.41801  0.89543  1.0000
  Fe  Fe116     1.0  0.50842  0.43308  0.87447  1.0000
  S   S221      1.0  0.52178  0.45788  0.86548  1.0000
  S   S222      1.0  0.48947  0.38843  0.89047  1.0000
  S   S223      1.0  0.52570  0.40671  0.87786  1.0000
  Fe  Fe117     1.0  0.40357  0.50796  0.86028  1.0000
  S   S224      1.0  0.38461  0.53358  0.86018  1.0000
  S   S225      1.0  0.39184  0.48242  0.86356  1.0000
  Fe  Fe118     1.0  0.43643  0.52653  0.85724  1.0000
  S   S226      1.0  0.41987  0.55335  0.85596  1.0000
  S   S227      1.0  0.46528  0.52865  0.85826  1.0000
  Fe  Fe119     1.0  0.40200  0.54041  0.87908  1.0000
  H   H812      1.0  0.42041  0.59141  0.93295  1.0000
  Fe  Fe120     1.0  0.40492  0.54324  0.83725  1.0000
  S   S228      1.0  0.41910  0.51378  0.88079  1.0000
  S   S229      1.0  0.42312  0.51723  0.83675  1.0000
  Fe  Fe121     1.0  0.47742  0.60128  0.90728  1.0000
  S   S230      1.0  0.46155  0.62849  0.90563  1.0000
  S   S231      1.0  0.46224  0.57821  0.91782  1.0000
  Fe  Fe122     1.0  0.51225  0.61588  0.89495  1.0000
  S   S232      1.0  0.49931  0.64455  0.89290  1.0000
  S   S233      1.0  0.54123  0.60668  0.88585  1.0000
  Fe  Fe123     1.0  0.48307  0.63547  0.91949  1.0000
  Fe  Fe124     1.0  0.47912  0.63451  0.87935  1.0000
  H   H813      1.0  0.54006  0.62900  0.80461  1.0000
  S   S234      1.0  0.49790  0.60773  0.92240  1.0000
  S   S235      1.0  0.49308  0.60653  0.88002  1.0000
  Fe  Fe125     1.0  0.61487  0.50755  0.86943  1.0000
  S   S236      1.0  0.59109  0.49351  0.87093  1.0000
  S   S237      1.0  0.62671  0.51803  0.84113  1.0000
  Fe  Fe126     1.0  0.60949  0.50734  0.91078  1.0000
  S   S238      1.0  0.58513  0.49315  0.91473  1.0000
  S   S239      1.0  0.61429  0.52075  0.93412  1.0000
  Fe  Fe127     1.0  0.60109  0.47621  0.89466  1.0000
  S   S240      1.0  0.59668  0.44788  0.89420  1.0000
  Fe  Fe128     1.0  0.57722  0.51145  0.89056  1.0000
  S   S241      1.0  0.54847  0.52286  0.88883  1.0000
  S   S242      1.0  0.62650  0.48889  0.89210  1.0000
  S   S243      1.0  0.60024  0.52712  0.88775  1.0000
  H   H814      1.0  0.36573  0.48092  0.77516  1.0000
  C   C500      1.0  0.38907  0.48897  0.79508  1.0000
  H   H815      1.0  0.40240  0.46089  0.76344  1.0000
  S   S244      1.0  0.48236  0.38805  0.76756  1.0000
  H   H816      1.0  0.55633  0.62396  0.84913  1.0000
  H   H817      1.0  0.58443  0.59922  0.91650  1.0000
  C   C501      1.0  0.42826  0.61905  0.85002  1.0000
  H   H818      1.0  0.52468  0.63350  0.86031  1.0000
  C   C502      1.0  0.42304  0.59613  0.76992  1.0000
  S   S245      1.0  0.39385  0.55421  0.90425  1.0000
  S   S246      1.0  0.41287  0.51983  0.98221  1.0000
  C   C503      1.0  0.61727  0.51053  0.95623  1.0000
  C   C504      1.0  0.61230  0.52086  0.97044  1.0000
  C   C505      1.0  0.61532  0.51364  0.98804  1.0000
  H   H819      1.0  0.46941  0.56967  0.99093  1.0000
  C   C506      1.0  0.62873  0.48574  0.97741  1.0000
  C   C507      1.0  0.62530  0.49282  0.95985  1.0000
  H   H820      1.0  0.60622  0.53459  0.96784  1.0000
  H   H821      1.0  0.56322  0.42673  0.76833  1.0000
  H   H822      1.0  0.63538  0.47218  0.97998  1.0000
  H   H823      1.0  0.62945  0.48480  0.94903  1.0000
  C   C508      1.0  0.62455  0.50773  0.82234  1.0000
  C   C509      1.0  0.62206  0.48970  0.82408  1.0000
  C   C510      1.0  0.62136  0.48170  0.80876  1.0000
  C   C511      1.0  0.62270  0.49171  0.79159  1.0000
  C   C512      1.0  0.62470  0.50986  0.78989  1.0000
  C   C513      1.0  0.62584  0.51774  0.80517  1.0000
  H   H824      1.0  0.62123  0.48177  0.83718  1.0000
  H   H825      1.0  0.61995  0.46762  0.81023  1.0000
  H   H826      1.0  0.40406  0.46795  0.92356  1.0000
  H   H827      1.0  0.58588  0.50487  0.81193  1.0000
  C   C514      1.0  0.49971  0.63356  0.96481  1.0000
  C   C515      1.0  0.50753  0.62984  0.98079  1.0000
  H   H828      1.0  0.66442  0.45843  0.76516  1.0000
  H   H829      1.0  0.41076  0.49088  0.75244  1.0000
  C   C516      1.0  0.54305  0.58349  0.88573  1.0000
  C   C517      1.0  0.52904  0.57408  0.89451  1.0000
  C   C518      1.0  0.53054  0.55552  0.89487  1.0000
  C   C519      1.0  0.54615  0.54625  0.88664  1.0000
  C   C520      1.0  0.56005  0.55566  0.87748  1.0000
  C   C521      1.0  0.55851  0.57430  0.87705  1.0000
  H   H830      1.0  0.51713  0.58097  0.90136  1.0000
  H   H831      1.0  0.51976  0.54829  0.90195  1.0000
  H   H832      1.0  0.57190  0.54860  0.87062  1.0000
  H   H833      1.0  0.56929  0.58154  0.87003  1.0000
  C   C522      1.0  0.47393  0.64121  0.83224  1.0000
  C   C523      1.0  0.48221  0.62384  0.83016  1.0000
  C   C524      1.0  0.48713  0.61868  0.81290  1.0000
  C   C525      1.0  0.48377  0.63074  0.79747  1.0000
  H   H834      1.0  0.42235  0.60659  0.75802  1.0000
  H   H835      1.0  0.48494  0.61441  0.84183  1.0000
  H   H836      1.0  0.49384  0.60530  0.81144  1.0000
  C   C526      1.0  0.40055  0.54516  0.92559  1.0000
  C   C527      1.0  0.41084  0.52836  0.92838  1.0000
  H   H837      1.0  0.41567  0.52099  0.91724  1.0000
  C   C528      1.0  0.46514  0.54201  0.87508  1.0000
  C   C529      1.0  0.44984  0.54443  0.88775  1.0000
  C   C530      1.0  0.44936  0.55502  0.90121  1.0000
  C   C531      1.0  0.46403  0.56374  0.90182  1.0000
  C   C532      1.0  0.47942  0.56150  0.88917  1.0000
  C   C533      1.0  0.48007  0.55042  0.87591  1.0000
  H   H838      1.0  0.43828  0.53811  0.88741  1.0000
  H   H839      1.0  0.43741  0.55677  0.91092  1.0000
  H   H840      1.0  0.49090  0.56805  0.88977  1.0000
  H   H841      1.0  0.49200  0.54859  0.86621  1.0000
  C   C534      1.0  0.39689  0.55160  0.77673  1.0000
  C   C535      1.0  0.38677  0.54727  0.76444  1.0000
  H   H842      1.0  0.56946  0.52189  0.82090  1.0000
  H   H843      1.0  0.40983  0.55600  0.77192  1.0000
  H   H844      1.0  0.53539  0.44376  0.75881  1.0000
  C   C536      1.0  0.50929  0.39612  0.95173  1.0000
  C   C537      1.0  0.49170  0.40480  0.95482  1.0000
  C   C538      1.0  0.51926  0.39143  0.96625  1.0000
  H   H845      1.0  0.48378  0.40834  0.94387  1.0000
  C   C539      1.0  0.37661  0.48860  0.76791  1.0000
  C   C540      1.0  0.43083  0.43578  0.88522  1.0000
  C   C541      1.0  0.43743  0.45150  0.87652  1.0000
  C   C542      1.0  0.42554  0.46588  0.86946  1.0000
  C   C543      1.0  0.40723  0.46428  0.87078  1.0000
  C   C544      1.0  0.40080  0.44844  0.87913  1.0000
  C   C545      1.0  0.41254  0.43431  0.88655  1.0000
  H   H846      1.0  0.45159  0.45260  0.87547  1.0000
  H   H847      1.0  0.43055  0.47813  0.86295  1.0000
  H   H848      1.0  0.38668  0.44716  0.88016  1.0000
  H   H849      1.0  0.40747  0.42214  0.89325  1.0000
  C   C546      1.0  0.54261  0.45468  0.87340  1.0000
  C   C547      1.0  0.55556  0.44018  0.86939  1.0000
  C   C548      1.0  0.57230  0.43802  0.87564  1.0000
  C   C549      1.0  0.57590  0.45016  0.88621  1.0000
  C   C550      1.0  0.56284  0.46449  0.89027  1.0000
  C   C551      1.0  0.54639  0.46692  0.88367  1.0000
  H   H850      1.0  0.55283  0.43089  0.86109  1.0000
  H   H851      1.0  0.58250  0.42716  0.87207  1.0000
  H   H852      1.0  0.56533  0.47380  0.89857  1.0000
  H   H853      1.0  0.53659  0.47822  0.88679  1.0000
  C   C552      1.0  0.50679  0.38386  0.82010  1.0000
  C   C553      1.0  0.49113  0.39557  0.81721  1.0000
  C   C554      1.0  0.48395  0.39695  0.80097  1.0000
  C   C555      1.0  0.49250  0.38689  0.78731  1.0000
  C   C556      1.0  0.50812  0.37514  0.79022  1.0000
  C   C557      1.0  0.51524  0.37370  0.80647  1.0000
  H   H854      1.0  0.48433  0.40333  0.82762  1.0000
  H   H855      1.0  0.47162  0.40576  0.79908  1.0000
  C   C558      1.0  0.36974  0.54200  0.77034  1.0000
  H   H856      1.0  0.58424  0.50792  0.83496  1.0000
  C   C559      1.0  0.53191  0.41616  0.78572  1.0000
  H   H857      1.0  0.57003  0.58960  0.90531  1.0000
  H   H858      1.0  0.56545  0.40266  0.77290  1.0000
  H   H859      1.0  0.56335  0.55829  0.93567  1.0000
  N   N52       1.0  0.56305  0.49499  0.82888  1.0000
  C   C560      1.0  0.55304  0.49539  0.81367  1.0000
  C   C561      1.0  0.57261  0.47677  0.83307  1.0000
  C   C562      1.0  0.55030  0.49978  0.84471  1.0000
  C   C563      1.0  0.57619  0.50798  0.82396  1.0000
  H   H860      1.0  0.56227  0.49182  0.80149  1.0000
  H   H861      1.0  0.54567  0.50894  0.81009  1.0000
  H   H862      1.0  0.54298  0.48575  0.81692  1.0000
  H   H863      1.0  0.58016  0.47581  0.84462  1.0000
  H   H864      1.0  0.56307  0.46664  0.83668  1.0000
  H   H865      1.0  0.58251  0.47282  0.82150  1.0000
  H   H866      1.0  0.55729  0.49940  0.85656  1.0000
  H   H867      1.0  0.54010  0.49034  0.84862  1.0000
  H   H868      1.0  0.54301  0.51353  0.84215  1.0000
  H   H869      1.0  0.56453  0.59087  0.92882  1.0000
  H   H870      1.0  0.56482  0.41885  0.93406  1.0000
  S   S247      1.0  0.49174  0.62368  0.77614  1.0000
  H   H871      1.0  0.53366  0.60356  0.85035  1.0000
  C   C564      1.0  0.59451  0.56963  0.93830  1.0000
  H   H872      1.0  0.51715  0.63632  0.81295  1.0000
  S   S248      1.0  0.46811  0.64842  0.85377  1.0000
  H   H873      1.0  0.52724  0.36445  0.80864  1.0000
  H   H874      1.0  0.60270  0.55642  0.94138  1.0000
  H   H875      1.0  0.47956  0.60667  0.98674  1.0000
  H   H876      1.0  0.43763  0.58526  0.97651  1.0000
  C   C565      1.0  0.53489  0.39899  0.76116  1.0000
  H   H877      1.0  0.45763  0.60090  0.99595  1.0000
  N   N53       1.0  0.39307  0.48421  0.77665  1.0000
  H   H878      1.0  0.50891  0.50553  0.89383  1.0000
  H   H879      1.0  0.38441  0.50357  0.79504  1.0000
  H   H880      1.0  0.55550  0.38025  0.93714  1.0000
  H   H881      1.0  0.58172  0.54288  0.92692  1.0000
  H   H882      1.0  0.40472  0.47975  0.90135  1.0000
  H   H883      1.0  0.60364  0.58002  0.93694  1.0000
  H   H884      1.0  0.53741  0.40429  0.79468  1.0000
  H   H885      1.0  0.65315  0.49825  0.75624  1.0000
  H   H886      1.0  0.52408  0.65326  0.84412  1.0000
  H   H887      1.0  0.37957  0.47767  0.94742  1.0000
  H   H888      1.0  0.66585  0.48778  0.77366  1.0000
  H   H889      1.0  0.36263  0.51053  0.91045  1.0000
  C   C566      1.0  0.44215  0.57489  0.78794  1.0000
  H   H890      1.0  0.44620  0.60943  0.78633  1.0000
  S   S249      1.0  0.47227  0.64835  0.94472  1.0000
  C   C567      1.0  0.40061  0.48129  0.91573  1.0000
  H   H891      1.0  0.37365  0.46132  0.92326  1.0000
  C   C568      1.0  0.48249  0.64313  0.96464  1.0000
  H   H892      1.0  0.50908  0.49215  0.87634  1.0000
  H   H893      1.0  0.54576  0.41217  0.92690  1.0000
  H   H894      1.0  0.59900  0.38813  0.90955  1.0000
  H   H895      1.0  0.51454  0.36686  0.78011  1.0000
  H   H896      1.0  0.38913  0.45665  0.78495  1.0000
  C   C569      1.0  0.47164  0.33525  0.77259  1.0000
  H   H897      1.0  0.60901  0.55420  0.90927  1.0000
  C   C570      1.0  0.56011  0.41408  0.92277  1.0000
  H   H898      1.0  0.59181  0.41091  0.90104  1.0000
  C   C571      1.0  0.59016  0.40051  0.91293  1.0000
  H   H899      1.0  0.56051  0.42502  0.91133  1.0000
  H   H900      1.0  0.56525  0.40253  0.89070  1.0000
  C   C572      1.0  0.39022  0.55052  0.79508  1.0000
  N   N54       1.0  0.57117  0.39740  0.91786  1.0000
  H   H901      1.0  0.59529  0.40530  0.92399  1.0000
  C   C573      1.0  0.56479  0.39189  0.90245  1.0000
  H   H902      1.0  0.40889  0.60447  0.88028  1.0000
  H   H903      1.0  0.57301  0.37952  0.89819  1.0000
  C   C574      1.0  0.39499  0.55482  0.94026  1.0000
  H   H904      1.0  0.50550  0.47976  0.91726  1.0000
  C   C575      1.0  0.48408  0.40831  0.97225  1.0000
  H   H905      1.0  0.55063  0.38906  0.90579  1.0000
  C   C576      1.0  0.56965  0.38309  0.93329  1.0000
  H   H906      1.0  0.57406  0.38688  0.94526  1.0000
  S   S250      1.0  0.40199  0.55879  0.80971  1.0000
  H   H907      1.0  0.46915  0.49251  0.87826  1.0000
  H   H908      1.0  0.37921  0.48555  0.75384  1.0000
  H   H909      1.0  0.52096  0.62267  0.98069  1.0000
  H   H910      1.0  0.57790  0.37032  0.93013  1.0000
  H   H911      1.0  0.53279  0.38458  0.96414  1.0000
  H   H912      1.0  0.48561  0.47306  0.87764  1.0000
  H   H913      1.0  0.47031  0.41458  0.97451  1.0000
  H   H914      1.0  0.49316  0.51170  0.87803  1.0000
  H   H915      1.0  0.50658  0.46561  0.90034  1.0000
  C   C577      1.0  0.47676  0.48176  0.88681  1.0000
  C   C578      1.0  0.49727  0.47457  0.90887  1.0000
  C   C579      1.0  0.47313  0.64875  0.98069  1.0000
  H   H916      1.0  0.43394  0.57415  0.95850  1.0000
  H   H917      1.0  0.46694  0.47344  0.89523  1.0000
  N   N55       1.0  0.48732  0.48930  0.89786  1.0000
  S   S251      1.0  0.62257  0.48081  0.77266  1.0000
  C   C580      1.0  0.41476  0.52098  0.94569  1.0000
  H   H918      1.0  0.46545  0.49296  0.91916  1.0000
  C   C581      1.0  0.50019  0.50013  0.88606  1.0000
  H   H919      1.0  0.48799  0.46609  0.91793  1.0000
  H   H920      1.0  0.46695  0.51165  0.90184  1.0000
  C   C582      1.0  0.47504  0.50076  0.90973  1.0000
  H   H921      1.0  0.38697  0.56778  0.93833  1.0000
  H   H922      1.0  0.41835  0.63059  0.95744  1.0000
  H   H923      1.0  0.48258  0.50723  0.91778  1.0000
  H   H924      1.0  0.36195  0.49526  0.94170  1.0000
  C   C583      1.0  0.66591  0.46438  0.75079  1.0000
  H   H925      1.0  0.56774  0.55687  0.91212  1.0000
  H   H926      1.0  0.42234  0.50779  0.94771  1.0000
  H   H927      1.0  0.59184  0.48642  0.98208  1.0000
  N   N56       1.0  0.43393  0.60307  0.86252  1.0000
  C   C584      1.0  0.57588  0.58832  0.91799  1.0000
  H   H928      1.0  0.56315  0.62247  0.82568  1.0000
  H   H929      1.0  0.41279  0.61504  0.93267  1.0000
  C   C585      1.0  0.52233  0.63882  0.84632  1.0000
  C   C586      1.0  0.37071  0.47463  0.91519  1.0000
  H   H930      1.0  0.43637  0.60702  0.92955  1.0000
  C   C587      1.0  0.39928  0.54760  0.95754  1.0000
  H   H931      1.0  0.37834  0.48162  0.80326  1.0000
  H   H932      1.0  0.62777  0.53170  0.80367  1.0000
  H   H933      1.0  0.51702  0.41644  0.78781  1.0000
  C   C588      1.0  0.55921  0.41455  0.76453  1.0000
  C   C589      1.0  0.37712  0.50514  0.90800  1.0000
  C   C590      1.0  0.37356  0.54444  0.80111  1.0000
  C   C591      1.0  0.36329  0.54038  0.78875  1.0000
  C   C592      1.0  0.53134  0.63653  0.81486  1.0000
  C   C593      1.0  0.42319  0.60401  0.93707  1.0000
  C   C594      1.0  0.40898  0.53049  0.96040  1.0000
  H   H934      1.0  0.39442  0.55489  0.96880  1.0000
  H   H935      1.0  0.60983  0.57784  0.90416  1.0000
  C   C595      1.0  0.45033  0.58030  0.75591  1.0000
  H   H936      1.0  0.40531  0.59694  0.98089  1.0000
  H   H937      1.0  0.35014  0.53633  0.79346  1.0000
  H   H938      1.0  0.58412  0.57161  0.95009  1.0000
  H   H939      1.0  0.40263  0.50916  0.76519  1.0000
  H   H940      1.0  0.40161  0.58636  0.96264  1.0000
  H   H941      1.0  0.45594  0.61432  0.86893  1.0000
  H   H942      1.0  0.42830  0.61790  0.97606  1.0000
  N   N57       1.0  0.38123  0.48787  0.91935  1.0000
  H   H943      1.0  0.40115  0.48573  0.80217  1.0000
  C   C596      1.0  0.57425  0.55654  0.92426  1.0000
  H   H944      1.0  0.40994  0.59125  0.86257  1.0000
  H   H945      1.0  0.44810  0.59673  0.88541  1.0000
  H   H946      1.0  0.41614  0.60230  0.78189  1.0000
  H   H947      1.0  0.45615  0.56947  0.79032  1.0000
  H   H948      1.0  0.44004  0.62549  0.84276  1.0000
  H   H949      1.0  0.36819  0.54369  0.81518  1.0000
  N   N58       1.0  0.53945  0.41525  0.76673  1.0000
  C   C597      1.0  0.40556  0.59873  0.96610  1.0000
  H   H950      1.0  0.44173  0.62168  0.95456  1.0000
  C   C598      1.0  0.53156  0.60976  0.83650  1.0000
  H   H951      1.0  0.39502  0.61004  0.96270  1.0000
  H   H952      1.0  0.62570  0.51776  0.77679  1.0000
  H   H953      1.0  0.58195  0.46965  0.97444  1.0000
  H   H954      1.0  0.42086  0.61557  0.83982  1.0000
  H   H955      1.0  0.50803  0.63805  0.84541  1.0000
  C   C599      1.0  0.41796  0.59504  0.87207  1.0000
  H   H956      1.0  0.45153  0.61394  0.76245  1.0000
  C   C600      1.0  0.42817  0.61879  0.96136  1.0000
  N   N59       1.0  0.42349  0.60214  0.95660  1.0000
  C   C601      1.0  0.40717  0.49448  0.76630  1.0000
  H   H957      1.0  0.50714  0.62932  0.95255  1.0000
  N   N60       1.0  0.58631  0.57048  0.92180  1.0000
  H   H958      1.0  0.45819  0.59539  0.84519  1.0000
  H   H959      1.0  0.41930  0.62936  0.85726  1.0000
  H   H960      1.0  0.53985  0.38670  0.76984  1.0000
  C   C602      1.0  0.43705  0.58696  0.96185  1.0000
  H   H961      1.0  0.38037  0.50367  0.89350  1.0000
  C   C603      1.0  0.60063  0.56742  0.90663  1.0000
  H   H962      1.0  0.51683  0.43234  0.75697  1.0000
  H   H963      1.0  0.59491  0.56752  0.89403  1.0000
  H   H964      1.0  0.51763  0.60834  0.83482  1.0000
  H   H965      1.0  0.43524  0.61859  0.88339  1.0000
  H   H966      1.0  0.42183  0.58268  0.88132  1.0000
  H   H967      1.0  0.45070  0.58901  0.95474  1.0000
  C   C604      1.0  0.62377  0.49610  0.99158  1.0000
  H   H968      1.0  0.43902  0.58556  0.84220  1.0000
  H   H969      1.0  0.45038  0.57759  0.86139  1.0000
  C   C605      1.0  0.44372  0.60839  0.87566  1.0000
  C   C606      1.0  0.51173  0.39521  0.98363  1.0000
  C   C607      1.0  0.44590  0.58984  0.85235  1.0000
  H   H970      1.0  0.37392  0.47262  0.90079  1.0000
  C   C608      1.0  0.47494  0.64793  0.79957  1.0000
  C   C609      1.0  0.37650  0.49040  0.93844  1.0000
  C   C610      1.0  0.39941  0.46484  0.77721  1.0000
  H   H971      1.0  0.54083  0.60171  0.82705  1.0000
  N   N61       1.0  0.53466  0.62875  0.83325  1.0000
  H   H972      1.0  0.40901  0.49065  0.91915  1.0000
  H   H973      1.0  0.35600  0.47904  0.91783  1.0000
  H   H974      1.0  0.38489  0.51548  0.91061  1.0000
  H   H975      1.0  0.53494  0.42833  0.79042  1.0000
  H   H976      1.0  0.41192  0.46103  0.78355  1.0000
  H   H977      1.0  0.38414  0.50047  0.94192  1.0000
  C   C611      1.0  0.49399  0.40349  0.98679  1.0000
  N   N62       1.0  0.44184  0.58861  0.77197  1.0000
  C   C612      1.0  0.55344  0.62985  0.83539  1.0000
  H   H978      1.0  0.41967  0.49179  0.77270  1.0000
  H   H979      1.0  0.53389  0.65075  0.81183  1.0000
  C   C613      1.0  0.66705  0.49339  0.75920  1.0000
  H   H980      1.0  0.46630  0.59812  0.77512  1.0000
  H   H981      1.0  0.37134  0.50306  0.76744  1.0000
  H   H982      1.0  0.43532  0.56340  0.78643  1.0000
  H   H983      1.0  0.47186  0.34827  0.77749  1.0000
  H   H984      1.0  0.49175  0.57504  0.98332  1.0000
  C   C614      1.0  0.48223  0.57115  0.99548  1.0000
  H   H985      1.0  0.56812  0.48921  0.98179  1.0000
  H   H986      1.0  0.41505  0.58566  0.76810  1.0000
  H   H987      1.0  0.47225  0.65737  0.78785  1.0000
  H   H988      1.0  0.56187  0.45091  0.99654  1.0000
  H   H989      1.0  0.43504  0.58038  0.80023  1.0000
  H   H990      1.0  0.46443  0.57421  0.75712  1.0000
  C   C615      1.0  0.47003  0.65310  0.81687  1.0000
  C   C616      1.0  0.53176  0.43122  0.75541  1.0000
  H   H991      1.0  0.52013  0.39954  0.76160  1.0000
  H   H992      1.0  0.55624  0.64399  0.83324  1.0000
  C   C617      1.0  0.45188  0.60313  0.77410  1.0000
  C   C618      1.0  0.47113  0.60186  0.99934  1.0000
  N   N63       1.0  0.47922  0.33585  0.75345  1.0000
  C   C619      1.0  0.57992  0.47913  0.98452  1.0000
  S   S252      1.0  0.35612  0.53778  0.75501  1.0000
  C   C620      1.0  0.48087  0.64483  0.99674  1.0000
  C   C621      1.0  0.49815  0.63535  0.99686  1.0000
  H   H993      1.0  0.44275  0.56971  0.75350  1.0000
  H   H994      1.0  0.61148  0.52178  0.99880  1.0000
  H   H995      1.0  0.51948  0.39128  0.99468  1.0000
  H   H996      1.0  0.49875  0.35269  0.75562  1.0000
  H   H997      1.0  0.45984  0.65625  0.98068  1.0000
  C   C622      1.0  0.49800  0.33966  0.75109  1.0000
  H   H998      1.0  0.59496  0.44597  0.99637  1.0000
  H   H999      1.0  0.39187  0.54867  0.75029  1.0000
  H   H1000     1.0  0.56521  0.41363  0.75033  1.0000
  H   H1001     1.0  0.43775  0.68913  0.12303  1.0000
  H   H1002     1.0  0.49707  0.69551  0.11558  1.0000
  H   H1003     1.0  0.49113  0.69918  0.14760  1.0000
  S   S253      1.0  0.48505  0.67539  0.17949  1.0000
  C   C623      1.0  0.49487  0.68397  0.12550  1.0000
  H   H1004     1.0  0.54333  0.66769  0.16900  1.0000
  H   H1005     1.0  0.41396  0.67749  0.11083  1.0000
  C   C624      1.0  0.49153  0.68606  0.14369  1.0000
  C   C625      1.0  0.44234  0.67512  0.12868  1.0000
  H   H1006     1.0  0.54861  0.66716  0.13613  1.0000
  H   H1007     1.0  0.43552  0.67276  0.14271  1.0000
  C   C626      1.0  0.48897  0.67138  0.15685  1.0000
  H   H1008     1.0  0.44413  0.67940  0.09288  1.0000
  H   H1009     1.0  0.45699  0.67422  0.12934  1.0000
  C   C627      1.0  0.49534  0.66723  0.12001  1.0000
  Fe  Fe129     1.0  0.52776  0.94421  0.34266  1.0000
  S   S254      1.0  0.51125  0.94398  0.36951  1.0000
  Fe  Fe130     1.0  0.52591  0.90398  0.34218  1.0000
  S   S255      1.0  0.50907  0.90112  0.36911  1.0000
  S   S256      1.0  0.53623  0.87933  0.32831  1.0000
  Fe  Fe131     1.0  0.49422  0.92757  0.35907  1.0000
  S   S257      1.0  0.46446  0.93485  0.36564  1.0000
  Fe  Fe132     1.0  0.52767  0.91776  0.37688  1.0000
  S   S258      1.0  0.53626  0.91346  0.40413  1.0000
  S   S259      1.0  0.50950  0.92948  0.33128  1.0000
  S   S260      1.0  0.54584  0.91898  0.35073  1.0000
  Fe  Fe133     1.0  0.39034  0.91370  0.46547  1.0000
  S   S261      1.0  0.41565  0.90993  0.47797  1.0000
  Fe  Fe134     1.0  0.38394  0.95458  0.46870  1.0000
  H   H1010     1.0  0.57962  0.72138  0.46731  1.0000
  Fe  Fe135     1.0  0.42192  0.93541  0.46096  1.0000
  S   S262      1.0  0.45091  0.93574  0.44921  1.0000
  C   C628      1.0  0.48502  0.97491  0.33707  1.0000
  S   S263      1.0  0.39774  0.93840  0.44681  1.0000
  H   H1011     1.0  0.44419  0.88856  0.42806  1.0000
  Fe  Fe136     1.0  0.61657  0.93076  0.43134  1.0000
  S   S264      1.0  0.64169  0.92640  0.44438  1.0000
  S   S265      1.0  0.61512  0.93063  0.40220  1.0000
  Fe  Fe137     1.0  0.59190  0.92975  0.46631  1.0000
  S   S266      1.0  0.61491  0.92481  0.48237  1.0000
  S   S267      1.0  0.56238  0.93348  0.47658  1.0000
  Fe  Fe138     1.0  0.62641  0.94650  0.46212  1.0000
  S   S268      1.0  0.63553  0.96882  0.47396  1.0000
  Fe  Fe139     1.0  0.62777  0.90525  0.46323  1.0000
  S   S269      1.0  0.64189  0.87709  0.47095  1.0000
  S   S270      1.0  0.60253  0.95241  0.44732  1.0000
  S   S271      1.0  0.60373  0.90861  0.44908  1.0000
  Fe  Fe140     1.0  0.37225  0.78661  0.47511  1.0000
  S   S272      1.0  0.40139  0.77903  0.46549  1.0000
  H   H1012     1.0  0.55518  0.73808  0.32307  1.0000
  S   S273      1.0  0.39166  0.73910  0.46201  1.0000
  Fe  Fe141     1.0  0.39876  0.75312  0.48341  1.0000
  Fe  Fe142     1.0  0.39144  0.76603  0.44515  1.0000
  S   S274      1.0  0.40357  0.77220  0.41618  1.0000
  Fe  Fe143     1.0  0.50299  0.78359  0.34144  1.0000
  S   S275      1.0  0.51159  0.76857  0.36706  1.0000
  S   S276      1.0  0.49187  0.81286  0.34205  1.0000
  Fe  Fe144     1.0  0.50947  0.74932  0.32264  1.0000
  S   S277      1.0  0.51922  0.73220  0.34685  1.0000
  S   S278      1.0  0.50735  0.73942  0.29609  1.0000
  Fe  Fe145     1.0  0.49583  0.74753  0.36250  1.0000
  S   S279      1.0  0.47857  0.73215  0.38454  1.0000
  Fe  Fe146     1.0  0.53404  0.75495  0.34924  1.0000
  S   S280      1.0  0.56311  0.75293  0.35361  1.0000
  S   S281      1.0  0.48524  0.76348  0.33825  1.0000
  S   S282      1.0  0.52636  0.77114  0.32361  1.0000
  Fe  Fe147     1.0  0.63132  0.77970  0.44620  1.0000
  S   S283      1.0  0.63317  0.75859  0.42782  1.0000
  S   S284      1.0  0.63393  0.80906  0.43542  1.0000
  Fe  Fe148     1.0  0.61689  0.75515  0.47879  1.0000
  S   S285      1.0  0.61771  0.73234  0.46329  1.0000
  C   C629      1.0  0.51910  0.93039  0.45214  1.0000
  Fe  Fe149     1.0  0.64504  0.73904  0.44996  1.0000
  C   C630      1.0  0.55670  0.99166  0.37881  1.0000
  Fe  Fe150     1.0  0.60609  0.75299  0.44233  1.0000
  S   S286      1.0  0.58004  0.74849  0.43345  1.0000
  S   S287      1.0  0.64507  0.76071  0.46726  1.0000
  S   S288      1.0  0.60347  0.77531  0.45894  1.0000
  H   H1013     1.0  0.44339  0.72778  0.36625  1.0000
  H   H1014     1.0  0.47036  0.70582  0.36204  1.0000
  H   H1015     1.0  0.57349  0.72036  0.32388  1.0000
  H   H1016     1.0  0.43369  0.74009  0.34719  1.0000
  H   H1017     1.0  0.48757  0.94730  0.44299  1.0000
  H   H1018     1.0  0.46737  0.71850  0.31318  1.0000
  H   H1019     1.0  0.45917  0.99859  0.30673  1.0000
  C   C631      1.0  0.56788  0.75145  0.37581  1.0000
  C   C632      1.0  0.55478  0.74792  0.39050  1.0000
  C   C633      1.0  0.55879  0.74705  0.40803  1.0000
  C   C634      1.0  0.57589  0.74971  0.41108  1.0000
  C   C635      1.0  0.58900  0.75329  0.39639  1.0000
  C   C636      1.0  0.58500  0.75409  0.37882  1.0000
  H   H1020     1.0  0.54159  0.74572  0.38838  1.0000
  H   H1021     1.0  0.54858  0.74424  0.41930  1.0000
  H   H1022     1.0  0.60224  0.75530  0.39858  1.0000
  H   H1023     1.0  0.59524  0.75677  0.36753  1.0000
  C   C637      1.0  0.42493  0.76138  0.40832  1.0000
  C   C638      1.0  0.43467  0.76919  0.39261  1.0000
  C   C639      1.0  0.45145  0.76064  0.38560  1.0000
  C   C640      1.0  0.45835  0.74393  0.39397  1.0000
  C   C641      1.0  0.44862  0.73608  0.40966  1.0000
  C   C642      1.0  0.43206  0.74488  0.41696  1.0000
  H   H1024     1.0  0.42924  0.78197  0.38590  1.0000
  H   H1025     1.0  0.45887  0.76690  0.37360  1.0000
  H   H1026     1.0  0.45389  0.72316  0.41620  1.0000
  H   H1027     1.0  0.42461  0.73873  0.42902  1.0000
  H   H1028     1.0  0.44394  0.79755  0.49095  1.0000
  C   C643      1.0  0.50554  0.70249  0.30088  1.0000
  C   C644      1.0  0.50559  0.71849  0.28906  1.0000
  C   C645      1.0  0.53604  0.71386  0.47865  1.0000
  H   H1029     1.0  0.56382  0.75154  0.28257  1.0000
  H   H1030     1.0  0.50657  0.70254  0.31484  1.0000
  C   C646      1.0  0.59458  0.80579  0.49298  1.0000
  C   C647      1.0  0.41839  0.87539  0.41553  1.0000
  H   H1031     1.0  0.50015  0.87445  0.34625  1.0000
  H   H1032     1.0  0.33977  0.72235  0.44460  1.0000
  H   H1033     1.0  0.62588  0.88733  0.42320  1.0000
  C   C648      1.0  0.63810  0.85761  0.46274  1.0000
  C   C649      1.0  0.65032  0.84191  0.46513  1.0000
  C   C650      1.0  0.64849  0.82652  0.45781  1.0000
  C   C651      1.0  0.63426  0.82655  0.44817  1.0000
  C   C652      1.0  0.62167  0.84204  0.44631  1.0000
  C   C653      1.0  0.62352  0.85746  0.45361  1.0000
  H   H1034     1.0  0.66164  0.84185  0.47217  1.0000
  H   H1035     1.0  0.63933  0.90201  0.38460  1.0000
  H   H1036     1.0  0.61069  0.84228  0.43875  1.0000
  H   H1037     1.0  0.61376  0.86927  0.45199  1.0000
  C   C654      1.0  0.38225  0.85465  0.45180  1.0000
  C   C655      1.0  0.37768  0.83752  0.45912  1.0000
  H   H1038     1.0  0.57682  0.74186  0.31132  1.0000
  H   H1039     1.0  0.38707  0.85723  0.43767  1.0000
  H   H1040     1.0  0.37916  0.82709  0.45065  1.0000
  C   C656      1.0  0.46059  0.93607  0.38871  1.0000
  C   C657      1.0  0.44392  0.94359  0.39683  1.0000
  C   C658      1.0  0.44089  0.94386  0.41546  1.0000
  C   C659      1.0  0.45450  0.93656  0.42589  1.0000
  C   C660      1.0  0.47122  0.92938  0.41769  1.0000
  C   C661      1.0  0.47421  0.92907  0.39919  1.0000
  H   H1041     1.0  0.43338  0.94918  0.38876  1.0000
  H   H1042     1.0  0.42808  0.94983  0.42171  1.0000
  H   H1043     1.0  0.48179  0.92361  0.42563  1.0000
  H   H1044     1.0  0.48700  0.92297  0.39320  1.0000
  C   C662      1.0  0.55838  0.91770  0.40323  1.0000
  C   C663      1.0  0.57145  0.91423  0.38860  1.0000
  C   C664      1.0  0.58894  0.91839  0.38800  1.0000
  C   C665      1.0  0.59330  0.92588  0.40212  1.0000
  C   C666      1.0  0.58012  0.92952  0.41654  1.0000
  C   C667      1.0  0.56281  0.92524  0.41721  1.0000
  H   H1045     1.0  0.56819  0.90798  0.37796  1.0000
  H   H1046     1.0  0.59907  0.91556  0.37678  1.0000
  H   H1047     1.0  0.58315  0.93573  0.42727  1.0000
  H   H1048     1.0  0.55283  0.92796  0.42854  1.0000
  C   C668      1.0  0.52381  0.86090  0.33216  1.0000
  C   C669      1.0  0.53158  0.84473  0.32575  1.0000
  C   C670      1.0  0.52201  0.82985  0.32865  1.0000
  C   C671      1.0  0.50450  0.83110  0.33785  1.0000
  C   C672      1.0  0.49673  0.84728  0.34413  1.0000
  C   C673      1.0  0.50636  0.86206  0.34142  1.0000
  H   H1049     1.0  0.54501  0.84379  0.31842  1.0000
  H   H1050     1.0  0.52802  0.81754  0.32353  1.0000
  H   H1051     1.0  0.48316  0.84839  0.35115  1.0000
  H   H1052     1.0  0.48150  0.98389  0.34765  1.0000
  C   C674      1.0  0.63446  0.99811  0.44696  1.0000
  H   H1053     1.0  0.41297  0.89716  0.38480  1.0000
  N   N64       1.0  0.45608  0.72002  0.34076  1.0000
  H   H1054     1.0  0.54024  0.79859  0.40341  1.0000
  S   S289      1.0  0.53874  0.96994  0.32944  1.0000
  H   H1055     1.0  0.54993  0.98881  0.39280  1.0000
  H   H1056     1.0  0.40004  0.90764  0.41481  1.0000
  H   H1057     1.0  0.48434  0.97860  0.29222  1.0000
  H   H1058     1.0  0.65857  0.81487  0.45895  1.0000
  H   H1059     1.0  0.41861  0.92034  0.41054  1.0000
  H   H1060     1.0  0.43167  0.71159  0.33617  1.0000
  H   H1061     1.0  0.62560  0.78308  0.49676  1.0000
  C   C675      1.0  0.38022  0.86850  0.46251  1.0000
  H   H1062     1.0  0.56620  0.94881  0.36943  1.0000
  Fe  Fe151     1.0  0.36268  0.74849  0.47205  1.0000
  C   C676      1.0  0.55092  0.80122  0.35815  1.0000
  H   H1063     1.0  0.47701  0.96355  0.34121  1.0000
  H   H1064     1.0  0.63844  0.80011  0.49941  1.0000
  H   H1065     1.0  0.40446  0.87608  0.41236  1.0000
  H   H1066     1.0  0.49940  0.96926  0.33695  1.0000
  H   H1067     1.0  0.54509  0.74348  0.45708  1.0000
  H   H1068     1.0  0.43504  0.88455  0.38230  1.0000
  H   H1069     1.0  0.61452  0.83262  0.48493  1.0000
  H   H1070     1.0  0.49812  0.96232  0.45264  1.0000
  C   C677      1.0  0.61209  0.82729  0.49939  1.0000
  H   H1071     1.0  0.55946  0.74945  0.47097  1.0000
  H   H1072     1.0  0.53268  0.71467  0.46482  1.0000
  H   H1073     1.0  0.50040  0.90729  0.47540  1.0000
  S   S290      1.0  0.37415  0.93017  0.48624  1.0000
  S   S291      1.0  0.66561  0.71457  0.44295  1.0000
  H   H1074     1.0  0.50710  0.99461  0.31300  1.0000
  C   C678      1.0  0.42664  0.89568  0.38881  1.0000
  H   H1075     1.0  0.42666  0.86376  0.40980  1.0000
  C   C679      1.0  0.56724  0.73177  0.31493  1.0000
  H   H1076     1.0  0.57560  0.71297  0.27635  1.0000
  H   H1077     1.0  0.58890  0.72697  0.28417  1.0000
  C   C680      1.0  0.57880  0.71747  0.28857  1.0000
  N   N65       1.0  0.56245  0.72592  0.29889  1.0000
  S   S292      1.0  0.34209  0.72821  0.48171  1.0000
  H   H1078     1.0  0.48202  0.72219  0.34737  1.0000
  H   H1079     1.0  0.54961  0.73763  0.27577  1.0000
  C   C681      1.0  0.55426  0.74161  0.28756  1.0000
  S   S293      1.0  0.36196  0.77500  0.45374  1.0000
  H   H1080     1.0  0.58529  0.70556  0.29672  1.0000
  H   H1081     1.0  0.54226  0.74867  0.29512  1.0000
  N   N66       1.0  0.48163  0.98448  0.31930  1.0000
  C   C682      1.0  0.44456  0.70594  0.34132  1.0000
  C   C683      1.0  0.50427  0.68629  0.29457  1.0000
  H   H1082     1.0  0.52677  0.83056  0.36473  1.0000
  H   H1083     1.0  0.52151  0.82350  0.38821  1.0000
  H   H1084     1.0  0.64982  0.85242  0.39575  1.0000
  H   H1085     1.0  0.53705  0.71875  0.31243  1.0000
  C   C684      1.0  0.54949  0.71283  0.30451  1.0000
  H   H1086     1.0  0.54527  0.70836  0.29275  1.0000
  H   H1087     1.0  0.59085  0.98150  0.38451  1.0000
  C   C685      1.0  0.52681  0.81860  0.37515  1.0000
  H   H1088     1.0  0.51706  0.81022  0.37226  1.0000
  H   H1089     1.0  0.45133  0.69541  0.33300  1.0000
  H   H1090     1.0  0.55818  0.83204  0.36655  1.0000
  H   H1091     1.0  0.55520  0.70075  0.31300  1.0000
  C   C686      1.0  0.55768  0.82064  0.37764  1.0000
  H   H1092     1.0  0.57157  0.81346  0.37780  1.0000
  H   H1093     1.0  0.44120  0.69928  0.35527  1.0000
  H   H1094     1.0  0.50131  0.96648  0.30507  1.0000
  H   H1095     1.0  0.56662  0.98375  0.34509  1.0000
  H   H1096     1.0  0.59265  0.79145  0.49450  1.0000
  H   H1097     1.0  0.45025  0.90341  0.40818  1.0000
  H   H1098     1.0  0.48876  0.91530  0.45631  1.0000
  N   N67       1.0  0.54503  0.80853  0.37530  1.0000
  H   H1099     1.0  0.55363  0.82643  0.39044  1.0000
  C   C687      1.0  0.50309  0.68575  0.27637  1.0000
  H   H1100     1.0  0.41489  0.90585  0.43123  1.0000
  H   H1101     1.0  0.53553  0.78413  0.38873  1.0000
  H   H1102     1.0  0.55177  0.81209  0.34661  1.0000
  H   H1103     1.0  0.64222  0.90251  0.41630  1.0000
  H   H1104     1.0  0.40888  0.81288  0.47522  1.0000
  H   H1105     1.0  0.44789  0.73494  0.31634  1.0000
  H   H1106     1.0  0.54660  0.96453  0.36624  1.0000
  C   C688      1.0  0.54476  0.79366  0.39024  1.0000
  H   H1107     1.0  0.46921  0.73897  0.32100  1.0000
  C   C689      1.0  0.47296  0.71194  0.34777  1.0000
  H   H1108     1.0  0.48041  0.70138  0.33986  1.0000
  C   C690      1.0  0.46028  0.72846  0.32203  1.0000
  C   C691      1.0  0.50445  0.71797  0.27088  1.0000
  H   H1109     1.0  0.55836  0.78590  0.39087  1.0000
  H   H1110     1.0  0.54141  0.79241  0.35566  1.0000
  H   H1111     1.0  0.56436  0.79298  0.35804  1.0000
  C   C692      1.0  0.49238  0.91913  0.46866  1.0000
  H   H1112     1.0  0.50228  0.70167  0.25057  1.0000
  H   H1113     1.0  0.45483  0.74447  0.35196  1.0000
  C   C693      1.0  0.44654  0.73367  0.35197  1.0000
  N   N68       1.0  0.50242  0.93474  0.46442  1.0000
  S   S294      1.0  0.38554  0.89004  0.45229  1.0000
  H   H1114     1.0  0.37825  0.72230  0.49571  1.0000
  H   H1115     1.0  0.37209  0.70047  0.49730  1.0000
  H   H1116     1.0  0.42831  0.82380  0.47483  1.0000
  C   C694      1.0  0.50321  0.70176  0.26457  1.0000
  H   H1117     1.0  0.51193  0.98180  0.35895  1.0000
  H   H1118     1.0  0.63487  0.98862  0.43769  1.0000
  H   H1119     1.0  0.53594  0.74895  0.47911  1.0000
  H   H1120     1.0  0.53854  0.69945  0.48414  1.0000
  N   N69       1.0  0.64727  0.87894  0.40312  1.0000
  H   H1121     1.0  0.55190  0.95667  0.38846  1.0000
  C   C695      1.0  0.63423  0.99198  0.46528  1.0000
  H   H1122     1.0  0.45382  0.98041  0.32388  1.0000
  S   S295      1.0  0.36411  0.81291  0.48696  1.0000
  C   C696      1.0  0.54784  0.74208  0.47119  1.0000
  H   H1123     1.0  0.50424  0.67401  0.30383  1.0000
  H   H1124     1.0  0.51602  0.92815  0.48780  1.0000
  H   H1125     1.0  0.62266  0.88728  0.39179  1.0000
  Fe  Fe152     1.0  0.40036  0.92801  0.49714  1.0000
  C   C697      1.0  0.44425  0.89088  0.41326  1.0000
  H   H1126     1.0  0.58177  0.81324  0.49874  1.0000
  N   N70       1.0  0.56855  0.97572  0.37308  1.0000
  C   C698      1.0  0.37056  0.83413  0.47719  1.0000
  C   C699      1.0  0.51762  0.99325  0.35141  1.0000
  C   C700      1.0  0.41439  0.90719  0.41656  1.0000
  C   C701      1.0  0.55564  0.72185  0.49732  1.0000
  C   C702      1.0  0.37361  0.86495  0.48071  1.0000
  H   H1127     1.0  0.47823  0.95356  0.46452  1.0000
  N   N71       1.0  0.55178  0.72307  0.47872  1.0000
  H   H1128     1.0  0.51618  0.92687  0.43933  1.0000
  H   H1129     1.0  0.43504  0.92951  0.49808  1.0000
  C   C703      1.0  0.49114  0.95019  0.45577  1.0000
  H   H1130     1.0  0.46211  0.94377  0.49753  1.0000
  H   H1131     1.0  0.51435  0.95126  0.47836  1.0000
  H   H1132     1.0  0.42554  0.78504  0.49188  1.0000
  H   H1133     1.0  0.54360  0.76971  0.49635  1.0000
  H   H1134     1.0  0.40649  0.83367  0.48397  1.0000
  C   C704      1.0  0.49244  0.99951  0.31441  1.0000
  C   C705      1.0  0.50709  0.93931  0.48111  1.0000
  C   C706      1.0  0.62640  0.79771  0.49398  1.0000
  H   H1135     1.0  0.64760  0.88204  0.43067  1.0000
  H   H1136     1.0  0.52800  0.91883  0.45827  1.0000
  H   H1137     1.0  0.57657  0.76610  0.48765  1.0000
  H   H1138     1.0  0.62877  0.80117  0.47917  1.0000
  H   H1139     1.0  0.57109  0.70021  0.47294  1.0000
  H   H1140     1.0  0.57706  0.96653  0.39896  1.0000
  S   S296      1.0  0.40878  0.95334  0.48116  1.0000
  H   H1141     1.0  0.45337  0.87976  0.40743  1.0000
  C   C707      1.0  0.53130  0.99104  0.33701  1.0000
  H   H1142     1.0  0.37178  0.87549  0.48909  1.0000
  C   C708      1.0  0.43090  0.79451  0.49881  1.0000
  H   H1143     1.0  0.58598  0.96820  0.34961  1.0000
  C   C709      1.0  0.55785  0.96080  0.37439  1.0000
  H   H1144     1.0  0.43259  0.90820  0.38312  1.0000
  H   H1145     1.0  0.59228  0.95879  0.38044  1.0000
  S   S297      1.0  0.36690  0.98150  0.46233  1.0000
  H   H1146     1.0  0.60020  0.96540  0.49093  1.0000
  H   H1147     1.0  0.47953  0.92212  0.47760  1.0000
  H   H1148     1.0  0.50445  0.73021  0.26156  1.0000
  H   H1149     1.0  0.59889  0.99616  0.49659  1.0000
  H   H1150     1.0  0.41755  0.87261  0.43040  1.0000
  H   H1151     1.0  0.52705  0.94185  0.44878  1.0000
  H   H1152     1.0  0.58494  0.99128  0.35277  1.0000
  N   N72       1.0  0.42592  0.89227  0.40852  1.0000
  C   C710      1.0  0.64451  0.85989  0.40731  1.0000
  H   H1153     1.0  0.56521  0.71535  0.45350  1.0000
  H   H1154     1.0  0.53380  0.95093  0.49938  1.0000
  H   H1155     1.0  0.65137  0.85304  0.41889  1.0000
  C   C711      1.0  0.46233  0.99144  0.31997  1.0000
  C   C712      1.0  0.41538  0.82074  0.48292  1.0000
  C   C713      1.0  0.57692  0.97995  0.35433  1.0000
  H   H1156     1.0  0.64191  0.88096  0.37594  1.0000
  S   S298      1.0  0.37017  0.76119  0.49440  1.0000
  H   H1157     1.0  0.49491  0.94238  0.49091  1.0000
  H   H1158     1.0  0.39343  0.99810  0.47713  1.0000
  H   H1159     1.0  0.62999  0.85841  0.41085  1.0000
  C   C714      1.0  0.36860  0.84793  0.48794  1.0000
  C   C715      1.0  0.63741  0.88763  0.38815  1.0000
  C   C716      1.0  0.56758  0.71455  0.46768  1.0000
  H   H1160     1.0  0.56778  0.72819  0.49780  1.0000
  C   C717      1.0  0.66666  0.88027  0.39808  1.0000
  C   C718      1.0  0.48677  0.97193  0.30584  1.0000
  C   C719      1.0  0.64047  0.88807  0.41904  1.0000
  H   H1161     1.0  0.47904  0.96027  0.30926  1.0000
  H   H1162     1.0  0.54602  0.99622  0.37005  1.0000
  C   C720      1.0  0.58278  0.97044  0.38477  1.0000
  H   H1163     1.0  0.52394  0.71998  0.48696  1.0000
  H   H1164     1.0  0.59688  0.81059  0.47833  1.0000
  C   C721      1.0  0.55873  0.93328  0.49984  1.0000
  S   S299      1.0  0.40552  0.92282  0.52572  1.0000
  Fe  Fe153     1.0  0.48653  0.95029  0.55175  1.0000
  S   S300      1.0  0.46956  0.94848  0.57861  1.0000
  S   S301      1.0  0.47663  0.95613  0.52501  1.0000
  Fe  Fe154     1.0  0.52088  0.94239  0.56777  1.0000
  S   S302      1.0  0.50685  0.93999  0.59611  1.0000
  S   S303      1.0  0.55065  0.93771  0.55950  1.0000
  Fe  Fe155     1.0  0.48892  0.92381  0.58600  1.0000
  S   S304      1.0  0.47777  0.89830  0.60050  1.0000
  Fe  Fe156     1.0  0.48899  0.96483  0.58589  1.0000
  H   H1165     1.0  0.38959  0.68432  0.53052  1.0000
  S   S305      1.0  0.50430  0.92468  0.55839  1.0000
  S   S306      1.0  0.50450  0.96824  0.55846  1.0000
  N   N73       1.0  0.45331  0.88535  0.55304  1.0000
  Fe  Fe157     1.0  0.49431  0.79233  0.58227  1.0000
  S   S307      1.0  0.51543  0.76804  0.58131  1.0000
  S   S308      1.0  0.50569  0.81770  0.58550  1.0000
  Fe  Fe158     1.0  0.46645  0.77173  0.57235  1.0000
  S   S309      1.0  0.48557  0.74633  0.57074  1.0000
  S   S310      1.0  0.43787  0.77499  0.56565  1.0000
  Fe  Fe159     1.0  0.49385  0.75179  0.59638  1.0000
  S   S311      1.0  0.50277  0.72833  0.61763  1.0000
  Fe  Fe160     1.0  0.50555  0.76438  0.55617  1.0000
  S   S312      1.0  0.52147  0.76004  0.52903  1.0000
  S   S313      1.0  0.47332  0.77639  0.59907  1.0000
  S   S314      1.0  0.48578  0.78945  0.55611  1.0000
  H   H1166     1.0  0.41912  0.93640  0.55344  1.0000
  C   C722      1.0  0.54487  0.76058  0.52431  1.0000
  C   C723      1.0  0.55626  0.75506  0.53743  1.0000
  H   H1167     1.0  0.38017  0.72077  0.54433  1.0000
  H   H1168     1.0  0.45078  0.89263  0.57957  1.0000
  H   H1169     1.0  0.40789  0.67144  0.67885  1.0000
  H   H1170     1.0  0.55060  0.75154  0.55124  1.0000
  H   H1171     1.0  0.37069  0.69057  0.54675  1.0000
  C   C724      1.0  0.49483  0.71640  0.63886  1.0000
  C   C725      1.0  0.50484  0.70014  0.64513  1.0000
  C   C726      1.0  0.49968  0.69053  0.66213  1.0000
  C   C727      1.0  0.48463  0.69729  0.67338  1.0000
  C   C728      1.0  0.47457  0.71354  0.66711  1.0000
  C   C729      1.0  0.47947  0.72291  0.64992  1.0000
  H   H1172     1.0  0.51674  0.69491  0.63677  1.0000
  H   H1173     1.0  0.46289  0.71894  0.67563  1.0000
  H   H1174     1.0  0.47152  0.73531  0.64536  1.0000
  C   C730      1.0  0.42474  0.74997  0.51883  1.0000
  C   C731      1.0  0.37535  0.69072  0.53215  1.0000
  C   C732      1.0  0.41549  0.76774  0.54340  1.0000
  C   C733      1.0  0.43308  0.76491  0.54781  1.0000
  C   C734      1.0  0.44644  0.75443  0.53774  1.0000
  C   C735      1.0  0.44222  0.74681  0.52348  1.0000
  S   S315      1.0  0.47830  0.98853  0.60119  1.0000
  H   H1175     1.0  0.46003  0.75211  0.54098  1.0000
  H   H1176     1.0  0.42749  0.81533  0.52471  1.0000
  H   H1177     1.0  0.52264  0.79624  0.62058  1.0000
  H   H1178     1.0  0.59471  0.94819  0.50887  1.0000
  H   H1179     1.0  0.41959  0.67282  0.65635  1.0000
  H   H1180     1.0  0.45913  0.88341  0.52482  1.0000
  H   H1181     1.0  0.49814  0.75327  0.65348  1.0000
  C   C736      1.0  0.43710  0.66827  0.69539  1.0000
  H   H1182     1.0  0.45533  0.90578  0.53037  1.0000
  C   C737      1.0  0.55362  0.93542  0.53670  1.0000
  C   C738      1.0  0.54079  0.94431  0.52601  1.0000
  H   H1183     1.0  0.39780  0.76290  0.52552  1.0000
  H   H1184     1.0  0.45613  0.86165  0.57227  1.0000
  H   H1185     1.0  0.46061  0.85763  0.54932  1.0000
  C   C739      1.0  0.56891  0.92516  0.52901  1.0000
  H   H1186     1.0  0.52898  0.95227  0.53180  1.0000
  C   C740      1.0  0.55236  0.76502  0.50645  1.0000
  H   H1187     1.0  0.52944  0.74792  0.63934  1.0000
  H   H1188     1.0  0.57874  0.91805  0.53731  1.0000
  C   C741      1.0  0.48529  0.87611  0.59539  1.0000
  C   C742      1.0  0.50164  0.87177  0.58471  1.0000
  C   C743      1.0  0.50742  0.85392  0.58153  1.0000
  C   C744      1.0  0.49673  0.84022  0.58846  1.0000
  C   C745      1.0  0.48010  0.84464  0.59868  1.0000
  C   C746      1.0  0.47454  0.86244  0.60229  1.0000
  H   H1189     1.0  0.51013  0.88207  0.57938  1.0000
  H   H1190     1.0  0.52042  0.85066  0.57381  1.0000
  H   H1191     1.0  0.47181  0.83426  0.60434  1.0000
  H   H1192     1.0  0.46189  0.86561  0.61062  1.0000
  C   C747      1.0  0.42509  0.93228  0.52572  1.0000
  C   C748      1.0  0.57107  0.76311  0.50152  1.0000
  C   C749      1.0  0.41136  0.76050  0.52884  1.0000
  C   C750      1.0  0.45660  0.94732  0.52541  1.0000
  C   C751      1.0  0.44444  0.94525  0.54117  1.0000
  C   C752      1.0  0.42865  0.93777  0.54132  1.0000
  H   H1193     1.0  0.48538  0.77519  0.65010  1.0000
  H   H1194     1.0  0.61748  0.80297  0.52839  1.0000
  H   H1195     1.0  0.44695  0.94973  0.55315  1.0000
  C   C753      1.0  0.43383  0.88509  0.55348  1.0000
  H   H1196     1.0  0.36723  0.68220  0.52694  1.0000
  C   C754      1.0  0.58932  0.99313  0.50899  1.0000
  C   C755      1.0  0.42522  0.82244  0.51116  1.0000
  H   H1197     1.0  0.42679  0.89873  0.54967  1.0000
  H   H1198     1.0  0.50892  0.78829  0.66101  1.0000
  H   H1199     1.0  0.59993  0.83552  0.50542  1.0000
  H   H1200     1.0  0.49982  0.80034  0.63117  1.0000
  H   H1201     1.0  0.45263  0.73858  0.51590  1.0000
  H   H1202     1.0  0.56581  0.97265  0.53002  1.0000
  C   C756      1.0  0.38452  0.72005  0.52981  1.0000
  H   H1203     1.0  0.44738  0.98780  0.53203  1.0000
  H   H1204     1.0  0.39023  0.81806  0.51111  1.0000
  H   H1205     1.0  0.62153  0.97303  0.50974  1.0000
  C   C757      1.0  0.46206  0.86707  0.55858  1.0000
  C   C758      1.0  0.35449  0.71714  0.52490  1.0000
  H   H1206     1.0  0.46526  0.99115  0.56430  1.0000
  H   H1207     1.0  0.38353  0.73402  0.52279  1.0000
  S   S316      1.0  0.60608  0.75377  0.50839  1.0000
  H   H1208     1.0  0.41571  0.83485  0.51310  1.0000
  H   H1209     1.0  0.43385  0.78726  0.51206  1.0000
  H   H1210     1.0  0.40504  0.77567  0.55126  1.0000
  H   H1211     1.0  0.59373  0.80914  0.52771  1.0000
  H   H1212     1.0  0.52315  0.75694  0.61788  1.0000
  H   H1213     1.0  0.58292  0.91562  0.50475  1.0000
  C   C759      1.0  0.49629  0.76573  0.64381  1.0000
  H   H1214     1.0  0.50762  0.67811  0.66667  1.0000
  S   S317      1.0  0.47786  0.68625  0.69540  1.0000
  C   C760      1.0  0.57133  0.92388  0.51059  1.0000
  H   H1215     1.0  0.34910  0.71769  0.53926  1.0000
  H   H1216     1.0  0.53188  0.78462  0.65074  1.0000
  H   H1217     1.0  0.50528  0.78693  0.61334  1.0000
  H   H1218     1.0  0.35266  0.73106  0.51777  1.0000
  N   N74       1.0  0.51319  0.77371  0.63842  1.0000
  H   H1219     1.0  0.49144  0.76195  0.63205  1.0000
  C   C761      1.0  0.45290  0.94204  0.50979  1.0000
  H   H1220     1.0  0.43114  0.87643  0.54400  1.0000
  H   H1221     1.0  0.47670  0.86689  0.55890  1.0000
  C   C762      1.0  0.58251  0.75700  0.51447  1.0000
  C   C763      1.0  0.37993  0.70867  0.50329  1.0000
  C   C764      1.0  0.52715  0.76063  0.63009  1.0000
  H   H1222     1.0  0.54018  0.76606  0.62599  1.0000
  H   H1223     1.0  0.45354  0.68457  0.66458  1.0000
  C   C765      1.0  0.51012  0.79000  0.62539  1.0000
  C   C766      1.0  0.61134  0.97049  0.52170  1.0000
  C   C767      1.0  0.57505  0.75335  0.53251  1.0000
  H   H1224     1.0  0.44918  0.91120  0.56214  1.0000
  H   H1225     1.0  0.58381  0.74869  0.54264  1.0000
  C   C768      1.0  0.51919  0.77847  0.65438  1.0000
  H   H1226     1.0  0.52168  0.76645  0.66445  1.0000
  H   H1227     1.0  0.44306  0.98552  0.56510  1.0000
  N   N75       1.0  0.37357  0.70915  0.52256  1.0000
  C   C769      1.0  0.46134  0.89188  0.53470  1.0000
  H   H1228     1.0  0.47058  0.89851  0.56496  1.0000
  C   C770      1.0  0.45606  0.89742  0.56546  1.0000
  H   H1229     1.0  0.42741  0.88013  0.56713  1.0000
  C   C771      1.0  0.43736  0.93422  0.51004  1.0000
  H   H1230     1.0  0.40181  0.79976  0.52440  1.0000
  C   C772      1.0  0.60615  0.80161  0.52126  1.0000
  H   H1231     1.0  0.60421  0.78718  0.52359  1.0000
  H   H1232     1.0  0.47607  0.89203  0.53393  1.0000
  C   C773      1.0  0.42039  0.67514  0.67025  1.0000
  H   H1233     1.0  0.45312  0.66719  0.65126  1.0000
  C   C774      1.0  0.54342  0.94339  0.50760  1.0000
  H   H1234     1.0  0.62375  0.82958  0.50555  1.0000
  H   H1235     1.0  0.34590  0.70946  0.51921  1.0000
  H   H1236     1.0  0.43774  0.68270  0.69579  1.0000
  H   H1237     1.0  0.61457  0.95624  0.52752  1.0000
  H   H1238     1.0  0.39905  0.71458  0.52800  1.0000
  H   H1239     1.0  0.42046  0.68977  0.67002  1.0000
  C   C775      1.0  0.45280  0.67001  0.66520  1.0000
  H   H1240     1.0  0.54423  0.72871  0.50592  1.0000
  C   C776      1.0  0.57987  0.97054  0.53316  1.0000
  H   H1241     1.0  0.61320  0.97906  0.53164  1.0000
  C   C777      1.0  0.40063  0.80610  0.51044  1.0000
  H   H1242     1.0  0.58243  0.95639  0.53957  1.0000
  N   N76       1.0  0.59291  0.97419  0.51689  1.0000
  N   N77       1.0  0.60981  0.80811  0.50191  1.0000
  C   C778      1.0  0.45096  0.99693  0.56375  1.0000
  H   H1243     1.0  0.58054  0.97928  0.54336  1.0000
  H   H1244     1.0  0.46951  0.99361  0.53107  1.0000
  H   H1245     1.0  0.55816  0.70770  0.50362  1.0000
  H   H1246     1.0  0.39532  0.79651  0.50364  1.0000
  H   H1247     1.0  0.36300  0.84552  0.50191  1.0000
  C   C779      1.0  0.59114  0.96252  0.50369  1.0000
  N   N78       1.0  0.41804  0.81094  0.50082  1.0000
  H   H1248     1.0  0.43829  0.82647  0.50422  1.0000
  C   C780      1.0  0.45507  0.99926  0.53147  1.0000
  H   H1249     1.0  0.57550  0.99636  0.50527  1.0000
  H   H1250     1.0  0.39444  0.70332  0.50081  1.0000
  H   H1251     1.0  0.57718  0.96425  0.50035  1.0000
  S   S318      1.0  0.42002  0.74001  0.50088  1.0000
  H   H1252     1.0  0.46348  0.66654  0.81831  1.0000
  C   C781      1.0  0.70457  0.32629  0.46450  1.0000
  H   H1253     1.0  0.72212  0.21865  0.45469  1.0000
  H   H1254     1.0  0.71782  0.32945  0.45871  1.0000
  H   H1255     1.0  0.68028  0.23343  0.43364  1.0000
  H   H1256     1.0  0.68484  0.24917  0.47620  1.0000
  H   H1257     1.0  0.70351  0.25642  0.46111  1.0000
  H   H1258     1.0  0.71100  0.21714  0.43593  1.0000
  C   C782      1.0  0.69769  0.31197  0.45919  1.0000
  C   C783      1.0  0.68054  0.30731  0.46668  1.0000
  C   C784      1.0  0.71261  0.22615  0.44559  1.0000
  H   H1259     1.0  0.68844  0.25412  0.43536  1.0000
  H   H1260     1.0  0.71899  0.23769  0.43780  1.0000
  H   H1261     1.0  0.70579  0.30433  0.44928  1.0000
  C   C785      1.0  0.67035  0.31736  0.47954  1.0000
  C   C786      1.0  0.69779  0.24425  0.46834  1.0000
  C   C787      1.0  0.68297  0.24207  0.44317  1.0000
  H   H1262     1.0  0.70694  0.23740  0.47806  1.0000
  N   N79       1.0  0.69512  0.23225  0.45577  1.0000
  H   H1263     1.0  0.69578  0.20876  0.47556  1.0000
  C   C788      1.0  0.68706  0.21656  0.46587  1.0000
  S   S319      1.0  0.67272  0.28885  0.45951  1.0000
  C   C789      1.0  0.67724  0.33166  0.48487  1.0000
  H   H1264     1.0  0.68463  0.20735  0.45674  1.0000
  H   H1265     1.0  0.67375  0.22064  0.47357  1.0000
  H   H1266     1.0  0.66981  0.24686  0.45052  1.0000
  C   C790      1.0  0.67378  0.46235  0.23777  1.0000
  S   S320      1.0  0.67519  0.51320  0.24373  1.0000
  H   H1267     1.0  0.68585  0.45431  0.23133  1.0000
  H   H1268     1.0  0.67560  0.47673  0.23384  1.0000
  Fe  Fe161     1.0  0.95441  0.59668  0.47448  1.0000
  S   S321      1.0  0.94214  0.62512  0.47614  1.0000
  H   H1269     1.0  0.96113  0.54918  0.35121  1.0000
  Fe  Fe162     1.0  0.95467  0.60017  0.43511  1.0000
  S   S322      1.0  0.94306  0.62903  0.43280  1.0000
  S   S323      1.0  0.96220  0.58528  0.41147  1.0000
  Fe  Fe163     1.0  0.96208  0.63141  0.45177  1.0000
  Fe  Fe164     1.0  0.92380  0.62064  0.45719  1.0000
  H   H1270     1.0  0.75331  0.45192  0.44268  1.0000
  S   S324      1.0  0.97563  0.60330  0.45158  1.0000
  S   S325      1.0  0.93415  0.59130  0.45810  1.0000
  Fe  Fe165     1.0  0.88714  0.45203  0.47851  1.0000
  S   S326      1.0  0.89937  0.43641  0.45601  1.0000
  S   S327      1.0  0.87770  0.48136  0.47268  1.0000
  C   C791      1.0  0.99005  0.54900  0.34681  1.0000
  S   S328      1.0  0.70198  0.35498  0.48443  1.0000
  Fe  Fe166     1.0  0.92146  0.42615  0.47297  1.0000
  S   S329      1.0  0.95035  0.42733  0.45937  1.0000
  Fe  Fe167     1.0  0.88390  0.41475  0.47146  1.0000
  S   S330      1.0  0.86886  0.39789  0.45827  1.0000
  H   H1271     1.0  0.98924  0.56303  0.34815  1.0000
  H   H1272     1.0  0.99693  0.58139  0.39050  1.0000
  Fe  Fe168     1.0  0.89600  0.54838  0.37315  1.0000
  S   S331      1.0  0.91057  0.55022  0.34507  1.0000
  S   S332      1.0  0.88977  0.57155  0.38882  1.0000
  Fe  Fe169     1.0  0.89065  0.51012  0.37459  1.0000
  S   S333      1.0  0.90507  0.50837  0.34683  1.0000
  S   S334      1.0  0.87683  0.48733  0.38968  1.0000
  Fe  Fe170     1.0  0.92551  0.52340  0.35456  1.0000
  S   S335      1.0  0.95529  0.51271  0.34722  1.0000
  Fe  Fe171     1.0  0.88895  0.53505  0.34004  1.0000
  S   S336      1.0  0.87594  0.54137  0.31470  1.0000
  S   S337      1.0  0.91222  0.52263  0.38316  1.0000
  S   S338      1.0  0.87325  0.53576  0.36726  1.0000
  Fe  Fe172     1.0  0.75960  0.49710  0.35567  1.0000
  S   S339      1.0  0.76136  0.49869  0.32567  1.0000
  S   S340      1.0  0.77290  0.47417  0.37381  1.0000
  Fe  Fe173     1.0  0.74407  0.53630  0.35569  1.0000
  S   S341      1.0  0.74437  0.54105  0.32581  1.0000
  S   S342      1.0  0.73353  0.55826  0.37302  1.0000
  Fe  Fe174     1.0  0.73354  0.51465  0.32854  1.0000
  S   S343      1.0  0.70803  0.51032  0.31730  1.0000
  Fe  Fe175     1.0  0.77189  0.52487  0.32525  1.0000
  S   S344      1.0  0.79518  0.53486  0.30584  1.0000
  S   S345      1.0  0.73129  0.51106  0.35893  1.0000
  S   S346      1.0  0.77211  0.52214  0.35474  1.0000
  Fe  Fe176     1.0  0.76242  0.38476  0.47536  1.0000
  S   S347      1.0  0.75353  0.41395  0.46701  1.0000
  S   S348      1.0  0.79109  0.37443  0.48089  1.0000
  Fe  Fe177     1.0  0.72440  0.37346  0.47831  1.0000
  S   S349      1.0  0.71326  0.40223  0.47100  1.0000
  Fe  Fe178     1.0  0.73697  0.40391  0.44969  1.0000
  S   S350      1.0  0.72737  0.41789  0.42385  1.0000
  H   H1273     1.0  0.68748  0.35166  0.42442  1.0000
  S   S351      1.0  0.74767  0.37474  0.45595  1.0000
  H   H1274     1.0  0.69831  0.37685  0.40172  1.0000
  Fe  Fe179     1.0  0.79259  0.61722  0.46172  1.0000
  S   S352      1.0  0.78615  0.63615  0.43708  1.0000
  S   S353      1.0  0.81941  0.60606  0.47216  1.0000
  Fe  Fe180     1.0  0.75493  0.60501  0.46777  1.0000
  S   S354      1.0  0.74626  0.62208  0.44306  1.0000
  S   S355      1.0  0.73606  0.58688  0.48456  1.0000
  Fe  Fe181     1.0  0.77417  0.61331  0.42986  1.0000
  S   S356      1.0  0.78408  0.60163  0.40389  1.0000
  Fe  Fe182     1.0  0.75840  0.64345  0.45252  1.0000
  S   S357      1.0  0.78154  0.59437  0.45380  1.0000
  S   S358      1.0  0.76615  0.62635  0.47790  1.0000
  H   H1275     1.0  0.94313  0.54131  0.32115  1.0000
  C   C792      1.0  0.95102  0.53360  0.27775  1.0000
  N   N80       1.0  0.93515  0.48513  0.45599  1.0000
  H   H1276     1.0  0.70122  0.39734  0.40912  1.0000
  C   C793      1.0  0.75995  0.45881  0.38777  1.0000
  C   C794      1.0  0.74175  0.45905  0.38655  1.0000
  C   C795      1.0  0.73191  0.44637  0.39764  1.0000
  C   C796      1.0  0.74013  0.43358  0.41019  1.0000
  C   C797      1.0  0.75825  0.43348  0.41161  1.0000
  C   C798      1.0  0.76816  0.44601  0.40035  1.0000
  H   H1277     1.0  0.73535  0.46882  0.37684  1.0000
  H   H1278     1.0  0.71790  0.44647  0.39644  1.0000
  H   H1279     1.0  0.76473  0.42357  0.42115  1.0000
  H   H1280     1.0  0.78226  0.44568  0.40130  1.0000
  C   C799      1.0  0.74788  0.56887  0.38292  1.0000
  C   C800      1.0  0.74031  0.58208  0.39382  1.0000
  C   C801      1.0  0.75130  0.59170  0.40090  1.0000
  C   C802      1.0  0.77000  0.58846  0.39679  1.0000
  C   C803      1.0  0.77762  0.57509  0.38606  1.0000
  C   C804      1.0  0.76661  0.56511  0.37941  1.0000
  H   H1281     1.0  0.72584  0.58504  0.39666  1.0000
  H   H1282     1.0  0.74528  0.60200  0.40909  1.0000
  H   H1283     1.0  0.79208  0.57240  0.38298  1.0000
  H   H1284     1.0  0.77258  0.55478  0.37128  1.0000
  C   C805      1.0  0.84222  0.63185  0.45885  1.0000
  C   C806      1.0  0.69921  0.51148  0.29660  1.0000
  C   C807      1.0  0.68147  0.50779  0.29711  1.0000
  H   H1285     1.0  0.84335  0.47012  0.39519  1.0000
  C   C808      1.0  0.95933  0.55038  0.48333  1.0000
  C   C809      1.0  0.98242  0.43249  0.49621  1.0000
  H   H1286     1.0  0.71576  0.66580  0.43521  1.0000
  C   C810      1.0  0.85326  0.53893  0.31365  1.0000
  C   C811      1.0  0.84710  0.54364  0.29700  1.0000
  C   C812      1.0  0.82940  0.54208  0.29507  1.0000
  C   C813      1.0  0.81745  0.53570  0.30971  1.0000
  C   C814      1.0  0.82342  0.53097  0.32658  1.0000
  C   C815      1.0  0.84134  0.53262  0.32855  1.0000
  H   H1287     1.0  0.85610  0.54852  0.28543  1.0000
  H   H1288     1.0  0.82498  0.54580  0.28202  1.0000
  H   H1289     1.0  0.81425  0.52616  0.33802  1.0000
  H   H1290     1.0  0.84596  0.52908  0.34150  1.0000
  C   C816      1.0  0.87453  0.48466  0.45007  1.0000
  C   C817      1.0  0.87899  0.50016  0.43886  1.0000
  C   C818      1.0  0.87927  0.50131  0.42025  1.0000
  C   C819      1.0  0.87498  0.48700  0.41293  1.0000
  C   C820      1.0  0.86957  0.47198  0.42427  1.0000
  C   C821      1.0  0.86931  0.47084  0.44280  1.0000
  H   H1291     1.0  0.88290  0.51095  0.44444  1.0000
  H   H1292     1.0  0.88305  0.51313  0.41158  1.0000
  H   H1293     1.0  0.86619  0.46091  0.41871  1.0000
  H   H1294     1.0  0.86546  0.45900  0.45144  1.0000
  C   C822      1.0  0.84580  0.39458  0.46262  1.0000
  C   C823      1.0  0.83301  0.40366  0.47463  1.0000
  C   C824      1.0  0.81549  0.39864  0.47922  1.0000
  C   C825      1.0  0.81059  0.38469  0.47165  1.0000
  C   C826      1.0  0.82328  0.37612  0.45929  1.0000
  C   C827      1.0  0.84061  0.38114  0.45468  1.0000
  H   H1295     1.0  0.83673  0.41419  0.48073  1.0000
  H   H1296     1.0  0.71242  0.36297  0.44691  1.0000
  H   H1297     1.0  0.80350  0.47299  0.39325  1.0000
  C   C828      1.0  0.81984  0.48228  0.35979  1.0000
  H   H1298     1.0  0.69348  0.40125  0.44089  1.0000
  H   H1299     1.0  0.91591  0.53093  0.28851  1.0000
  H   H1300     1.0  0.94859  0.55675  0.30153  1.0000
  H   H1301     1.0  0.75517  0.57385  0.33998  1.0000
  C   C829      1.0  0.94221  0.58213  0.40442  1.0000
  C   C830      1.0  0.94253  0.57022  0.39213  1.0000
  C   C831      1.0  0.92640  0.56710  0.38715  1.0000
  C   C832      1.0  0.90999  0.57599  0.39437  1.0000
  C   C833      1.0  0.90971  0.58822  0.40633  1.0000
  C   C834      1.0  0.92581  0.59124  0.41140  1.0000
  H   H1302     1.0  0.95519  0.56322  0.38664  1.0000
  H   H1303     1.0  0.92672  0.55780  0.37774  1.0000
  H   H1304     1.0  0.89709  0.59524  0.41183  1.0000
  H   H1305     1.0  0.92549  0.60065  0.42069  1.0000
  C   C835      1.0  0.87468  0.62676  0.46031  1.0000
  C   C836      1.0  0.87311  0.60904  0.46788  1.0000
  C   C837      1.0  0.85611  0.60293  0.47133  1.0000
  C   C838      1.0  0.84056  0.61431  0.46691  1.0000
  H   H1306     1.0  0.88492  0.60017  0.47140  1.0000
  H   H1307     1.0  0.85498  0.58932  0.47751  1.0000
  C   C839      1.0  0.92674  0.47243  0.44825  1.0000
  N   N81       1.0  0.72924  0.46789  0.45307  1.0000
  C   C840      1.0  0.74568  0.46551  0.43999  1.0000
  C   C841      1.0  0.73422  0.46583  0.47133  1.0000
  C   C842      1.0  0.71763  0.45427  0.45214  1.0000
  H   H1308     1.0  0.72212  0.46740  0.48159  1.0000
  H   H1309     1.0  0.92776  0.50318  0.47578  1.0000
  H   H1310     1.0  0.81380  0.56403  0.49356  1.0000
  H   H1311     1.0  0.74161  0.45231  0.47501  1.0000
  H   H1312     1.0  0.72779  0.49658  0.44940  1.0000
  C   C843      1.0  0.99183  0.51307  0.34276  1.0000
  H   H1313     1.0  0.72467  0.44048  0.45508  1.0000
  C   C844      1.0  0.69440  0.33628  0.47745  1.0000
  N   N82       1.0  0.84234  0.59735  0.41442  1.0000
  C   C845      1.0  0.83716  0.58200  0.40763  1.0000
  C   C846      1.0  0.85520  0.59076  0.42739  1.0000
  C   C847      1.0  0.82614  0.60745  0.42336  1.0000
  C   C848      1.0  0.85082  0.60922  0.39930  1.0000
  H   H1314     1.0  0.82713  0.58652  0.39811  1.0000
  H   H1315     1.0  0.83095  0.57266  0.41874  1.0000
  H   H1316     1.0  0.84905  0.57425  0.40049  1.0000
  H   H1317     1.0  0.86726  0.58241  0.42128  1.0000
  H   H1318     1.0  0.85998  0.60204  0.43217  1.0000
  H   H1319     1.0  0.84896  0.58245  0.43939  1.0000
  H   H1320     1.0  0.82951  0.61898  0.42892  1.0000
  H   H1321     1.0  0.81928  0.59882  0.43469  1.0000
  H   H1322     1.0  0.81620  0.61275  0.41392  1.0000
  H   H1323     1.0  0.85484  0.62097  0.40396  1.0000
  H   H1324     1.0  0.84151  0.61433  0.38921  1.0000
  H   H1325     1.0  0.86316  0.60203  0.39230  1.0000
  C   C849      1.0  0.71942  0.48596  0.44882  1.0000
  H   H1326     1.0  0.67897  0.39198  0.40921  1.0000
  C   C850      1.0  0.94981  0.54230  0.30705  1.0000
  H   H1327     1.0  0.91484  0.47916  0.44182  1.0000
  H   H1328     1.0  0.91531  0.66116  0.42859  1.0000
  H   H1329     1.0  0.71358  0.45538  0.43854  1.0000
  H   H1330     1.0  0.99983  0.48724  0.37175  1.0000
  H   H1331     1.0  0.93636  0.46563  0.43805  1.0000
  H   H1332     1.0  0.80005  0.60008  0.31405  1.0000
  H   H1333     1.0  0.70691  0.48819  0.45843  1.0000
  H   H1334     1.0  0.96564  0.52864  0.27724  1.0000
  H   H1335     1.0  0.70523  0.45541  0.46208  1.0000
  C   C851      1.0  0.68190  0.36208  0.43326  1.0000
  C   C852      1.0  0.99819  0.65674  0.45001  1.0000
  H   H1336     1.0  0.71551  0.48796  0.43509  1.0000
  C   C853      1.0  0.98600  0.42996  0.45971  1.0000
  H   H1337     1.0  0.72803  0.62414  0.49595  1.0000
  H   H1338     1.0  0.68951  0.47544  0.26101  1.0000
  C   C854      1.0  0.68562  0.38972  0.44305  1.0000
  H   H1339     1.0  0.95824  0.50737  0.30515  1.0000
  C   C855      1.0  0.71168  0.36964  0.43296  1.0000
  Fe  Fe183     1.0  0.73048  0.41008  0.48891  1.0000
  H   H1340     1.0  0.93844  0.50425  0.29626  1.0000
  C   C856      1.0  0.68385  0.51265  0.26443  1.0000
  H   H1341     1.0  0.91680  0.48343  0.48054  1.0000
  C   C857      1.0  0.92246  0.53845  0.29650  1.0000
  C   C858      1.0  0.67385  0.50834  0.28122  1.0000
  H   H1342     1.0  0.68570  0.45825  0.27955  1.0000
  H   H1343     1.0  0.91507  0.53695  0.31032  1.0000
  H   H1344     1.0  0.92019  0.55289  0.29104  1.0000
  H   H1345     1.0  0.67931  0.62438  0.49548  1.0000
  H   H1346     1.0  0.83315  0.45615  0.38386  1.0000
  S   S359      1.0  0.89542  0.63572  0.45720  1.0000
  C   C859      1.0  0.85916  0.63806  0.45575  1.0000
  H   H1347     1.0  0.83039  0.64081  0.45549  1.0000
  C   C860      1.0  0.96727  0.43069  0.48837  1.0000
  C   C861      1.0  0.83888  0.46899  0.38223  1.0000
  H   H1348     1.0  0.85032  0.37400  0.44542  1.0000
  H   H1349     1.0  0.98749  0.42888  0.44556  1.0000
  H   H1350     1.0  0.83135  0.48161  0.34879  1.0000
  H   H1351     1.0  0.81345  0.46984  0.36111  1.0000
  H   H1352     1.0  0.85119  0.46806  0.37216  1.0000
  C   C862      1.0  0.96900  0.42931  0.47006  1.0000
  N   N83       1.0  0.82568  0.48447  0.37685  1.0000
  C   C863      1.0  0.70157  0.51631  0.26390  1.0000
  H   H1353     1.0  0.83986  0.36417  0.49945  1.0000
  C   C864      1.0  0.80992  0.48550  0.39092  1.0000
  H   H1354     1.0  0.81374  0.48751  0.40390  1.0000
  H   H1355     1.0  0.80965  0.49360  0.35548  1.0000
  H   H1356     1.0  0.83860  0.50315  0.38714  1.0000
  C   C865      1.0  0.97487  0.52318  0.34633  1.0000
  H   H1357     1.0  0.68601  0.38325  0.45718  1.0000
  H   H1358     1.0  0.81991  0.36503  0.45374  1.0000
  H   H1359     1.0  0.94770  0.50896  0.44701  1.0000
  C   C866      1.0  0.83407  0.50109  0.37449  1.0000
  H   H1360     1.0  0.79941  0.49670  0.38707  1.0000
  H   H1361     1.0  0.82458  0.51306  0.37027  1.0000
  H   H1362     1.0  0.74298  0.47586  0.47263  1.0000
  H   H1363     1.0  0.75485  0.47545  0.44039  1.0000
  H   H1364     1.0  0.94969  0.54784  0.27145  1.0000
  H   H1365     1.0  0.93658  0.51081  0.31808  1.0000
  C   C867      1.0  0.66910  0.43845  0.26210  1.0000
  C   C868      1.0  0.95059  0.47537  0.46460  1.0000
  H   H1366     1.0  0.95760  0.48454  0.47023  1.0000
  H   H1367     1.0  0.84622  0.50059  0.36418  1.0000
  C   C869      1.0  0.94388  0.51271  0.30422  1.0000
  C   C870      1.0  0.69283  0.38616  0.41173  1.0000
  H   H1368     1.0  0.96058  0.46815  0.45498  1.0000
  C   C871      1.0  0.69233  0.65610  0.48999  1.0000
  H   H1369     1.0  0.95142  0.49311  0.43119  1.0000
  H   H1370     1.0  0.86064  0.36563  0.48486  1.0000
  H   H1371     1.0  0.71761  0.35960  0.42382  1.0000
  N   N84       1.0  0.94179  0.53177  0.29638  1.0000
  H   H1372     1.0  0.86017  0.65181  0.44997  1.0000
  C   C872      1.0  0.92184  0.49360  0.46954  1.0000
  H   H1373     1.0  0.94619  0.46511  0.47586  1.0000
  H   H1374     1.0  0.92996  0.50657  0.43482  1.0000
  H   H1375     1.0  0.99261  0.49924  0.34071  1.0000
  H   H1376     1.0  0.68102  0.42975  0.25628  1.0000
  C   C873      1.0  0.97405  0.54119  0.34848  1.0000
  C   C874      1.0  0.85474  0.36071  0.49873  1.0000
  H   H1377     1.0  0.86187  0.39447  0.49640  1.0000
  N   N85       1.0  0.69299  0.37688  0.43024  1.0000
  C   C875      1.0  0.94136  0.49907  0.44161  1.0000
  H   H1378     1.0  0.75135  0.59677  0.33006  1.0000
  C   C876      1.0  0.76115  0.58663  0.33678  1.0000
  H   H1379     1.0  0.76791  0.59023  0.30050  1.0000
  H   H1380     1.0  0.78550  0.55702  0.33682  1.0000
  H   H1381     1.0  0.76223  0.59104  0.34978  1.0000
  H   H1382     1.0  0.69385  0.63535  0.46462  1.0000
  H   H1383     1.0  0.79303  0.57320  0.34777  1.0000
  H   H1384     1.0  0.67363  0.50434  0.30998  1.0000
  H   H1385     1.0  0.92209  0.46175  0.45877  1.0000
  H   H1386     1.0  0.90993  0.50098  0.46356  1.0000
  H   H1387     1.0  0.93164  0.65803  0.45471  1.0000
  N   N86       1.0  0.77883  0.58438  0.32549  1.0000
  C   C877      1.0  0.77652  0.57952  0.30804  1.0000
  C   C878      1.0  0.79097  0.57004  0.33455  1.0000
  H   H1388     1.0  0.78969  0.57686  0.29948  1.0000
  H   H1389     1.0  0.95150  0.52797  0.47365  1.0000
  H   H1390     1.0  0.94531  0.52583  0.26930  1.0000
  H   H1391     1.0  0.80442  0.56797  0.32636  1.0000
  H   H1392     1.0  0.78874  0.60526  0.33554  1.0000
  C   C879      1.0  0.78672  0.60132  0.32259  1.0000
  H   H1393     1.0  0.77010  0.56707  0.30984  1.0000
  H   H1394     1.0  0.96432  0.53739  0.30761  1.0000
  H   H1395     1.0  0.72044  0.38046  0.43048  1.0000
  C   C880      1.0  0.70641  0.63416  0.47073  1.0000
  C   C881      1.0  0.00060  0.61456  0.48541  1.0000
  C   C882      1.0  0.95645  0.53244  0.48451  1.0000
  H   H1396     1.0  0.74240  0.46712  0.42604  1.0000
  C   C883      1.0  0.70918  0.51579  0.27981  1.0000
  H   H1397     1.0  0.71510  0.64358  0.46225  1.0000
  H   H1398     1.0  0.77785  0.61250  0.31589  1.0000
  H   H1399     1.0  0.72282  0.51862  0.27907  1.0000
  H   H1400     1.0  0.95690  0.55956  0.47141  1.0000
  S   S360      1.0  0.90744  0.40240  0.48598  1.0000
  H   H1401     1.0  0.95429  0.43024  0.49652  1.0000
  C   C884      1.0  0.71985  0.63751  0.49641  1.0000
  S   S361      1.0  0.87024  0.43122  0.49281  1.0000
  S   S362      1.0  0.90990  0.44317  0.49450  1.0000
  S   S363      1.0  0.97490  0.65656  0.45001  1.0000
  H   H1402     1.0  0.71350  0.62033  0.46993  1.0000
  H   H1403     1.0  0.72807  0.64764  0.48836  1.0000
  N   N87       1.0  0.70268  0.63808  0.48943  1.0000
  H   H1404     1.0  0.99737  0.62941  0.48305  1.0000
  H   H1405     1.0  0.69972  0.45289  0.25926  1.0000
  S   S364      1.0  0.73990  0.38128  0.49840  1.0000
  C   C885      1.0  0.00115  0.43172  0.46756  1.0000
  H   H1406     1.0  0.80598  0.40504  0.48916  1.0000
  H   H1407     1.0  0.68122  0.35534  0.44734  1.0000
  C   C886      1.0  0.99946  0.43289  0.48589  1.0000
  C   C887      1.0  0.68726  0.46115  0.26465  1.0000
  H   H1408     1.0  0.98788  0.60898  0.49113  1.0000
  H   H1409     1.0  0.67141  0.39519  0.44170  1.0000
  C   C888      1.0  0.96440  0.55653  0.49794  1.0000
  H   H1410     1.0  0.88746  0.37038  0.49579  1.0000
  N   N88       1.0  0.67134  0.45761  0.25747  1.0000
  H   H1411     1.0  0.99464  0.49690  0.49427  1.0000
  H   H1412     1.0  0.92610  0.56848  0.49674  1.0000
  H   H1413     1.0  0.70956  0.51956  0.25106  1.0000
  S   S365      1.0  0.96415  0.57947  0.49852  1.0000
  H   H1414     1.0  0.67945  0.65720  0.48443  1.0000
  H   H1415     1.0  0.66918  0.33920  0.49488  1.0000
  H   H1416     1.0  0.90676  0.55696  0.49925  1.0000
  Fe  Fe184     1.0  0.95021  0.50369  0.56767  1.0000
  S   S366      1.0  0.95880  0.47982  0.55323  1.0000
  S   S367      1.0  0.97213  0.51566  0.57723  1.0000
  Fe  Fe185     1.0  0.90996  0.50599  0.56132  1.0000
  S   S368      1.0  0.91669  0.48242  0.54608  1.0000
  S   S369      1.0  0.88182  0.52146  0.56041  1.0000
  Fe  Fe186     1.0  0.93325  0.47058  0.56802  1.0000
  S   S370      1.0  0.93164  0.44305  0.58290  1.0000
  Fe  Fe187     1.0  0.94139  0.49466  0.53320  1.0000
  N   N89       1.0  0.80260  0.55417  0.52041  1.0000
  S   S371      1.0  0.92541  0.49354  0.58408  1.0000
  S   S372      1.0  0.93373  0.51915  0.54692  1.0000
  H   H1417     1.0  0.70082  0.45483  0.60725  1.0000
  Fe  Fe188     1.0  0.89448  0.42023  0.50644  1.0000
  Fe  Fe189     1.0  0.75972  0.49034  0.56340  1.0000
  S   S373      1.0  0.73514  0.50928  0.57187  1.0000
  S   S374      1.0  0.76699  0.47089  0.54285  1.0000
  Fe  Fe190     1.0  0.78140  0.49987  0.59039  1.0000
  S   S375      1.0  0.75833  0.51897  0.60195  1.0000
  S   S376      1.0  0.80931  0.49153  0.59889  1.0000
  Fe  Fe191     1.0  0.73988  0.49878  0.60048  1.0000
  S   S377      1.0  0.71636  0.48768  0.62004  1.0000
  Fe  Fe192     1.0  0.75483  0.52822  0.57297  1.0000
  S   S378      1.0  0.75317  0.55784  0.56321  1.0000
  S   S379      1.0  0.76346  0.47869  0.59162  1.0000
  S   S380      1.0  0.77889  0.51042  0.56179  1.0000
  C   C889      1.0  0.74755  0.56585  0.54167  1.0000
  C   C890      1.0  0.75089  0.58314  0.53390  1.0000
  H   H1418     1.0  0.70176  0.46370  0.74347  1.0000
  C   C891      1.0  0.74048  0.55516  0.53191  1.0000
  H   H1419     1.0  0.75620  0.59151  0.54149  1.0000
  H   H1420     1.0  0.74909  0.44483  0.58930  1.0000
  H   H1421     1.0  0.73778  0.54184  0.53785  1.0000
  C   C892      1.0  0.70150  0.49534  0.63885  1.0000
  H   H1422     1.0  0.99920  0.50297  0.53196  1.0000
  H   H1423     1.0  0.91672  0.58173  0.54271  1.0000
  C   C893      1.0  0.68663  0.48623  0.64618  1.0000
  H   H1424     1.0  0.73435  0.46889  0.56923  1.0000
  H   H1425     1.0  0.88732  0.58487  0.50699  1.0000
  C   C894      1.0  0.67471  0.49145  0.66127  1.0000
  C   C895      1.0  0.73137  0.44319  0.51543  1.0000
  C   C896      1.0  0.74962  0.43693  0.51543  1.0000
  C   C897      1.0  0.76031  0.44569  0.52379  1.0000
  C   C898      1.0  0.75289  0.46080  0.53218  1.0000
  C   C899      1.0  0.73470  0.46733  0.53184  1.0000
  C   C900      1.0  0.72394  0.45845  0.52362  1.0000
  H   H1426     1.0  0.92512  0.54784  0.51157  1.0000
  H   H1427     1.0  0.72900  0.47934  0.53768  1.0000
  H   H1428     1.0  0.70987  0.46351  0.52342  1.0000
  H   H1429     1.0  0.88764  0.37146  0.51912  1.0000
  H   H1430     1.0  0.00183  0.44305  0.61503  1.0000
  H   H1431     1.0  0.73596  0.42976  0.60446  1.0000
  C   C901      1.0  0.79729  0.56082  0.53795  1.0000
  H   H1432     1.0  0.95469  0.43491  0.61457  1.0000
  H   H1433     1.0  0.99894  0.46536  0.60321  1.0000
  H   H1434     1.0  0.99559  0.60968  0.52139  1.0000
  C   C902      1.0  0.73561  0.44363  0.59726  1.0000
  H   H1435     1.0  0.68429  0.47502  0.64014  1.0000
  H   H1436     1.0  0.95905  0.47415  0.61573  1.0000
  C   C903      1.0  0.92160  0.43149  0.56989  1.0000
  C   C904      1.0  0.92552  0.43442  0.55124  1.0000
  C   C905      1.0  0.91648  0.42636  0.54066  1.0000
  C   C906      1.0  0.90300  0.41594  0.54862  1.0000
  C   C907      1.0  0.89942  0.41258  0.56733  1.0000
  C   C908      1.0  0.90886  0.42021  0.57799  1.0000
  H   H1437     1.0  0.93565  0.44280  0.54493  1.0000
  H   H1438     1.0  0.92004  0.42820  0.52636  1.0000
  H   H1439     1.0  0.88910  0.40440  0.57359  1.0000
  H   H1440     1.0  0.90581  0.41794  0.59244  1.0000
  H   H1441     1.0  0.93158  0.58365  0.52194  1.0000
  C   C909      1.0  0.96557  0.52649  0.51408  1.0000
  C   C910      1.0  0.96815  0.54442  0.51304  1.0000
  H   H1442     1.0  0.80892  0.56463  0.54301  1.0000
  C   C911      1.0  0.95886  0.52070  0.50023  1.0000
  H   H1443     1.0  0.82860  0.54179  0.52679  1.0000
  H   H1444     1.0  0.96806  0.51732  0.52600  1.0000
  H   H1445     1.0  0.88004  0.47373  0.56090  1.0000
  C   C912      1.0  0.92260  0.57481  0.53090  1.0000
  H   H1446     1.0  0.86392  0.46109  0.57505  1.0000
  C   C913      1.0  0.86178  0.51297  0.57122  1.0000
  C   C914      1.0  0.84514  0.52115  0.56606  1.0000
  C   C915      1.0  0.82896  0.51470  0.57427  1.0000
  C   C916      1.0  0.82923  0.50016  0.58797  1.0000
  C   C917      1.0  0.84587  0.49207  0.59316  1.0000
  C   C918      1.0  0.86205  0.49836  0.58479  1.0000
  H   H1447     1.0  0.84477  0.53259  0.55572  1.0000
  H   H1448     1.0  0.81625  0.52115  0.57027  1.0000
  H   H1449     1.0  0.84621  0.48091  0.60382  1.0000
  H   H1450     1.0  0.87471  0.49208  0.58908  1.0000
  C   C919      1.0  0.69227  0.62447  0.50050  1.0000
  C   C920      1.0  0.72102  0.46656  0.57688  1.0000
  H   H1451     1.0  0.86147  0.39475  0.51990  1.0000
  C   C921      1.0  0.96678  0.43817  0.61941  1.0000
  H   H1452     1.0  0.93128  0.56243  0.53577  1.0000
  H   H1453     1.0  0.79963  0.58058  0.50539  1.0000
  H   H1454     1.0  0.88339  0.44978  0.56284  1.0000
  H   H1455     1.0  0.89166  0.59558  0.52498  1.0000
  C   C922      1.0  0.98152  0.44376  0.58906  1.0000
  H   H1456     1.0  0.97580  0.42540  0.62205  1.0000
  C   C923      1.0  0.99953  0.48540  0.50396  1.0000
  N   N90       1.0  0.86296  0.46261  0.54679  1.0000
  C   C924      1.0  0.87301  0.46175  0.56207  1.0000
  C   C925      1.0  0.85324  0.44684  0.54933  1.0000
  C   C926      1.0  0.87567  0.46273  0.52997  1.0000
  C   C927      1.0  0.84993  0.47911  0.54585  1.0000
  C   C928      1.0  0.69247  0.51486  0.66217  1.0000
  H   H1457     1.0  0.69497  0.52592  0.66835  1.0000
  H   H1458     1.0  0.84598  0.44671  0.53777  1.0000
  H   H1459     1.0  0.86264  0.43415  0.55071  1.0000
  H   H1460     1.0  0.84318  0.44663  0.56166  1.0000
  H   H1461     1.0  0.86857  0.46367  0.51807  1.0000
  H   H1462     1.0  0.88548  0.45030  0.53017  1.0000
  H   H1463     1.0  0.88350  0.47426  0.52783  1.0000
  H   H1464     1.0  0.84205  0.48016  0.53451  1.0000
  H   H1465     1.0  0.85683  0.49127  0.54399  1.0000
  H   H1466     1.0  0.84017  0.47946  0.55839  1.0000
  H   H1467     1.0  0.67252  0.45371  0.74260  1.0000
  C   C929      1.0  0.74780  0.58952  0.51624  1.0000
  H   H1468     1.0  0.98094  0.43339  0.51040  1.0000
  H   H1469     1.0  0.99220  0.48248  0.56570  1.0000
  N   N91       1.0  0.72126  0.44787  0.58566  1.0000
  C   C930      1.0  0.72475  0.43570  0.57181  1.0000
  C   C931      1.0  0.70369  0.44576  0.59668  1.0000
  H   H1470     1.0  0.73365  0.45294  0.60755  1.0000
  H   H1471     1.0  0.98864  0.45315  0.57875  1.0000
  H   H1472     1.0  0.83976  0.36354  0.53267  1.0000
  H   H1473     1.0  0.71432  0.43868  0.56262  1.0000
  H   H1474     1.0  0.72498  0.42145  0.57789  1.0000
  H   H1475     1.0  0.77442  0.44066  0.52384  1.0000
  H   H1476     1.0  0.69253  0.44906  0.58836  1.0000
  H   H1477     1.0  0.70332  0.43181  0.60353  1.0000
  H   H1478     1.0  0.97231  0.54903  0.52429  1.0000
  C   C932      1.0  0.74060  0.57892  0.50650  1.0000
  H   H1479     1.0  0.98810  0.48296  0.51471  1.0000
  H   H1480     1.0  0.71768  0.47616  0.58686  1.0000
  H   H1481     1.0  0.96215  0.44345  0.63241  1.0000
  H   H1482     1.0  0.70257  0.48530  0.74967  1.0000
  N   N92       1.0  0.86189  0.36870  0.51218  1.0000
  H   H1483     1.0  0.78016  0.53908  0.52475  1.0000
  C   C933      1.0  0.70425  0.50980  0.64694  1.0000
  H   H1484     1.0  0.71561  0.51693  0.64160  1.0000
  H   H1485     1.0  0.73105  0.55362  0.50698  1.0000
  H   H1486     1.0  0.95111  0.46533  0.59840  1.0000
  C   C934      1.0  0.00151  0.48991  0.56971  1.0000
  C   C935      1.0  0.99533  0.50669  0.57525  1.0000
  H   H1487     1.0  0.77649  0.56076  0.51193  1.0000
  H   H1488     1.0  0.73796  0.43706  0.56331  1.0000
  C   C936      1.0  0.67687  0.48782  0.72861  1.0000
  H   H1489     1.0  0.84152  0.39163  0.51137  1.0000
  H   H1490     1.0  0.96965  0.47814  0.59308  1.0000
  N   N93       1.0  0.90849  0.57067  0.52145  1.0000
  C   C937      1.0  0.89633  0.55976  0.53413  1.0000
  H   H1491     1.0  0.85787  0.34587  0.50054  1.0000
  H   H1492     1.0  0.68379  0.47813  0.71942  1.0000
  S   S381      1.0  0.71761  0.43253  0.50498  1.0000
  S   S382      1.0  0.95133  0.49965  0.50372  1.0000
  H   H1493     1.0  0.96971  0.44093  0.58346  1.0000
  C   C938      1.0  0.73671  0.56183  0.51445  1.0000
  H   H1494     1.0  0.71086  0.47008  0.56745  1.0000
  C   C939      1.0  0.99193  0.45527  0.61285  1.0000
  S   S383      1.0  0.88961  0.40833  0.53536  1.0000
  N   N94       1.0  0.97594  0.45129  0.60613  1.0000
  H   H1495     1.0  0.82082  0.53298  0.50927  1.0000
  H   H1496     1.0  0.88955  0.56694  0.54551  1.0000
  C   C940      1.0  0.85471  0.36096  0.53040  1.0000
  H   H1497     1.0  0.81131  0.52742  0.53224  1.0000
  C   C941      1.0  0.85641  0.38825  0.50991  1.0000
  C   C942      1.0  0.96341  0.46795  0.60320  1.0000
  H   H1498     1.0  0.82179  0.57281  0.51097  1.0000
  H   H1499     1.0  0.85983  0.36684  0.54081  1.0000
  C   C943      1.0  0.80981  0.56846  0.50703  1.0000
  H   H1500     1.0  0.88647  0.35042  0.51164  1.0000
  C   C944      1.0  0.88174  0.36503  0.50962  1.0000
  C   C945      1.0  0.89813  0.58751  0.51415  1.0000
  H   H1501     1.0  0.99070  0.43097  0.59086  1.0000
  H   H1502     1.0  0.90382  0.54710  0.54004  1.0000
  H   H1503     1.0  0.78694  0.57280  0.53711  1.0000
  H   H1504     1.0  0.75079  0.60272  0.51029  1.0000
  C   C946      1.0  0.67761  0.50577  0.66948  1.0000
  H   H1505     1.0  0.68922  0.62697  0.51473  1.0000
  H   H1506     1.0  0.75550  0.42524  0.50908  1.0000
  C   C947      1.0  0.78675  0.54897  0.51447  1.0000
  N   N95       1.0  0.67610  0.47988  0.74764  1.0000
  H   H1507     1.0  0.79141  0.55052  0.54831  1.0000
  H   H1508     1.0  0.88571  0.55596  0.52750  1.0000
  C   C948      1.0  0.81647  0.53839  0.52224  1.0000
  H   H1509     1.0  0.98820  0.46086  0.62578  1.0000
  H   H1510     1.0  0.68405  0.49984  0.72567  1.0000
  C   C949      1.0  0.91696  0.56054  0.50660  1.0000
  H   H1511     1.0  0.85866  0.34621  0.53265  1.0000
  H   H1512     1.0  0.71765  0.64027  0.51054  1.0000
  H   H1513     1.0  0.68914  0.65949  0.50391  1.0000
  H   H1514     1.0  0.79039  0.54299  0.50176  1.0000
  H   H1515     1.0  0.90693  0.59599  0.50441  1.0000
  H   H1516     1.0  0.69990  0.61075  0.50033  1.0000
  H   H1517     1.0  0.69441  0.46785  0.76623  1.0000
  H   H1518     1.0  0.67435  0.50528  0.75728  1.0000
  C   C950      1.0  0.69454  0.47391  0.75195  1.0000
  C   C951      1.0  0.91656  0.70153  0.44172  1.0000
  C   C952      1.0  0.71082  0.67750  0.44183  1.0000
  C   C953      1.0  0.72150  0.68316  0.45270  1.0000
  C   C954      1.0  0.71485  0.69874  0.46076  1.0000
  C   C955      1.0  0.69784  0.70847  0.45807  1.0000
  H   H1519     1.0  0.91428  0.71004  0.42883  1.0000
  N   N96       1.0  0.92355  0.68285  0.43896  1.0000
  H   H1520     1.0  0.68586  0.68277  0.43053  1.0000
  C   C956      1.0  0.92640  0.67213  0.45640  1.0000
  C   C957      1.0  0.69384  0.68723  0.43913  1.0000
  H   H1521     1.0  0.95113  0.68787  0.43268  1.0000
  C   C958      1.0  0.94083  0.68246  0.42688  1.0000
  H   H1522     1.0  0.90354  0.70227  0.45080  1.0000
  H   H1523     1.0  0.94656  0.66853  0.42460  1.0000
  C   C959      1.0  0.68719  0.70284  0.44714  1.0000
  H   H1524     1.0  0.72293  0.70337  0.46914  1.0000
  H   H1525     1.0  0.69304  0.72043  0.46431  1.0000
  H   H1526     1.0  0.93928  0.69040  0.41357  1.0000
  H   H1527     1.0  0.92616  0.70759  0.44785  1.0000
  H   H1528     1.0  0.67229  0.87356  0.38607  1.0000
  H   H1529     1.0  0.67439  0.87385  0.40919  1.0000
  H   H1530     1.0  0.99395  0.68396  0.45572  1.0000
  S   S384      1.0  0.74297  0.67124  0.45701  1.0000
  H   H1531     1.0  0.93642  0.67726  0.46282  1.0000
  H   H1532     1.0  0.91365  0.67192  0.46586  1.0000
  C   C960      1.0  0.91043  0.67525  0.43090  1.0000
  H   H1533     1.0  0.90779  0.68304  0.41777  1.0000
  H   H1534     1.0  0.89735  0.67497  0.43985  1.0000
  H   H1535     1.0  0.70001  0.66662  0.48191  1.0000
  H   H1536     1.0  0.66919  0.89450  0.39499  1.0000
