data_image0
_chemical_formula_structural       H3FeSHFeSFeSFeS3FeSCSFeSFeS2HFeS2FeS2Fe2HS2FeSFeSHFeSFeS3H3CH2NHC7H4C6H4C6H4C6H3CHC3H5C2HCH3CH2CHCH5CH2SH4CSH5CHC2H2SH4CH2CH2CNCSHNHC2HSHC3H4C2FeNCH5CH2SCSC2H3SCNC2SCHCHC2HC2H2CHCH3CH3FeSHSHCHCH2SCH3CH3CH3CH4C2HCH2NH2CH3FeHNH3CHC4HSHC2H2CH3CHNH2NC3H2CHCH2C2FeH5CH5CH3C2H2CH2SH3CHCHNH2SC2H2SCHFeHFe2S2FeS2CHFeHSHCS2H2CS2H3FeSH2C5H3NSH3SFeC4HC2HCSH2CHCHFeH2C7H5SFeHC3Fe2H3CH6SHCHC2NH7CSC3H3C2HSHCH4FeHFeH2CNC2H3CHS2CH2CHCHSH4C2HSH2CNHC3FeH8FeS2FeSFeHS2FeS2FeSCFeSFeS4H2CH2SH3CH3FeSNFeSHFeSFeS3FeS2FeS2FeNFeNS2Fe2H3SH2CH3C6H4CH2CFeSH2CH2C6H3CH2CSC7H4C4H10CHC6H4FeC6H4CHC2SHSH2SNC4H3C2H4FeCH3CHSFeCH7CH2CH2CH2C3HNH3CHSCHCHC2H3SHSH5SC2H4SNH2NCHCH2FeHCH2C2H2CSHSH2CH2NH3SHFeSCHC2H3C2HCHC2HCH2S2HSHFeCHCHCSHC2HC2HSHCSHC2HS2HC2H3CHNH2CHCFeCH2CH5C3HSH2C2SHSC2NHSCSHFeH2SH4CH2FeHFeCHNHCHSHFe2HCHFeNHC2H3CH7C2H2C2H2CH3C3HCH5SHFeS2FeCFeHS2FeS2Fe2S2FeS2FeHFeCFeHS2HCHFeS2FeSFeHCHFeS2FeS2FeSFeS3FeS2FeS2FeSFeS3NC4H4C6H4C6H2CH2C6H5C6H4C6SH3C6H4C6H4C6H5NH2CSFeSC2H3CHSNC4H15CH3CSH2SHC2H4NC2H2NHCH3C2NH8CHCH4SHCH2CHNCHC2H9CHCSCH2C2HCH2SC2HNC4H8SCH7C2HSHCHSH4CH2CH4SCH3CNH5CFeS2FeS2FeSFeS3NHSCHC3H2C3HCH2C4HC2HFeS2FeS2FeSFeS3HCHSCHC3H2C3HSH2C6H4CH4CH3CSH2NC2HCHCH2CHCHC6H4C2HCHCH4C6H4C2HSC2H3CH2NC2FeNSNCH2CNHCH5CH5CH3CH2CH6CHS2H3C2H2C2H5C3H4FeH5SH2NHNCH5CNHCH7CFeHFeSH2CFeSCHNHC2HSHC2HSFeS2FeS2FeS2FeSFeS3FeS2FeS2FeSFeS3HC6H2NH3SCH10C2HCHC7H4C6H5C4SCHC6H6CSCH4CH5FeHNC4SH3NC4H12NC2H7C2N2H4SCFeH2NH3CHCSHC5HNCH2CNC2SCHC2H6SCSCHCH4SHSC2HFeSH9CH2CH2CHSC3HC2H3C2NCHCH2FeH4SH2FeH7SH4CHCHFeH13CHFeS2FeS2FeSFeS3FeS2FeS2FeSFeS3CH2CSH4SHCSHSH3SHN3HC2SHC2HCH3FeSC7H4CSCHFeSC6H4C6H4CSH5CHSC3H2CHSH3SHFeC3SH2SHCHFeHNCHCH4C3HC3H2CH2NC4H2NH9FeCHCHCHCFeH2CFeH2CHNC4H14SH2CH4C2HCHC3SH5SCHC2HCNC4H12NHNH4FeCH4SH3C2HSCHSC3Fe2CH2CHFe2H2SHFeH2SHC4HCNFeHCH2CH2CH2CHSH6C3H3C2SH3CH4CH3CFeS2FeS2FeSFeS3H4SC2HC3H2CFeCHFeS2FeS2FeSFeS4HCFeSH8NHC7H4C6H4FeH3C6H4C6H3C6H4C6H2C6H4FeH2NCHCFeSCH2CHC2HCSH5FeH2FeHC3H3CH2SCHCSHFeHS2C2H3NH6SH2NCSCNSH6CHCHNS2CSH4C2HCHCH7CH2NC2FeHSH6SHNFeHFeHS2C2FeSH2SCH5CH4SH2SCHCH3FeS2HCSFeS2HFeS2H2SHCSCFeSFeSHFeS2FeS2FeSFeS3HFeS2FeS2FeSFeS3H2CH9C6H4C3HC4H2C6H4C6H4C4HCH3SHSHCH2C2SC6H2CHC8H2C6H3NC4H3CH8NC4HFeSH9NC4H13CHC2H2C2H4SH2CH6NHCH8CSH2C2H2FeH3CH2Fe2H3NH3C2NCH5SH5SH3FeH4FeHCHSNC2HNH2CHFeH2C2H4NSC3HCFeCHCH2CH2SFeS2FeSFeS3FeS2FeSFeSFeS3HSH2SHSFeH2C2H2SH2S2FeSCFeSFeSFeS2FeS2Fe2S3HCHC7H4C4H4CHCH8C4H3C2HCHFeHN2HC6H4C2H2C2H8C3HSCH4CNHC6H4NC4H12SNC5FeH4SHCSH2NC4H12C3H2NHCSH2FeHNC4H12NC4H12S2CH5C2HCNCHFeSHS2H2CSH4CFeCH2C2HSCHFeH6CHC2SH2C2SC3HCSCH3C2H2CH2CSCH2CHNHC2S2HSC3HCFeCH2FeH2C3H3SH2CH2CSHSHNH4CSCHCH4CHFeC2H2CH3FeH4NHNFe2HC2SHC2HC2HCH2CSCNCH2CSNC2H5C2H5FeH4CH2SH3C5FeCH3CH3SC3H2SH2CHCNFe2S2C2H2C2HCSH4CH2SCHCH2FeSFeHFeHCFeHSC3H3SNH4CHCNH2SHSHC2H2SHCFeCH4CH3CH3NH2C3H2SC2H2CH2C2H2CH3CSH3C2H2SHCFeHCSCH3SH2CHCHCHFeCH2C2SH2SHCFeS2FeS2FeSFeS3FeS2FeS2FeSFeS3FeS2FeSFeSCHSFeSHSFeSFeSHS2HCH2CH5CH2CNFeH5C6HCH2CHC2H2C5HCH2CH3C6H4C6H3C6H6CH6NH2C2H9CHCH2CSH2SHSNC4H12SHCH10SH3C2HCNC4HCH2CH6SNHCH3C2H3CSH2NCH2CHCHC2FeNSH3C2HC2HSHCFeH5SCHSHNHFeC2HCHC2H2SH2CNH2SH4SNCH5CH3C2NCFeCHFeCFeH3C3H2C4H2CSH3CH4FeH2CHCHC2HC2HC2HCH2NCHSH4CHCHCHCH2C4H5C5HFeCH2SH2NS2HC2HC2HSHNCSHFeCHFeSHFeS2FeSFeS2C2Fe2SFeHSH2CHSCH4FeSH5CSHFeHCSH3CHCSHNHC3FeH3CSH2SHC6H4SH4SH2FeCHCH2CH2C3H5C2H6CHCFeH2CHNCSHSNH2CH2CHNH2C2HFeHCH5CHCHC2H2C2HC2HNCH4SH6SHSHSCH2C3HC3HSHFeSCH3C3H2NCH6C2H3CSHSH2C2HCS2H2CH4C2FeHC2HCHSHCHCSCH2C2Fe2SH3N2FeHCSHCHCH2C3NC2H2CNCH2C2SHSCFeC2H2SCNFeC4FeH2SH10CH2CSCH4C3HC2H4CH2C3SH11CH3CFeC2HSFeH2CSCSH4N2H5C4NCH2CHFeS2FeHC2S2HFeC2H2CH4CHCHSC2H4S2HCH2FeC2SH7SCH3C2H2SCH6C3H2C4H2CFeS2FeS2FeSFeS3FeS2HCFeSHSH3CH2SCH2SHCHSH2FeS2FeSHFeSFeS3CFeHCHCH2C4H3C6H7CNH3C6H4C3HC2H2CHC6H4CHC4H4C2H3CNC4HCH4CHSCH3CH3CH2CHC2HSH2NH3CH2SH2NH4CNCH5CHCH2C2H2CH2CFeSH2C3NC2HCHCH3NCH2CHCSH3CH3FeH2SHCHCH6SNHSCH4CHCH4SCH3CHCH3C2NHFeHSHSCH2CFeC3HNHS2HNH3C2HCH2CH3CHCSCS2NH3SFeC2H2CHFeH5CH3FeCHSCFeC2FeCHCSCFeS2FeS2FeSFeS3CSH5SHCHSHC4SCSFeSNFeS2FeHFeSHSH3C2FeCH2CN2HC6H6FeH2SH2C3HCH3FeH2FeSH5NHCFeC6H4C2HFeHCHCH2C6H6CHC2HCH3CSHSH7SHC3NH3CH2SH2C2H2C2H4CH3CH2FeSH2CSC3HCH4CHSNHCH2NHC3H7C2H2CSCH3SH2CH2CH2C2H4CH5Fe2S2FeS2FeSFeS4H2FeSH2SCHSFeS2CFeS2FeS2FeSFeS4FeC6H2SHC2H2CH5C2H2CFeHC6H4CNH7C7H4C6H4C2Fe2HCH2CHCNCHCSHC6FeCH5FeHCHNSC2HSH2CHNH6CH2CH2SH2CH6CH2CHSH8SCSHCHNHSHC2FeH2NH2CHCHCHC2S4H5FeHSH5C2HCHC2H2CHCHFeHCHNHSHSHCHCHSHSCH2SH3C2H2FeHCSH3C3NC2HFeCH3C2H5CHCHC2HCH2CNHC2HCH3CH3CNH4SCHCH4CFeSHFeS2FeS2FeSFeS3CHCHSH3CHFeS2FeS2FeSFeS3H3S2C2H3C2H4CHC2H3SC4H2CH4C6H4CHSHC6H4CHC4HCH2C6H6CH3CH3NCFeHSH8C3HC2H5CH2CNHNCHCH3CSC2HCH3NSC3NC4H11C2FeCFeH2FeH3CH2CH5SH2CHSCSH4SHC2H5FeCSCFeHN2H2CSFeH3CHC2HCH2C2HNH5C2HCHCH2C4SHC2H4C6H8FeH2CH4SHCH5CH3S2HFeCFe2H2CH2S2CH3CHFeHFeS2FeC3SCNHCH2CHC3S2NCHC2HCFeSHC2HC2HNHSCHCH3C4SCH2NC6H4CHCHC2S2H3CH2SHS2CH2SH4SHCHFeH3CS2H5FeCH6CH5SH2C2FeH7FeH2SH4C2SNH3CSH2C3H4SH2C2FeS2FeS2FeCFeHS2HSHNH5CH2SC2H2FeH2CSCHC2H2C2HCSC8H3CHNSCS2H7SHFeH3CHNHSC2FeCH2CHCHC4SNC4H13CH6CHSCH10CFeHCHSH2CHCSHSH2SHCSFeS2FeHSFeSCS3FeS2FeS2FeCFeS3FeS3FeSFeS2FeS2FeS2Fe2S3CH3C6H4C6H4C6H5SHCHC4H4CFeH4CHCH2C4HNC3H2C7H4CHC4H5CSH2CH2C2H4CHCHCSFeNHCH3CNH2C3H5CSH5SFeCSH2C2HCH5SH2SH3C3H3CHC2H2SH3CNC4H5CH14NC3HNH2SHSCHCHNC2H2NH2NHCH2CH5CHFeC2H3FeHC2NCHCNH4CH5SCNH2CH2SFe2CHSCH4FeH2CFe2CHFeSCHCHFeC2H3C3HSH3CHCFeHC3SCH2CFeSH3C3H2CSHCH2C2FeHNHS2H2CFeHCH3SHCH6CH2S2H6CFeCH4SHCHC2H2SC2FeHSHCH2FeSHSHC2HCHFeHSFeS2FeSHS2NH2C2H2CHFeH3C2H2C2H2CH3CSH2C3NH2C3HNCHSHCS2HSNS2H2CSH2C2FeCH6SHCH2CH2CSH3FeHCHCHC6FeH4CH4CHCSH2CH2CH6CHS2CSFeS2CFeSH2CSFeS2FeSFeS2FeS2FeS2Fe2S2FeHSFeCFeSFeS2FeS2FeS2Fe2S2C2SHSH3NCH3S2HNCFe2HC6H4FeC4H2C5HCH3C6H4C6H7C6H5C3H3SFeHCSHCHSHCH3SHSH2CSH5C2HCHCHSCHCH4NSH2C2NC4H4CH7C2H2C3H2CHSHCNC2NC4H12NH6C2H2CH4CSFeH2NC4H11CH2CSCHCS2H4CH5C4FeHSHCH2FeCHC3H4SC2FeCH3FeHCH3CSH5NH3CH2CH3SNCH2C4H2NHCH2CH4FeHCH3CFeC2NC3H2CH2CNH2C3HSNH2SH6C2HCFeH2C2SHC2H3SCHCH4SFeH2C2HSH2NSCHCHCSHC3S2HFeH2C2H3C2H3C2H5CNH2CHC4SHCHCH4CH6CH4C2H2NHC3H4SHC2HSHFeHSHCSHFeH2SH2SH3FeS2FeS2FeS2FeSFeS3FeS2FeHCFeSFeHS2C2SC3HCH2C4H3C3HCH4C2HC7H4C6H3CSCHCHC6H4CH5CSH3SH4FeCSFeCHSNH2NC4NH3SH2SHCHCHCH4CSHCH3CHC2SH2C2SH2SCHC2H6NH2FeC2H2CHCHSCH2CH2C3NCH5CH2NH2SCH2C2HFeHC3FeCHNH6CH4SH5SHCH2FeS2FeS2FeSFeS3FeCFeNSC2HS3H3C2HFeHCHCHFeS2FeSHFeSFeS3C2HC6H3CSC2H2C2H2CHCH3CHNCHCH2SHCH2C2H3C6H4N2SH2CHSFeC7H7C3H5CHCH4CH3CNH3CHCH3CH4C2H2CH5CHSH2CH3CH3CHSH5CSH3CSNC4H3C3H9CHCSCNFeH5SHFeS2FeSFe2S3HFeS2HFeSC2H2SH2C8H4CHCSFeCHC6H3CS2HFeC2H2NHCH3CH5CHSHSCH4NHCHC2SCH10CHCNH5SCHCHC3SCH2CH2C3NHCH2CHSH2C2HCHCHCH6FeHSNC2HSH4C2H4C2HCH7CH2SHFeH4CSH3CH3CH2CNH3CHC3H3SFeCFeS2HCHFeCS2FeS2H2FeS2CH2CSCFeS2FeS2FeSFeS3FeS2FeS2FeSFeS3FeSCHC6H4C6H4C4HC2FeHC6H4C6H4C7H2SCH9C6H4SC6H4C6H4NCH2SCH4C2H4C2SCSH3CH3NHCH2SH3NC2H2FeH2NHC3HCH2CH2FeHC2HC2SC2H3CHNCHCHCH4CHSCH2NSH2SCSHFeH2SH3CHCHSH5NHCSCH4NH5NC4H12NC5HCH6C2SH2NH4CNCH5FeHC2H4CH5C2SHFeCH4CH3FeH5CH2CH7CH3FeS2HNHSHFeS2FeS2FeSFeS3FeS2H2SCH3FeS2FeS2FeSFeS3H4S2FeHNHSC2HC6H4C6H9NC5HCH3C6H4C6H5C6H5NHCSH4CH2CH2CHCH2C2SH5CH3SH3SCH5CHFeC2HC7HCSHNCHCH2C2HSCFeNC4H11CH3CH2CH2FeHCHNCHSH3NCH4FeCH3FeC2H2CH5CHS2H2CSHS2FeS2FeS2FeSFeS3FeS2FeSHFeSFeS3FeS2FeS2FeSFeHS2FeS2FeS2FeSFeS3CNC4H3C6H5CHC3H2CH3C7H4CH4C6H4C6H9C7H3C6H4C6H5C3H4CH3CH4CH4C3H2FeH2SHN2FeHCHCNHCH8SC5HSHCHNC4H11SH5CSCH3C2HNHCNC3H2NH2CH5NHCHC3H2CHC2H2SC2H2CH3CNCHCHC2HFeHCH5C2SHSFeH2SH2CH4CH4FeH6CHCH2CH3NCH2CHCH6NH3SHCHFeS2FeSHFeSFeS3FeS2FeS2FeSFeS3CFeS3FeCFeSFeSFeSFeSFeS3H4Fe2SH3FeC2HC2HS2FeHCHC6H9C6H4C2SFeNC3H2C6HCH2C4H2CHFeC6H4NHCHCSH7CH4CH6CSHC2HSCHSCH2C2H2CNH3SHCNC4H13CHC3H2SCHCHCHCNH3C3HNHCH3CH2SNC2SC4HNSHSHS2C3HC2HCH8CH2SC5H2C2HC2H2C2H4C2H2SHSH4SH2CHFeHCH3SH5FeHCHNHCHCH2CFeH3CH3SHCHSC2H2CSHSHCHNSHCHNH4CH6CSC2H2CH4NHCH3CH4CH2CH2NCNFeHSHSHC3H2SCFeS2FeS2FeSFeHS2HC2H2CFeHNH2NH2C2H2CHC2HCH3CFeCH2C6HNH10CH6C6H4C6H5CHCSC3HNCSH2C2H3C2HCHCH7SHSH2Fe2HCHCH4CSH3CH4CH3FeS3Fe3S2FeSFeSHFeCS3HFeSFeSNSHS2HC3H3FeHS2C3SC2HSHCH3C3HNFeH2CHC6H4C6H3CH2CH2CHC3NH2SH2CH9C2H2SH2CSCH2FeSC2NHS2HCHCH2FeHFeH3FeH4CH3CH2CH4CNC4HC2H9CHCHCHCH2CH2C2H2CHCS2NHCS2NH4FeHC2H4CH4CS2HC
_chemical_formula_sum              "H4608 Fe576 S1152 C2880 N288"
_cell_length_a       85.3359
_cell_length_b       85.4445
_cell_length_c       85.6076
_cell_angle_alpha    73.9973
_cell_angle_beta     74.0551
_cell_angle_gamma    74.163

_space_group_name_H-M_alt    "P 1"
_space_group_IT_number       1

loop_
  _space_group_symop_operation_xyz
  'x, y, z'

loop_
  _atom_site_type_symbol
  _atom_site_label
  _atom_site_symmetry_multiplicity
  _atom_site_fract_x
  _atom_site_fract_y
  _atom_site_fract_z
  _atom_site_occupancy
  H   H1        1.0  0.25595  0.14144  0.06134  1.0000
  H   H2        1.0  0.24811  0.09987  0.06381  1.0000
  H   H3        1.0  0.21797  0.12850  0.06071  1.0000
  Fe  Fe1       1.0  0.27919  0.03839  0.13586  1.0000
  S   S1        1.0  0.26206  0.06206  0.14232  1.0000
  H   H4        1.0  0.22842  0.11595  0.04555  1.0000
  Fe  Fe2       1.0  0.30984  0.05032  0.13627  1.0000
  S   S2        1.0  0.29491  0.07423  0.14309  1.0000
  Fe  Fe3       1.0  0.27751  0.05866  0.16077  1.0000
  S   S3        1.0  0.26812  0.06028  0.18767  1.0000
  Fe  Fe4       1.0  0.28115  0.07540  0.12382  1.0000
  S   S4        1.0  0.27448  0.10123  0.10796  1.0000
  S   S5        1.0  0.29361  0.03440  0.15555  1.0000
  S   S6        1.0  0.29715  0.05218  0.11568  1.0000
  Fe  Fe5       1.0  0.28958  0.18253  0.00910  1.0000
  S   S7        1.0  0.27723  0.16322  0.02813  1.0000
  C   C1        1.0  0.99717  0.13648  0.25216  1.0000
  S   S8        1.0  0.28235  0.14403  0.99798  1.0000
  Fe  Fe6       1.0  0.26363  0.16450  0.00883  1.0000
  S   S9        1.0  0.23586  0.16728  0.01531  1.0000
  Fe  Fe7       1.0  0.29718  0.14469  0.01590  1.0000
  S   S10       1.0  0.30998  0.12164  0.03211  1.0000
  S   S11       1.0  0.27439  0.18517  0.99061  1.0000
  H   H5        1.0  0.02283  0.17090  0.21580  1.0000
  Fe  Fe8       1.0  0.08019  0.14224  0.27598  1.0000
  S   S12       1.0  0.06113  0.16289  0.28636  1.0000
  S   S13       1.0  0.08845  0.11745  0.29234  1.0000
  Fe  Fe9       1.0  0.08485  0.16273  0.24086  1.0000
  S   S14       1.0  0.06599  0.18493  0.24813  1.0000
  S   S15       1.0  0.09864  0.16070  0.21492  1.0000
  Fe  Fe10      1.0  0.07845  0.17941  0.26977  1.0000
  Fe  Fe11      1.0  0.05061  0.16624  0.26388  1.0000
  H   H6        1.0  0.27036  0.12410  0.04065  1.0000
  S   S16       1.0  0.09835  0.15832  0.26119  1.0000
  S   S17       1.0  0.06864  0.14453  0.25475  1.0000
  Fe  Fe12      1.0  0.17962  0.03656  0.26569  1.0000
  S   S18       1.0  0.16563  0.06222  0.25572  1.0000
  Fe  Fe13      1.0  0.17649  0.02143  0.23859  1.0000
  S   S19       1.0  0.16241  0.04569  0.22605  1.0000
  H   H7        1.0  0.10967  0.11838  0.24012  1.0000
  Fe  Fe14      1.0  0.18051  0.05750  0.23081  1.0000
  S   S20       1.0  0.18974  0.07765  0.21005  1.0000
  Fe  Fe15      1.0  0.14838  0.04865  0.25177  1.0000
  S   S21       1.0  0.12076  0.05870  0.25421  1.0000
  S   S22       1.0  0.19606  0.03306  0.24101  1.0000
  S   S23       1.0  0.16090  0.02325  0.26406  1.0000
  H   H8        1.0  0.03998  0.18137  0.20799  1.0000
  H   H9        1.0  0.09104  0.21255  0.09206  1.0000
  H   H10       1.0  0.29759  0.07460  0.18215  1.0000
  C   C2        1.0  0.27577  0.10796  0.25701  1.0000
  H   H11       1.0  0.23638  0.99802  0.19144  1.0000
  H   H12       1.0  0.14818  0.19573  0.26567  1.0000
  N   N1        1.0  0.03330  0.11360  0.29959  1.0000
  H   H13       1.0  0.27671  0.10586  0.20845  1.0000
  C   C3        1.0  0.09760  0.10130  0.28155  1.0000
  C   C4        1.0  0.09053  0.09970  0.26930  1.0000
  C   C5        1.0  0.09755  0.08638  0.26121  1.0000
  C   C6        1.0  0.11198  0.07492  0.26495  1.0000
  C   C7        1.0  0.11928  0.07670  0.27695  1.0000
  C   C8        1.0  0.11191  0.08971  0.28546  1.0000
  C   C9        1.0  0.20354  0.20875  0.02810  1.0000
  H   H14       1.0  0.09189  0.08502  0.25193  1.0000
  H   H15       1.0  0.13034  0.06781  0.27999  1.0000
  H   H16       1.0  0.25155  0.01099  0.18356  1.0000
  H   H17       1.0  0.25902  0.11290  0.03437  1.0000
  C   C10       1.0  0.24638  0.06555  0.19383  1.0000
  C   C11       1.0  0.23666  0.07495  0.18233  1.0000
  C   C12       1.0  0.21924  0.07899  0.18747  1.0000
  C   C13       1.0  0.21153  0.07338  0.20405  1.0000
  C   C14       1.0  0.22128  0.06411  0.21559  1.0000
  C   C15       1.0  0.23871  0.06036  0.21052  1.0000
  H   H18       1.0  0.24253  0.07928  0.16951  1.0000
  H   H19       1.0  0.21171  0.08626  0.17855  1.0000
  H   H20       1.0  0.21537  0.05998  0.22846  1.0000
  H   H21       1.0  0.24624  0.05314  0.21944  1.0000
  C   C16       1.0  0.28552  0.10665  0.08730  1.0000
  C   C17       1.0  0.28265  0.12342  0.07891  1.0000
  C   C18       1.0  0.29034  0.12816  0.06210  1.0000
  C   C19       1.0  0.30091  0.11615  0.05350  1.0000
  C   C20       1.0  0.30438  0.09948  0.06210  1.0000
  C   C21       1.0  0.29667  0.09471  0.07896  1.0000
  H   H22       1.0  0.27424  0.13275  0.08540  1.0000
  H   H23       1.0  0.27360  0.09406  0.17082  1.0000
  H   H24       1.0  0.31270  0.09013  0.05558  1.0000
  H   H25       1.0  0.29901  0.08175  0.08532  1.0000
  C   C22       1.0  0.06631  0.19128  0.17786  1.0000
  C   C23       1.0  0.07472  0.17490  0.17706  1.0000
  C   C24       1.0  0.08493  0.16574  0.18824  1.0000
  C   C25       1.0  0.08635  0.17273  0.20061  1.0000
  C   C26       1.0  0.07790  0.18914  0.20148  1.0000
  C   C27       1.0  0.06810  0.19854  0.18989  1.0000
  H   H26       1.0  0.07332  0.16924  0.16780  1.0000
  H   H27       1.0  0.09140  0.15308  0.18755  1.0000
  H   H28       1.0  0.07922  0.19469  0.21084  1.0000
  C   C28       1.0  0.24394  0.14165  0.05851  1.0000
  H   H29       1.0  0.22118  0.05031  0.17243  1.0000
  C   C29       1.0  0.23783  0.19544  0.02330  1.0000
  C   C30       1.0  0.22730  0.18655  0.02118  1.0000
  C   C31       1.0  0.21010  0.19320  0.02364  1.0000
  H   H30       1.0  0.15535  0.10523  0.23814  1.0000
  H   H31       1.0  0.25108  0.19062  0.02137  1.0000
  H   H32       1.0  0.20186  0.18645  0.02195  1.0000
  H   H33       1.0  0.29737  0.10972  0.20002  1.0000
  H   H34       1.0  0.22543  0.13823  0.03948  1.0000
  C   C32       1.0  0.08327  0.19395  0.12262  1.0000
  C   C33       1.0  0.02267  0.14387  0.25298  1.0000
  H   H35       1.0  0.25562  0.13515  0.02783  1.0000
  C   C34       1.0  0.31958  0.17165  0.05032  1.0000
  H   H36       1.0  0.03612  0.14152  0.25026  1.0000
  H   H37       1.0  0.23397  0.14337  0.06981  1.0000
  H   H38       1.0  0.24137  0.15291  0.04850  1.0000
  C   C35       1.0  0.01975  0.11270  0.29239  1.0000
  H   H39       1.0  0.16121  0.10817  0.21594  1.0000
  H   H40       1.0  0.21926  0.01650  0.21065  1.0000
  C   C36       1.0  0.09196  0.20120  0.29263  1.0000
  H   H41       1.0  0.23840  0.11275  0.07878  1.0000
  C   C37       1.0  0.30453  0.21698  0.03464  1.0000
  H   H42       1.0  0.22511  0.22971  0.06161  1.0000
  H   H43       1.0  0.26030  0.11028  0.06986  1.0000
  H   H44       1.0  0.23926  0.06802  0.29017  1.0000
  H   H45       1.0  0.21993  0.08033  0.27104  1.0000
  H   H46       1.0  0.06186  0.21131  0.19034  1.0000
  C   C38       1.0  0.25798  0.12451  0.03843  1.0000
  H   H47       1.0  0.12276  0.13177  0.23955  1.0000
  H   H48       1.0  0.30393  0.16995  0.15061  1.0000
  S   S24       1.0  0.28802  0.20456  0.01952  1.0000
  H   H49       1.0  0.13758  0.08668  0.23888  1.0000
  H   H50       1.0  0.11736  0.09086  0.29500  1.0000
  H   H51       1.0  0.25326  0.04204  0.26798  1.0000
  H   H52       1.0  0.30970  0.16733  0.06093  1.0000
  C   C39       1.0  0.22838  0.12724  0.04965  1.0000
  S   S25       1.0  0.02270  0.17045  0.26579  1.0000
  H   H53       1.0  0.08301  0.21219  0.14371  1.0000
  H   H54       1.0  0.02679  0.20438  0.23324  1.0000
  H   H55       1.0  0.23862  0.05133  0.25461  1.0000
  H   H56       1.0  0.26285  0.08386  0.24794  1.0000
  H   H57       1.0  0.24266  0.04118  0.17311  1.0000
  C   C40       1.0  0.26007  0.07137  0.24979  1.0000
  H   H58       1.0  0.20647  0.01065  0.19097  1.0000
  C   C41       1.0  0.23958  0.00928  0.18210  1.0000
  C   C42       1.0  0.14041  0.19396  0.27853  1.0000
  H   H59       1.0  0.09584  0.22885  0.09802  1.0000
  H   H60       1.0  0.04263  0.13097  0.27802  1.0000
  S   S26       1.0  0.23470  0.13209  0.30324  1.0000
  H   H61       1.0  0.02820  0.14045  0.29402  1.0000
  H   H62       1.0  0.24201  0.00664  0.16950  1.0000
  H   H63       1.0  0.03194  0.17577  0.22994  1.0000
  H   H64       1.0  0.26628  0.11455  0.17518  1.0000
  C   C43       1.0  0.28547  0.11025  0.19674  1.0000
  H   H65       1.0  0.32320  0.19656  0.00316  1.0000
  H   H66       1.0  0.09576  0.18557  0.12292  1.0000
  C   C44       1.0  0.23106  0.03880  0.17148  1.0000
  H   H67       1.0  0.06217  0.22058  0.10831  1.0000
  H   H68       1.0  0.00702  0.19432  0.19712  1.0000
  C   C45       1.0  0.02390  0.20875  0.22061  1.0000
  N   N2        1.0  0.08430  0.21167  0.11840  1.0000
  C   C46       1.0  0.08895  0.18923  0.30738  1.0000
  S   S27       1.0  0.25171  0.09197  0.30914  1.0000
  H   H69       1.0  0.20018  0.03257  0.18294  1.0000
  N   N3        1.0  0.28815  0.10015  0.18434  1.0000
  H   H70       1.0  0.05864  0.21950  0.13017  1.0000
  C   C47       1.0  0.27204  0.10141  0.18025  1.0000
  C   C48       1.0  0.29988  0.10641  0.16908  1.0000
  H   H71       1.0  0.00296  0.19125  0.24233  1.0000
  S   S28       1.0  0.31084  0.16390  0.99790  1.0000
  H   H72       1.0  0.17350  0.18782  0.27805  1.0000
  C   C49       1.0  0.99574  0.16031  0.26322  1.0000
  C   C50       1.0  0.30200  0.10581  0.23667  1.0000
  C   C51       1.0  0.15822  0.98560  0.24081  1.0000
  H   H73       1.0  0.30960  0.21612  0.30699  1.0000
  H   H74       1.0  0.29504  0.11973  0.16361  1.0000
  H   H75       1.0  0.30213  0.09910  0.15948  1.0000
  H   H76       1.0  0.31217  0.10565  0.17172  1.0000
  C   C52       1.0  0.03856  0.12957  0.29170  1.0000
  C   C53       1.0  0.13891  0.17961  0.30726  1.0000
  Fe  Fe16      1.0  0.29428  0.16474  0.98084  1.0000
  N   N4        1.0  0.24457  0.12626  0.05343  1.0000
  C   C54       1.0  0.24795  0.11166  0.06707  1.0000
  H   H77       1.0  0.31735  0.22534  0.04820  1.0000
  H   H78       1.0  0.21313  0.03847  0.20263  1.0000
  H   H79       1.0  0.10379  0.20727  0.13158  1.0000
  H   H80       1.0  0.10851  0.22549  0.30682  1.0000
  H   H81       1.0  0.14381  0.16068  0.28536  1.0000
  C   C55       1.0  0.21060  0.02153  0.18159  1.0000
  H   H82       1.0  0.13084  0.13604  0.20884  1.0000
  H   H83       1.0  0.12537  0.11097  0.25228  1.0000
  S   S29       1.0  0.25414  0.11566  0.26153  1.0000
  C   C56       1.0  0.13413  0.09490  0.22723  1.0000
  S   S30       1.0  0.08693  0.20070  0.27403  1.0000
  C   C57       1.0  0.12265  0.11862  0.24012  1.0000
  C   C58       1.0  0.15176  0.11300  0.22636  1.0000
  H   H84       1.0  0.14300  0.08976  0.21670  1.0000
  H   H85       1.0  0.12142  0.09373  0.22736  1.0000
  H   H86       1.0  0.15276  0.12597  0.22536  1.0000
  S   S31       1.0  0.18703  0.99802  0.22827  1.0000
  C   C59       1.0  0.09321  0.23075  0.23223  1.0000
  N   N5        1.0  0.13474  0.11234  0.22598  1.0000
  C   C60       1.0  0.09540  0.21543  0.10185  1.0000
  C   C61       1.0  0.00079  0.19494  0.22946  1.0000
  S   S32       1.0  0.19175  0.02574  0.28769  1.0000
  C   C62       1.0  0.27010  0.00292  0.12633  1.0000
  H   H87       1.0  0.25290  0.08171  0.27817  1.0000
  C   C63       1.0  0.13042  0.12280  0.21021  1.0000
  H   H88       1.0  0.11753  0.12278  0.20967  1.0000
  C   C64       1.0  0.31022  0.09512  0.24895  1.0000
  C   C65       1.0  0.01467  0.13345  0.24913  1.0000
  H   H89       1.0  0.07944  0.10849  0.26630  1.0000
  C   C66       1.0  0.23129  0.21081  0.02788  1.0000
  C   C67       1.0  0.09105  0.21497  0.13106  1.0000
  H   H90       1.0  0.10845  0.20828  0.10176  1.0000
  H   H91       1.0  0.30756  0.08265  0.27478  1.0000
  C   C68       1.0  0.28403  0.09736  0.26928  1.0000
  H   H92       1.0  0.12897  0.19021  0.27827  1.0000
  C   C69       1.0  0.29521  0.08254  0.19127  1.0000
  H   H93       1.0  0.00394  0.21545  0.19910  1.0000
  H   H94       1.0  0.29248  0.01001  0.11031  1.0000
  H   H95       1.0  0.13634  0.20632  0.28201  1.0000
  C   C70       1.0  0.19755  0.05410  0.29352  1.0000
  H   H96       1.0  0.20223  0.07533  0.29941  1.0000
  H   H97       1.0  0.27846  0.12049  0.23120  1.0000
  H   H98       1.0  0.16139  0.19957  0.29333  1.0000
  Fe  Fe17      1.0  0.24195  0.11195  0.28880  1.0000
  S   S33       1.0  0.21666  0.10584  0.29581  1.0000
  H   H99       1.0  0.27728  0.09412  0.28188  1.0000
  S   S34       1.0  0.05330  0.20210  0.16392  1.0000
  H   H100      1.0  0.07506  0.19070  0.13511  1.0000
  C   C71       1.0  0.19982  0.03666  0.29732  1.0000
  H   H101      1.0  0.00903  0.12353  0.29366  1.0000
  C   C72       1.0  0.01323  0.15720  0.26033  1.0000
  H   H102      1.0  0.13915  0.11837  0.19924  1.0000
  H   H103      1.0  0.19029  0.21388  0.02987  1.0000
  S   S35       1.0  0.26476  0.01874  0.13785  1.0000
  C   C73       1.0  0.01271  0.20305  0.20019  1.0000
  H   H104      1.0  0.15193  0.99783  0.24316  1.0000
  H   H105      1.0  0.31526  0.11410  0.09215  1.0000
  H   H106      1.0  0.02205  0.12297  0.24374  1.0000
  C   C74       1.0  0.24988  0.06953  0.27931  1.0000
  H   H107      1.0  0.30724  0.08113  0.19475  1.0000
  H   H108      1.0  0.29875  0.98776  0.09451  1.0000
  H   H109      1.0  0.22754  0.08180  0.24906  1.0000
  C   C75       1.0  0.30611  0.20848  0.02227  1.0000
  H   H110      1.0  0.19036  0.06153  0.28436  1.0000
  H   H111      1.0  0.26081  0.05961  0.28239  1.0000
  H   H112      1.0  0.12750  0.17540  0.30775  1.0000
  C   C76       1.0  0.20432  0.06190  0.30196  1.0000
  H   H113      1.0  0.09181  0.22825  0.12841  1.0000
  H   H114      1.0  0.23363  0.03686  0.15858  1.0000
  H   H115      1.0  0.07803  0.19104  0.11346  1.0000
  H   H116      1.0  0.28809  0.14110  0.05584  1.0000
  C   C77       1.0  0.28477  0.11213  0.24068  1.0000
  C   C78       1.0  0.22318  0.02722  0.20087  1.0000
  H   H117      1.0  0.21235  0.01915  0.16901  1.0000
  C   C79       1.0  0.24224  0.05224  0.26582  1.0000
  H   H118      1.0  0.30890  0.10930  0.22412  1.0000
  H   H119      1.0  0.28029  0.12365  0.19187  1.0000
  N   N6        1.0  0.24578  0.06875  0.26389  1.0000
  H   H120      1.0  0.30603  0.10583  0.11324  1.0000
  H   H121      1.0  0.16311  0.16605  0.27284  1.0000
  C   C80       1.0  0.15482  0.16523  0.28545  1.0000
  H   H122      1.0  0.17146  0.98775  0.26556  1.0000
  H   H123      1.0  0.23181  0.04972  0.27667  1.0000
  H   H124      1.0  0.01534  0.22125  0.22009  1.0000
  Fe  Fe18      1.0  0.04446  0.22967  0.16234  1.0000
  H   H125      1.0  0.25752  0.07064  0.23796  1.0000
  N   N7        1.0  0.22611  0.02420  0.18401  1.0000
  H   H126      1.0  0.23960  0.21762  0.02925  1.0000
  H   H127      1.0  0.23316  0.09454  0.25936  1.0000
  H   H128      1.0  0.28652  0.07725  0.20258  1.0000
  C   C81       1.0  0.09916  0.21419  0.29252  1.0000
  H   H129      1.0  0.27159  0.06190  0.25197  1.0000
  C   C82       1.0  0.21416  0.21754  0.03029  1.0000
  C   C83       1.0  0.23096  0.08192  0.26067  1.0000
  C   C84       1.0  0.31640  0.11190  0.10526  1.0000
  C   C85       1.0  0.31454  0.16129  0.14523  1.0000
  H   H130      1.0  0.08335  0.17919  0.30768  1.0000
  S   S36       1.0  0.31059  0.14023  0.17584  1.0000
  H   H131      1.0  0.19421  0.99664  0.27092  1.0000
  C   C86       1.0  0.28430  0.00138  0.11347  1.0000
  C   C87       1.0  0.26358  0.22331  0.06951  1.0000
  H   H132      1.0  0.26297  0.09647  0.19142  1.0000
  H   H133      1.0  0.31428  0.12424  0.10838  1.0000
  C   C88       1.0  0.30123  0.09086  0.26524  1.0000
  H   H134      1.0  0.32293  0.13851  0.05647  1.0000
  H   H135      1.0  0.02409  0.11280  0.27886  1.0000
  H   H136      1.0  0.23462  0.02927  0.20318  1.0000
  C   C89       1.0  0.02830  0.18050  0.21769  1.0000
  H   H137      1.0  0.24099  0.21103  0.06221  1.0000
  N   N8        1.0  0.14972  0.18146  0.29040  1.0000
  H   H138      1.0  0.08685  0.22067  0.24042  1.0000
  H   H139      1.0  0.04919  0.13044  0.29639  1.0000
  N   N9        1.0  0.01642  0.19680  0.21698  1.0000
  C   C90       1.0  0.32346  0.21374  0.30306  1.0000
  C   C91       1.0  0.04769  0.09968  0.29655  1.0000
  C   C92       1.0  0.31870  0.21914  0.03833  1.0000
  H   H140      1.0  0.03576  0.21041  0.21149  1.0000
  H   H141      1.0  0.24858  0.99267  0.14014  1.0000
  C   C93       1.0  0.06747  0.22233  0.11805  1.0000
  H   H142      1.0  0.29234  0.22155  0.04167  1.0000
  C   C94       1.0  0.25960  0.99160  0.13024  1.0000
  H   H143      1.0  0.02425  0.20454  0.19047  1.0000
  H   H144      1.0  0.05248  0.10008  0.28299  1.0000
  C   C95       1.0  0.16471  0.18699  0.29040  1.0000
  C   C96       1.0  0.10330  0.21528  0.30694  1.0000
  Fe  Fe19      1.0  0.31567  0.21964  0.09083  1.0000
  H   H145      1.0  0.26050  0.22493  0.03883  1.0000
  H   H146      1.0  0.10634  0.22717  0.23377  1.0000
  H   H147      1.0  0.32129  0.18352  0.05194  1.0000
  H   H148      1.0  0.26915  0.21130  0.06544  1.0000
  H   H149      1.0  0.31470  0.17460  0.03879  1.0000
  C   C97       1.0  0.28782  0.98875  0.10453  1.0000
  H   H150      1.0  0.01494  0.10112  0.29849  1.0000
  H   H151      1.0  0.99529  0.18521  0.22785  1.0000
  H   H152      1.0  0.27359  0.23047  0.06599  1.0000
  H   H153      1.0  0.17163  0.17821  0.29977  1.0000
  H   H154      1.0  0.09336  0.23092  0.21913  1.0000
  C   C98       1.0  0.32194  0.20288  0.01293  1.0000
  H   H155      1.0  0.18514  0.99217  0.29272  1.0000
  H   H156      1.0  0.24763  0.17687  0.98034  1.0000
  H   H157      1.0  0.23199  0.21945  0.08062  1.0000
  C   C99       1.0  0.19389  0.98655  0.28242  1.0000
  C   C100      1.0  0.31961  0.14537  0.15465  1.0000
  H   H158      1.0  0.10158  0.22345  0.28122  1.0000
  H   H159      1.0  0.16180  0.15553  0.29426  1.0000
  C   C101      1.0  0.23628  0.22278  0.06686  1.0000
  H   H160      1.0  0.05829  0.10019  0.30153  1.0000
  H   H161      1.0  0.32023  0.17889  0.12215  1.0000
  S   S37       1.0  0.28774  0.22648  0.09802  1.0000
  H   H162      1.0  0.25995  0.22045  0.08336  1.0000
  H   H163      1.0  0.99126  0.20683  0.22865  1.0000
  H   H164      1.0  0.13379  0.23293  0.29427  1.0000
  C   C102      1.0  0.32390  0.16642  0.12922  1.0000
  H   H165      1.0  0.04430  0.08737  0.30248  1.0000
  C   C103      1.0  0.20885  0.02719  0.30940  1.0000
  H   H166      1.0  0.32417  0.09175  0.13379  1.0000
  N   N10       1.0  0.24920  0.23280  0.06194  1.0000
  H   H167      1.0  0.22250  0.02733  0.32702  1.0000
  H   H168      1.0  0.09901  0.17551  0.62609  1.0000
  S   S38       1.0  0.27199  0.14618  0.63162  1.0000
  C   C104      1.0  0.23062  0.22209  0.36315  1.0000
  C   C105      1.0  0.02728  0.11254  0.31769  1.0000
  H   H169      1.0  0.19638  0.13062  0.35480  1.0000
  H   H170      1.0  0.01642  0.12290  0.32037  1.0000
  S   S39       1.0  0.19861  0.14957  0.61970  1.0000
  C   C106      1.0  0.21559  0.03489  0.31767  1.0000
  H   H171      1.0  0.03723  0.11334  0.32341  1.0000
  Fe  Fe20      1.0  0.21329  0.14281  0.63949  1.0000
  H   H172      1.0  0.19619  0.11640  0.63688  1.0000
  Fe  Fe21      1.0  0.28614  0.18266  0.40837  1.0000
  Fe  Fe22      1.0  0.27226  0.17770  0.38083  1.0000
  S   S40       1.0  0.29394  0.18485  0.36091  1.0000
  S   S41       1.0  0.25030  0.17398  0.37319  1.0000
  Fe  Fe23      1.0  0.29112  0.20513  0.37394  1.0000
  S   S42       1.0  0.32061  0.17809  0.52777  1.0000
  S   S43       1.0  0.26821  0.19940  0.39266  1.0000
  C   C107      1.0  0.16876  0.15867  0.33951  1.0000
  H   H173      1.0  0.24879  0.16429  0.58146  1.0000
  Fe  Fe24      1.0  0.24247  0.11163  0.32435  1.0000
  H   H174      1.0  0.17608  0.16810  0.59876  1.0000
  S   S44       1.0  0.25893  0.11280  0.34066  1.0000
  H   H175      1.0  0.29767  0.16146  0.63552  1.0000
  C   C108      1.0  0.08847  0.18041  0.63571  1.0000
  S   S45       1.0  0.13728  0.20990  0.62738  1.0000
  S   S46       1.0  0.15169  0.20585  0.32689  1.0000
  H   H176      1.0  0.29274  0.22101  0.44252  1.0000
  H   H177      1.0  0.21058  0.01375  0.31248  1.0000
  C   C109      1.0  0.31258  0.19075  0.46635  1.0000
  S   S47       1.0  0.10554  0.20453  0.33993  1.0000
  S   S48       1.0  0.21739  0.10487  0.33453  1.0000
  H   H178      1.0  0.15792  0.22852  0.44937  1.0000
  H   H179      1.0  0.20886  0.20511  0.34667  1.0000
  H   H180      1.0  0.15788  0.15427  0.33989  1.0000
  Fe  Fe25      1.0  0.15947  0.21030  0.34795  1.0000
  S   S49       1.0  0.17916  0.19101  0.35941  1.0000
  H   H181      1.0  0.28526  0.21557  0.41884  1.0000
  H   H182      1.0  0.31728  0.15292  0.44142  1.0000
  C   C110      1.0  0.19802  0.15914  0.32863  1.0000
  C   C111      1.0  0.19685  0.17002  0.33871  1.0000
  C   C112      1.0  0.18161  0.17520  0.34916  1.0000
  C   C113      1.0  0.16761  0.16940  0.34969  1.0000
  C   C114      1.0  0.17729  0.17308  0.63648  1.0000
  H   H183      1.0  0.25525  0.23151  0.45469  1.0000
  H   H184      1.0  0.20755  0.17490  0.33790  1.0000
  H   H185      1.0  0.15573  0.17366  0.35756  1.0000
  N   N11       1.0  0.09268  0.19292  0.64194  1.0000
  S   S50       1.0  0.28006  0.18164  0.43615  1.0000
  H   H186      1.0  0.20567  0.11795  0.40374  1.0000
  H   H187      1.0  0.16779  0.22320  0.62794  1.0000
  H   H188      1.0  0.31266  0.20707  0.33609  1.0000
  S   S51       1.0  0.18498  0.14078  0.31578  1.0000
  Fe  Fe26      1.0  0.21026  0.12394  0.31232  1.0000
  C   C115      1.0  0.29997  0.23267  0.57784  1.0000
  C   C116      1.0  0.21651  0.11020  0.60781  1.0000
  C   C117      1.0  0.20772  0.20836  0.37719  1.0000
  C   C118      1.0  0.30900  0.18791  0.43987  1.0000
  H   H189      1.0  0.20414  0.21532  0.38733  1.0000
  C   C119      1.0  0.21707  0.08774  0.63224  1.0000
  C   C120      1.0  0.27352  0.16888  0.57612  1.0000
  H   H190      1.0  0.23989  0.21048  0.36677  1.0000
  C   C121      1.0  0.09294  0.19045  0.32190  1.0000
  S   S52       1.0  0.30877  0.19035  0.39051  1.0000
  H   H191      1.0  0.27201  0.23053  0.54993  1.0000
  H   H192      1.0  0.21642  0.19638  0.38108  1.0000
  C   C122      1.0  0.18176  0.16643  0.62223  1.0000
  H   H193      1.0  0.19335  0.15095  0.38040  1.0000
  C   C123      1.0  0.28683  0.18504  0.46443  1.0000
  H   H194      1.0  0.18962  0.11311  0.36952  1.0000
  Fe  Fe27      1.0  0.30020  0.22482  0.52424  1.0000
  H   H195      1.0  0.27449  0.18274  0.47042  1.0000
  H   H196      1.0  0.30684  0.15415  0.42548  1.0000
  C   C124      1.0  0.25937  0.16335  0.58656  1.0000
  C   C125      1.0  0.25352  0.15748  0.36313  1.0000
  C   C126      1.0  0.24216  0.15779  0.35381  1.0000
  C   C127      1.0  0.24410  0.14453  0.34619  1.0000
  C   C128      1.0  0.25709  0.13056  0.34835  1.0000
  C   C129      1.0  0.26849  0.13029  0.35759  1.0000
  C   C130      1.0  0.26684  0.14377  0.36479  1.0000
  H   H197      1.0  0.23179  0.16828  0.35248  1.0000
  H   H198      1.0  0.23539  0.14496  0.33890  1.0000
  H   H199      1.0  0.27860  0.11954  0.35928  1.0000
  H   H200      1.0  0.27566  0.14336  0.37195  1.0000
  H   H201      1.0  0.30642  0.21929  0.57912  1.0000
  S   S53       1.0  0.30240  0.20755  0.54888  1.0000
  Fe  Fe28      1.0  0.22581  0.08731  0.31717  1.0000
  H   H202      1.0  0.14554  0.17038  0.31657  1.0000
  C   C131      1.0  0.15440  0.19318  0.62575  1.0000
  C   C132      1.0  0.20064  0.08919  0.61280  1.0000
  C   C133      1.0  0.29299  0.18501  0.44743  1.0000
  Fe  Fe29      1.0  0.30967  0.16940  0.37905  1.0000
  Fe  Fe30      1.0  0.12586  0.21781  0.33839  1.0000
  H   H203      1.0  0.18374  0.21343  0.61299  1.0000
  H   H204      1.0  0.24777  0.15246  0.61146  1.0000
  H   H205      1.0  0.22144  0.09475  0.63883  1.0000
  C   C134      1.0  0.29032  0.17285  0.64017  1.0000
  H   H206      1.0  0.19312  0.08066  0.62224  1.0000
  H   H207      1.0  0.29725  0.18298  0.63391  1.0000
  H   H208      1.0  0.09956  0.21672  0.63235  1.0000
  H   H209      1.0  0.26576  0.21317  0.44671  1.0000
  H   H210      1.0  0.11862  0.18082  0.63999  1.0000
  H   H211      1.0  0.22106  0.11798  0.61337  1.0000
  S   S54       1.0  0.23659  0.12295  0.63654  1.0000
  H   H212      1.0  0.22476  0.11962  0.35884  1.0000
  C   C135      1.0  0.15898  0.18659  0.61151  1.0000
  H   H213      1.0  0.29733  0.15949  0.60493  1.0000
  C   C136      1.0  0.28665  0.16070  0.59990  1.0000
  C   C137      1.0  0.27249  0.15508  0.61029  1.0000
  N   N12       1.0  0.21546  0.21823  0.36124  1.0000
  H   H214      1.0  0.10739  0.20294  0.61832  1.0000
  H   H215      1.0  0.22762  0.22936  0.37297  1.0000
  H   H216      1.0  0.08565  0.21314  0.62196  1.0000
  H   H217      1.0  0.18466  0.12608  0.40076  1.0000
  H   H218      1.0  0.21006  0.07898  0.64200  1.0000
  H   H219      1.0  0.16756  0.22888  0.59154  1.0000
  H   H220      1.0  0.30917  0.13562  0.44151  1.0000
  C   C138      1.0  0.17259  0.17319  0.60979  1.0000
  S   S55       1.0  0.13344  0.22009  0.36090  1.0000
  C   C139      1.0  0.09642  0.20703  0.62801  1.0000
  C   C140      1.0  0.19162  0.12578  0.36827  1.0000
  C   C141      1.0  0.17954  0.22465  0.61852  1.0000
  H   H221      1.0  0.09045  0.18124  0.33331  1.0000
  H   H222      1.0  0.18438  0.11858  0.62185  1.0000
  H   H223      1.0  0.20894  0.11908  0.59905  1.0000
  C   C142      1.0  0.20545  0.14252  0.37632  1.0000
  C   C143      1.0  0.25880  0.15660  0.60359  1.0000
  H   H224      1.0  0.21439  0.14279  0.38353  1.0000
  S   S56       1.0  0.22259  0.06081  0.32494  1.0000
  H   H225      1.0  0.29816  0.17178  0.57486  1.0000
  C   C144      1.0  0.19212  0.10925  0.63020  1.0000
  H   H226      1.0  0.20969  0.15550  0.32024  1.0000
  H   H227      1.0  0.17927  0.13399  0.37198  1.0000
  H   H228      1.0  0.31994  0.13619  0.40476  1.0000
  H   H229      1.0  0.31387  0.18804  0.42678  1.0000
  Fe  Fe31      1.0  0.29449  0.18990  0.53914  1.0000
  H   H230      1.0  0.19533  0.10550  0.39778  1.0000
  Fe  Fe32      1.0  0.31667  0.19781  0.50455  1.0000
  H   H231      1.0  0.21894  0.10180  0.37375  1.0000
  H   H232      1.0  0.29165  0.18791  0.48693  1.0000
  C   C145      1.0  0.28714  0.16766  0.58285  1.0000
  N   N13       1.0  0.20346  0.12540  0.37822  1.0000
  C   C146      1.0  0.18389  0.15372  0.32882  1.0000
  C   C147      1.0  0.31556  0.14564  0.43328  1.0000
  H   H233      1.0  0.22919  0.19675  0.35128  1.0000
  H   H234      1.0  0.22934  0.11478  0.37899  1.0000
  H   H235      1.0  0.19732  0.23078  0.58707  1.0000
  C   C148      1.0  0.29652  0.18800  0.47383  1.0000
  H   H236      1.0  0.21125  0.08140  0.60553  1.0000
  S   S57       1.0  0.28821  0.16029  0.39819  1.0000
  S   S58       1.0  0.28996  0.20817  0.51539  1.0000
  C   C149      1.0  0.10022  0.20344  0.32170  1.0000
  H   H237      1.0  0.19262  0.09739  0.60413  1.0000
  H   H238      1.0  0.21038  0.14803  0.36312  1.0000
  C   C150      1.0  0.21980  0.11491  0.37228  1.0000
  H   H239      1.0  0.02328  0.10060  0.32413  1.0000
  C   C151      1.0  0.19698  0.11842  0.39593  1.0000
  H   H240      1.0  0.19624  0.20520  0.37619  1.0000
  S   S59       1.0  0.27378  0.17695  0.55474  1.0000
  H   H241      1.0  0.15199  0.19183  0.60179  1.0000
  H   H242      1.0  0.22563  0.21564  0.33589  1.0000
  H   H243      1.0  0.07735  0.18581  0.63005  1.0000
  H   H244      1.0  0.27834  0.17642  0.63594  1.0000
  C   C152      1.0  0.21343  0.05221  0.31403  1.0000
  C   C153      1.0  0.27863  0.22883  0.41596  1.0000
  H   H245      1.0  0.22762  0.10306  0.60045  1.0000
  S   S60       1.0  0.29475  0.23037  0.35901  1.0000
  H   H246      1.0  0.18910  0.22445  0.62521  1.0000
  H   H247      1.0  0.22836  0.08016  0.62554  1.0000
  C   C154      1.0  0.16352  0.18646  0.63828  1.0000
  N   N14       1.0  0.20660  0.09910  0.62076  1.0000
  H   H248      1.0  0.32337  0.11789  0.42088  1.0000
  C   C155      1.0  0.31877  0.19065  0.44933  1.0000
  C   C156      1.0  0.21998  0.20853  0.34818  1.0000
  C   C157      1.0  0.26014  0.22665  0.44310  1.0000
  Fe  Fe33      1.0  0.15463  0.23170  0.31428  1.0000
  H   H249      1.0  0.24933  0.22757  0.43773  1.0000
  H   H250      1.0  0.23683  0.22950  0.35136  1.0000
  H   H251      1.0  0.18396  0.10137  0.63963  1.0000
  H   H252      1.0  0.26822  0.22929  0.41026  1.0000
  H   H253      1.0  0.17307  0.23164  0.39021  1.0000
  H   H254      1.0  0.19165  0.23139  0.35558  1.0000
  H   H255      1.0  0.13471  0.19160  0.31140  1.0000
  H   H256      1.0  0.22878  0.07975  0.73502  1.0000
  Fe  Fe34      1.0  0.22195  0.06183  0.77428  1.0000
  S   S61       1.0  0.24533  0.04996  0.75876  1.0000
  S   S62       1.0  0.19871  0.06659  0.76486  1.0000
  Fe  Fe35      1.0  0.24050  0.06896  0.79653  1.0000
  S   S63       1.0  0.23448  0.08412  0.81632  1.0000
  Fe  Fe36      1.0  0.25574  0.07081  0.75978  1.0000
  H   H257      1.0  0.21541  0.10692  0.69673  1.0000
  S   S64       1.0  0.23170  0.08386  0.77335  1.0000
  S   S65       1.0  0.22836  0.04767  0.79878  1.0000
  Fe  Fe37      1.0  0.26010  0.17255  0.85262  1.0000
  S   S66       1.0  0.25926  0.14649  0.86727  1.0000
  S   S67       1.0  0.23778  0.19256  0.84737  1.0000
  Fe  Fe38      1.0  0.29773  0.16537  0.84220  1.0000
  S   S68       1.0  0.29988  0.13897  0.85674  1.0000
  C   C158      1.0  0.24780  0.18062  0.93976  1.0000
  Fe  Fe39      1.0  0.27900  0.13835  0.84582  1.0000
  S   S69       1.0  0.28493  0.11714  0.83246  1.0000
  Fe  Fe40      1.0  0.28016  0.14943  0.87696  1.0000
  S   S70       1.0  0.27927  0.13813  0.90453  1.0000
  S   S71       1.0  0.27786  0.16420  0.83043  1.0000
  S   S72       1.0  0.27981  0.17615  0.86333  1.0000
  S   S73       1.0  0.07793  0.16909  0.78155  1.0000
  H   H258      1.0  0.19590  0.10237  0.66537  1.0000
  H   H259      1.0  0.04490  0.16631  0.80156  1.0000
  C   C159      1.0  0.12200  0.08436  0.70635  1.0000
  H   H260      1.0  0.28178  0.11263  0.71340  1.0000
  H   H261      1.0  0.29229  0.14897  0.77834  1.0000
  S   S74       1.0  0.17283  0.19582  0.90448  1.0000
  H   H262      1.0  0.19693  0.10046  0.70975  1.0000
  H   H263      1.0  0.27767  0.12902  0.93976  1.0000
  H   H264      1.0  0.28702  0.14693  0.80057  1.0000
  C   C160      1.0  0.22213  0.08435  0.72457  1.0000
  H   H265      1.0  0.08884  0.08314  0.73922  1.0000
  H   H266      1.0  0.20861  0.20811  0.75032  1.0000
  H   H267      1.0  0.31253  0.22830  0.83149  1.0000
  Fe  Fe41      1.0  0.15868  0.00101  0.70436  1.0000
  S   S75       1.0  0.15352  0.99510  0.73221  1.0000
  N   N15       1.0  0.09725  0.98850  0.72286  1.0000
  Fe  Fe42      1.0  0.15748  0.03757  0.70188  1.0000
  S   S76       1.0  0.15159  0.03469  0.72952  1.0000
  H   H268      1.0  0.25908  0.11159  0.86452  1.0000
  Fe  Fe43      1.0  0.17141  0.01131  0.72899  1.0000
  S   S77       1.0  0.19106  0.00404  0.74412  1.0000
  Fe  Fe44      1.0  0.13428  0.01905  0.72997  1.0000
  S   S78       1.0  0.10964  0.02057  0.74829  1.0000
  S   S79       1.0  0.17847  0.01510  0.70123  1.0000
  S   S80       1.0  0.13816  0.02402  0.70221  1.0000
  Fe  Fe45      1.0  0.03101  0.12366  0.75323  1.0000
  S   S81       1.0  0.02755  0.14518  0.73173  1.0000
  S   S82       1.0  0.02576  0.13049  0.77799  1.0000
  Fe  Fe46      1.0  0.03886  0.09813  0.73193  1.0000
  S   S83       1.0  0.03556  0.11782  0.70884  1.0000
  S   S84       1.0  0.04620  0.07205  0.72763  1.0000
  Fe  Fe47      1.0  0.05028  0.13054  0.71756  1.0000
  N   N16       1.0  0.21434  0.10229  0.72286  1.0000
  Fe  Fe48      1.0  0.01313  0.13027  0.72539  1.0000
  N   N17       1.0  0.20063  0.23093  0.73337  1.0000
  S   S85       1.0  0.05501  0.11003  0.73970  1.0000
  S   S86       1.0  0.01510  0.10955  0.74788  1.0000
  Fe  Fe49      1.0  0.06071  0.22584  0.79272  1.0000
  Fe  Fe50      1.0  0.13012  0.21817  0.65147  1.0000
  H   H269      1.0  0.07828  0.22393  0.74529  1.0000
  H   H270      1.0  0.00895  0.18631  0.75950  1.0000
  H   H271      1.0  0.31333  0.21745  0.77132  1.0000
  S   S87       1.0  0.26615  0.01004  0.78436  1.0000
  H   H272      1.0  0.25006  0.16986  0.70656  1.0000
  H   H273      1.0  0.22237  0.14659  0.75686  1.0000
  C   C161      1.0  0.23702  0.16937  0.71055  1.0000
  H   H274      1.0  0.11269  0.00502  0.72157  1.0000
  H   H275      1.0  0.10317  0.06633  0.73076  1.0000
  H   H276      1.0  0.25713  0.00950  0.75325  1.0000
  C   C162      1.0  0.09300  0.03623  0.74198  1.0000
  C   C163      1.0  0.09129  0.04049  0.72545  1.0000
  C   C164      1.0  0.07702  0.05182  0.72103  1.0000
  C   C165      1.0  0.06483  0.05954  0.73292  1.0000
  C   C166      1.0  0.06695  0.05588  0.74926  1.0000
  C   C167      1.0  0.08086  0.04399  0.75385  1.0000
  H   H277      1.0  0.10063  0.03468  0.71618  1.0000
  H   H278      1.0  0.07529  0.05452  0.70842  1.0000
  H   H279      1.0  0.05746  0.06161  0.75854  1.0000
  H   H280      1.0  0.08212  0.04071  0.76666  1.0000
  C   C168      1.0  0.22728  0.17533  0.72466  1.0000
  H   H281      1.0  0.05626  0.16229  0.87807  1.0000
  H   H282      1.0  0.18436  0.16786  0.64614  1.0000
  C   C169      1.0  0.28411  0.09495  0.75371  1.0000
  Fe  Fe51      1.0  0.25279  0.03711  0.78300  1.0000
  S   S88       1.0  0.22439  0.16017  0.64643  1.0000
  H   H283      1.0  0.30472  0.17318  0.77544  1.0000
  H   H284      1.0  0.13177  0.08342  0.71311  1.0000
  C   C170      1.0  0.30616  0.21768  0.74902  1.0000
  H   H285      1.0  0.28556  0.14440  0.66203  1.0000
  H   H286      1.0  0.03313  0.20078  0.85437  1.0000
  C   C171      1.0  0.06308  0.15888  0.78041  1.0000
  C   C172      1.0  0.06670  0.14995  0.76790  1.0000
  C   C173      1.0  0.05513  0.14150  0.76692  1.0000
  C   C174      1.0  0.04009  0.14154  0.77874  1.0000
  C   C175      1.0  0.03640  0.15058  0.79118  1.0000
  C   C176      1.0  0.04779  0.15941  0.79189  1.0000
  H   H287      1.0  0.07849  0.14950  0.75899  1.0000
  H   H288      1.0  0.05803  0.13466  0.75723  1.0000
  H   H289      1.0  0.02477  0.15070  0.80034  1.0000
  C   C177      1.0  0.09042  0.18058  0.69332  1.0000
  H   H290      1.0  0.02150  0.19591  0.89250  1.0000
  H   H291      1.0  0.11687  0.21246  0.87649  1.0000
  C   C178      1.0  0.10176  0.07924  0.73208  1.0000
  S   S89       1.0  0.04590  0.20893  0.79025  1.0000
  C   C179      1.0  0.25607  0.10414  0.87742  1.0000
  C   C180      1.0  0.21965  0.19144  0.86303  1.0000
  C   C181      1.0  0.20446  0.20122  0.85952  1.0000
  C   C182      1.0  0.19011  0.20240  0.87223  1.0000
  C   C183      1.0  0.19070  0.19341  0.88846  1.0000
  C   C184      1.0  0.20576  0.18303  0.89190  1.0000
  C   C185      1.0  0.22030  0.18216  0.87920  1.0000
  H   H292      1.0  0.20382  0.20808  0.84697  1.0000
  H   H293      1.0  0.17858  0.21023  0.86938  1.0000
  H   H294      1.0  0.20627  0.17605  0.90445  1.0000
  H   H295      1.0  0.23204  0.17465  0.88201  1.0000
  C   C186      1.0  0.28542  0.14709  0.91771  1.0000
  C   C187      1.0  0.29256  0.16110  0.91152  1.0000
  C   C188      1.0  0.29751  0.16771  0.92235  1.0000
  C   C189      1.0  0.29523  0.16052  0.93948  1.0000
  H   H296      1.0  0.29449  0.16672  0.89836  1.0000
  H   H297      1.0  0.19165  0.09818  0.74045  1.0000
  H   H298      1.0  0.24253  0.16302  0.97108  1.0000
  H   H299      1.0  0.24619  0.09768  0.87792  1.0000
  H   H300      1.0  0.26754  0.02787  0.72722  1.0000
  H   H301      1.0  0.26492  0.18877  0.66079  1.0000
  H   H302      1.0  0.18859  0.22028  0.75816  1.0000
  H   H303      1.0  0.09203  0.98383  0.74960  1.0000
  H   H304      1.0  0.09155  0.20007  0.76446  1.0000
  H   H305      1.0  0.04759  0.16787  0.70887  1.0000
  C   C190      1.0  0.30900  0.22295  0.73171  1.0000
  H   H306      1.0  0.26613  0.15917  0.66268  1.0000
  C   C191      1.0  0.19679  0.04908  0.75922  1.0000
  C   C192      1.0  0.20319  0.03295  0.76744  1.0000
  C   C193      1.0  0.20132  0.01908  0.76285  1.0000
  C   C194      1.0  0.19326  0.02138  0.74992  1.0000
  C   C195      1.0  0.18745  0.03752  0.74135  1.0000
  C   C196      1.0  0.18896  0.05134  0.74616  1.0000
  H   H307      1.0  0.20927  0.03116  0.77754  1.0000
  H   H308      1.0  0.20603  0.00662  0.76941  1.0000
  H   H309      1.0  0.18203  0.03942  0.73081  1.0000
  H   H310      1.0  0.18420  0.06379  0.73962  1.0000
  Fe  Fe52      1.0  0.07067  0.20367  0.82435  1.0000
  C   C197      1.0  0.24866  0.09384  0.81982  1.0000
  C   C198      1.0  0.26586  0.08934  0.81376  1.0000
  C   C199      1.0  0.27676  0.09687  0.81747  1.0000
  C   C200      1.0  0.27058  0.10918  0.82695  1.0000
  C   C201      1.0  0.25334  0.11419  0.83240  1.0000
  C   C202      1.0  0.24246  0.10639  0.82902  1.0000
  H   H311      1.0  0.27078  0.07974  0.80661  1.0000
  H   H312      1.0  0.29009  0.09295  0.81314  1.0000
  H   H313      1.0  0.24837  0.12388  0.83943  1.0000
  H   H314      1.0  0.22914  0.11005  0.83360  1.0000
  C   C203      1.0  0.20614  0.10799  0.70856  1.0000
  H   H315      1.0  0.10617  0.11646  0.70582  1.0000
  C   C204      1.0  0.17961  0.08518  0.67502  1.0000
  C   C205      1.0  0.23760  0.99767  0.79149  1.0000
  S   S90       1.0  0.01056  0.20211  0.83179  1.0000
  H   H316      1.0  0.24053  0.99949  0.75499  1.0000
  S   S91       1.0  0.15910  0.06308  0.68589  1.0000
  H   H317      1.0  0.28883  0.07116  0.87398  1.0000
  H   H318      1.0  0.07711  0.99730  0.70994  1.0000
  S   S92       1.0  0.26559  0.05720  0.78277  1.0000
  N   N18       1.0  0.04433  0.18829  0.87546  1.0000
  C   C206      1.0  0.05320  0.17356  0.86827  1.0000
  C   C207      1.0  0.02846  0.18508  0.88678  1.0000
  C   C208      1.0  0.04076  0.20294  0.86196  1.0000
  C   C209      1.0  0.05490  0.19160  0.88478  1.0000
  H   H319      1.0  0.06519  0.17562  0.85953  1.0000
  H   H320      1.0  0.04559  0.17068  0.86115  1.0000
  H   H321      1.0  0.30926  0.14328  0.81561  1.0000
  C   C210      1.0  0.29701  0.14320  0.78996  1.0000
  C   C211      1.0  0.07938  0.22678  0.85465  1.0000
  H   H322      1.0  0.03063  0.17398  0.89703  1.0000
  H   H323      1.0  0.22582  0.21963  0.72310  1.0000
  H   H324      1.0  0.29970  0.17080  0.79759  1.0000
  H   H325      1.0  0.25476  0.20369  0.96283  1.0000
  Fe  Fe53      1.0  0.24725  0.13952  0.64513  1.0000
  C   C212      1.0  0.19316  0.22266  0.72505  1.0000
  H   H326      1.0  0.28370  0.19576  0.65833  1.0000
  H   H327      1.0  0.25682  0.07627  0.90132  1.0000
  H   H328      1.0  0.25881  0.03154  0.70928  1.0000
  C   C213      1.0  0.29323  0.10517  0.75609  1.0000
  H   H329      1.0  0.20104  0.21021  0.72349  1.0000
  S   S93       1.0  0.04919  0.22528  0.81990  1.0000
  Fe  Fe54      1.0  0.13584  0.22051  0.68401  1.0000
  C   C214      1.0  0.24556  0.01095  0.74887  1.0000
  H   H330      1.0  0.08559  0.16960  0.64597  1.0000
  H   H331      1.0  0.14491  0.22895  0.97531  1.0000
  H   H332      1.0  0.15140  0.22090  0.82413  1.0000
  H   H333      1.0  0.08474  0.00495  0.73966  1.0000
  H   H334      1.0  0.11248  0.18281  0.72687  1.0000
  H   H335      1.0  0.08791  0.01292  0.70914  1.0000
  H   H336      1.0  0.01596  0.16447  0.76004  1.0000
  C   C215      1.0  0.11378  0.99191  0.72112  1.0000
  H   H337      1.0  0.06712  0.19369  0.87660  1.0000
  H   H338      1.0  0.14665  0.22555  0.73335  1.0000
  C   C216      1.0  0.28311  0.13991  0.93486  1.0000
  H   H339      1.0  0.25326  0.20962  0.94135  1.0000
  H   H340      1.0  0.11057  0.07871  0.73978  1.0000
  C   C217      1.0  0.09061  0.21165  0.85302  1.0000
  H   H341      1.0  0.00677  0.22188  0.79898  1.0000
  H   H342      1.0  0.21263  0.07674  0.72716  1.0000
  C   C218      1.0  0.28795  0.14658  0.94571  1.0000
  C   C219      1.0  0.08041  0.19317  0.74133  1.0000
  C   C220      1.0  0.20805  0.07915  0.67876  1.0000
  H   H343      1.0  0.23135  0.08185  0.71300  1.0000
  N   N19       1.0  0.28744  0.16981  0.65849  1.0000
  H   H344      1.0  0.23076  0.00952  0.79448  1.0000
  H   H345      1.0  0.11177  0.20260  0.75199  1.0000
  H   H346      1.0  0.24692  0.04026  0.72688  1.0000
  C   C221      1.0  0.31805  0.21990  0.82308  1.0000
  H   H347      1.0  0.19946  0.12128  0.70732  1.0000
  S   S94       1.0  0.14580  0.22822  0.87408  1.0000
  C   C222      1.0  0.07601  0.19252  0.69743  1.0000
  H   H348      1.0  0.28070  0.08681  0.85768  1.0000
  C   C223      1.0  0.31864  0.13989  0.80449  1.0000
  H   H349      1.0  0.08464  0.17936  0.74409  1.0000
  C   C224      1.0  0.10418  0.20669  0.86084  1.0000
  C   C225      1.0  0.99697  0.21492  0.80391  1.0000
  H   H350      1.0  0.05248  0.20589  0.85341  1.0000
  H   H351      1.0  0.21737  0.13224  0.77639  1.0000
  H   H352      1.0  0.08260  0.22390  0.72351  1.0000
  S   S95       1.0  0.20339  0.13095  0.66576  1.0000
  H   H353      1.0  0.29758  0.13096  0.71774  1.0000
  S   S96       1.0  0.13214  0.23161  0.91316  1.0000
  H   H354      1.0  0.25794  0.12770  0.74617  1.0000
  H   H355      1.0  0.12329  0.07169  0.70434  1.0000
  H   H356      1.0  0.06888  0.23078  0.84866  1.0000
  H   H357      1.0  0.23733  0.10954  0.70900  1.0000
  H   H358      1.0  0.99771  0.10957  0.71413  1.0000
  S   S97       1.0  0.05709  0.18443  0.82438  1.0000
  C   C226      1.0  0.27842  0.15610  0.66621  1.0000
  C   C227      1.0  0.20175  0.10501  0.73817  1.0000
  H   H359      1.0  0.26103  0.17441  0.93561  1.0000
  H   H360      1.0  0.23348  0.10805  0.73090  1.0000
  H   H361      1.0  0.30708  0.19969  0.83968  1.0000
  H   H362      1.0  0.00749  0.17807  0.74285  1.0000
  S   S98       1.0  0.23546  0.18383  0.73630  1.0000
  N   N20       1.0  0.10508  0.09064  0.71565  1.0000
  H   H363      1.0  0.19583  0.11847  0.73737  1.0000
  H   H364      1.0  0.29900  0.12944  0.79175  1.0000
  N   N21       1.0  0.27109  0.09222  0.88207  1.0000
  C   C228      1.0  0.19109  0.05816  0.69050  1.0000
  H   H365      1.0  0.22736  0.21919  0.86708  1.0000
  C   C229      1.0  0.22777  0.19514  0.95994  1.0000
  H   H366      1.0  0.09338  0.07906  0.70388  1.0000
  H   H367      1.0  0.11322  0.10736  0.72497  1.0000
  Fe  Fe55      1.0  0.29524  0.18849  0.70616  1.0000
  H   H368      1.0  0.22555  0.19987  0.97144  1.0000
  C   C230      1.0  0.23314  0.01631  0.72526  1.0000
  H   H369      1.0  0.11285  0.19494  0.85977  1.0000
  H   H370      1.0  0.20737  0.10042  0.74932  1.0000
  C   C231      1.0  0.09264  0.09146  0.70619  1.0000
  C   C232      1.0  0.10395  0.10746  0.71797  1.0000
  H   H371      1.0  0.12503  0.09261  0.69386  1.0000
  H   H372      1.0  0.32132  0.14989  0.76270  1.0000
  C   C233      1.0  0.25622  0.19879  0.95161  1.0000
  S   S99       1.0  0.30692  0.13256  0.74709  1.0000
  H   H373      1.0  0.18978  0.04580  0.69750  1.0000
  S   S100      1.0  0.26722  0.08603  0.73566  1.0000
  H   H374      1.0  0.25182  0.14844  0.78088  1.0000
  H   H375      1.0  0.21929  0.18643  0.96258  1.0000
  C   C234      1.0  0.08647  0.99174  0.73892  1.0000
  H   H376      1.0  0.23517  0.01821  0.71153  1.0000
  H   H377      1.0  0.99537  0.14687  0.76517  1.0000
  N   N22       1.0  0.09434  0.20151  0.73850  1.0000
  H   H378      1.0  0.07968  0.09572  0.71300  1.0000
  H   H379      1.0  0.09443  0.10038  0.69394  1.0000
  H   H380      1.0  0.09134  0.11253  0.72499  1.0000
  S   S101      1.0  0.08760  0.19783  0.84256  1.0000
  H   H381      1.0  0.28798  0.10793  0.86722  1.0000
  Fe  Fe56      1.0  0.06731  0.18854  0.79694  1.0000
  S   S102      1.0  0.07315  0.13908  0.70076  1.0000
  C   C235      1.0  0.27741  0.08028  0.87096  1.0000
  H   H382      1.0  0.20284  0.17923  0.74068  1.0000
  C   C236      1.0  0.22732  0.11180  0.72013  1.0000
  C   C237      1.0  0.28497  0.11053  0.72531  1.0000
  H   H383      1.0  0.17444  0.98940  0.77835  1.0000
  H   H384      1.0  0.25157  0.14968  0.74494  1.0000
  H   H385      1.0  0.23564  0.16047  0.77007  1.0000
  C   C238      1.0  0.06058  0.18780  0.70333  1.0000
  C   C239      1.0  0.17783  0.06913  0.68386  1.0000
  H   H386      1.0  0.22200  0.12546  0.71815  1.0000
  C   C240      1.0  0.24013  0.14801  0.77776  1.0000
  H   H387      1.0  0.30319  0.17844  0.91739  1.0000
  C   C241      1.0  0.07400  0.15951  0.70021  1.0000
  C   C242      1.0  0.21040  0.17473  0.72975  1.0000
  H   H388      1.0  0.31088  0.17522  0.65768  1.0000
  C   C243      1.0  0.08942  0.16417  0.69458  1.0000
  H   H389      1.0  0.26767  0.13761  0.75577  1.0000
  H   H390      1.0  0.23068  0.14616  0.78965  1.0000
  S   S103      1.0  0.20267  0.15537  0.69551  1.0000
  S   S104      1.0  0.24091  0.12661  0.67212  1.0000
  H   H391      1.0  0.02019  0.18275  0.87997  1.0000
  S   S105      1.0  0.29100  0.20607  0.75948  1.0000
  H   H392      1.0  0.10063  0.15506  0.69121  1.0000
  Fe  Fe57      1.0  0.26310  0.18193  0.73009  1.0000
  C   C244      1.0  0.28408  0.10139  0.88035  1.0000
  H   H393      1.0  0.16002  0.19155  0.64931  1.0000
  C   C245      1.0  0.25499  0.99465  0.78645  1.0000
  H   H394      1.0  0.26791  0.07319  0.87183  1.0000
  C   C246      1.0  0.05957  0.17131  0.70472  1.0000
  S   S106      1.0  0.27523  0.17196  0.75188  1.0000
  H   H395      1.0  0.09834  0.22644  0.73240  1.0000
  C   C247      1.0  0.10745  0.18517  0.64936  1.0000
  C   C248      1.0  0.29781  0.11836  0.74322  1.0000
  H   H396      1.0  0.16935  0.09377  0.67002  1.0000
  C   C249      1.0  0.10125  0.19655  0.75361  1.0000
  C   C250      1.0  0.24896  0.11836  0.77944  1.0000
  H   H397      1.0  0.12229  0.98977  0.70909  1.0000
  S   S107      1.0  0.27418  0.20458  0.72085  1.0000
  H   H398      1.0  0.13693  0.22282  0.84356  1.0000
  C   C251      1.0  0.26678  0.08313  0.89952  1.0000
  S   S108      1.0  0.08290  0.20558  0.79739  1.0000
  H   H399      1.0  0.30202  0.16318  0.67716  1.0000
  C   C252      1.0  0.24994  0.17267  0.96856  1.0000
  C   C253      1.0  0.22969  0.16307  0.70138  1.0000
  H   H400      1.0  0.29546  0.09290  0.88420  1.0000
  S   S109      1.0  0.15007  0.21361  0.70411  1.0000
  S   S110      1.0  0.30425  0.19930  0.67893  1.0000
  H   H401      1.0  0.04935  0.19696  0.70654  1.0000
  C   C254      1.0  0.19463  0.09016  0.67252  1.0000
  C   C255      1.0  0.20620  0.06314  0.68788  1.0000
  H   H402      1.0  0.27781  0.07391  0.90339  1.0000
  H   H403      1.0  0.21647  0.05454  0.69283  1.0000
  H   H404      1.0  0.27956  0.11097  0.88809  1.0000
  C   C256      1.0  0.25559  0.13753  0.75325  1.0000
  H   H405      1.0  0.05764  0.18093  0.89526  1.0000
  N   N23       1.0  0.24296  0.13460  0.76884  1.0000
  H   H406      1.0  0.26386  0.00113  0.71127  1.0000
  H   H407      1.0  0.26220  0.09185  0.90818  1.0000
  C   C257      1.0  0.22720  0.13449  0.76488  1.0000
  H   H408      1.0  0.26066  0.11807  0.78300  1.0000
  C   C258      1.0  0.08813  0.21978  0.73474  1.0000
  Fe  Fe58      1.0  0.28809  0.19318  0.74135  1.0000
  C   C259      1.0  0.20129  0.22105  0.75042  1.0000
  H   H409      1.0  0.23950  0.11551  0.79111  1.0000
  H   H410      1.0  0.09753  0.99752  0.69675  1.0000
  C   C260      1.0  0.00615  0.17558  0.75657  1.0000
  H   H411      1.0  0.31150  0.15357  0.65960  1.0000
  H   H412      1.0  0.25167  0.10797  0.77295  1.0000
  H   H413      1.0  0.22897  0.12448  0.75814  1.0000
  H   H414      1.0  0.07036  0.19641  0.75212  1.0000
  H   H415      1.0  0.07493  0.18864  0.66518  1.0000
  C   C261      1.0  0.31542  0.22172  0.75794  1.0000
  C   C262      1.0  0.08961  0.99954  0.70906  1.0000
  C   C263      1.0  0.27987  0.09770  0.73837  1.0000
  H   H416      1.0  0.28631  0.14078  0.95882  1.0000
  S   S111      1.0  0.30146  0.16955  0.95254  1.0000
  H   H417      1.0  0.27528  0.18341  0.67782  1.0000
  H   H418      1.0  0.10236  0.18390  0.68905  1.0000
  C   C264      1.0  0.29380  0.12096  0.72779  1.0000
  C   C265      1.0  0.07839  0.19904  0.65469  1.0000
  S   S112      1.0  0.28283  0.16659  0.71378  1.0000
  H   H419      1.0  0.29627  0.10315  0.76806  1.0000
  S   S113      1.0  0.12579  0.20225  0.67725  1.0000
  C   C266      1.0  0.20312  0.16853  0.72064  1.0000
  C   C267      1.0  0.25587  0.02904  0.72312  1.0000
  N   N24       1.0  0.31255  0.14823  0.78903  1.0000
  H   H420      1.0  0.23632  0.02147  0.75360  1.0000
  S   S114      1.0  0.22735  0.08497  0.67477  1.0000
  C   C268      1.0  0.26094  0.99938  0.72506  1.0000
  S   S115      1.0  0.07688  0.21347  0.69469  1.0000
  H   H421      1.0  0.10279  0.20006  0.71281  1.0000
  Fe  Fe59      1.0  0.15611  0.22063  0.89711  1.0000
  H   H422      1.0  0.11829  0.20258  0.72193  1.0000
  H   H423      1.0  0.28029  0.08502  0.76380  1.0000
  S   S116      1.0  0.32058  0.17175  0.82330  1.0000
  H   H424      1.0  0.25066  0.11308  0.88582  1.0000
  H   H425      1.0  0.24006  0.17134  0.94186  1.0000
  H   H426      1.0  0.30173  0.21996  0.72481  1.0000
  H   H427      1.0  0.18996  0.16836  0.72452  1.0000
  C   C269      1.0  0.21266  0.16282  0.70641  1.0000
  H   H428      1.0  0.06713  0.20539  0.64945  1.0000
  H   H429      1.0  0.10587  0.18280  0.75696  1.0000
  Fe  Fe60      1.0  0.10142  0.22061  0.68120  1.0000
  H   H430      1.0  0.07470  0.19681  0.73028  1.0000
  Fe  Fe61      1.0  0.21715  0.14596  0.67266  1.0000
  C   C270      1.0  0.99621  0.20403  0.81951  1.0000
  H   H431      1.0  0.03385  0.21426  0.86688  1.0000
  N   N25       1.0  0.24543  0.18681  0.95495  1.0000
  H   H432      1.0  0.24441  0.19093  0.92924  1.0000
  C   C271      1.0  0.30928  0.16651  0.78701  1.0000
  H   H433      1.0  0.23707  0.15861  0.69038  1.0000
  S   S117      1.0  0.31027  0.17909  0.72599  1.0000
  H   H434      1.0  0.22720  0.00537  0.73108  1.0000
  Fe  Fe62      1.0  0.29612  0.15859  0.73489  1.0000
  Fe  Fe63      1.0  0.22751  0.11226  0.66357  1.0000
  H   H435      1.0  0.10524  0.17428  0.65973  1.0000
  C   C272      1.0  0.10651  0.21663  0.87030  1.0000
  H   H436      1.0  0.32070  0.17075  0.78642  1.0000
  Fe  Fe64      1.0  0.03641  0.20615  0.81785  1.0000
  N   N26       1.0  0.24888  0.01393  0.73055  1.0000
  H   H437      1.0  0.22392  0.02742  0.72895  1.0000
  C   C273      1.0  0.21772  0.23218  0.72387  1.0000
  C   C274      1.0  0.27735  0.18511  0.66409  1.0000
  H   H438      1.0  0.26966  0.19285  0.94794  1.0000
  H   H439      1.0  0.07389  0.98923  0.74077  1.0000
  H   H440      1.0  0.26339  0.16658  0.96561  1.0000
  C   C275      1.0  0.10756  0.19653  0.72441  1.0000
  H   H441      1.0  0.22389  0.20595  0.95001  1.0000
  H   H442      1.0  0.04886  0.20293  0.88996  1.0000
  H   H443      1.0  0.22177  0.22885  0.83824  1.0000
  H   H444      1.0  0.27289  0.99720  0.72904  1.0000
  H   H445      1.0  0.27613  0.15339  0.68004  1.0000
  H   H446      1.0  0.12817  0.23159  0.80924  1.0000
  H   H447      1.0  0.11988  0.98390  0.73139  1.0000
  C   C276      1.0  0.09507  0.23153  0.87235  1.0000
  C   C277      1.0  0.14476  0.22964  0.83252  1.0000
  H   H448      1.0  0.20724  0.22671  0.75692  1.0000
  H   H449      1.0  0.21567  0.98747  0.79739  1.0000
  C   C278      1.0  0.31492  0.20374  0.82772  1.0000
  C   C279      1.0  0.30367  0.16520  0.66345  1.0000
  H   H450      1.0  0.11078  0.19421  0.65441  1.0000
  H   H451      1.0  0.32123  0.12608  0.80641  1.0000
  C   C280      1.0  0.21873  0.23093  0.86986  1.0000
  H   H452      1.0  0.25599  0.98779  0.73052  1.0000
  H   H453      1.0  0.08130  0.20813  0.66008  1.0000
  H   H454      1.0  0.32251  0.21515  0.64797  1.0000
  C   C281      1.0  0.32108  0.23239  0.72327  1.0000
  C   C282      1.0  0.15257  0.23233  0.70659  1.0000
  C   C283      1.0  0.32257  0.19262  0.81717  1.0000
  H   H455      1.0  0.18060  0.22072  0.73235  1.0000
  C   C284      1.0  0.22909  0.98515  0.79309  1.0000
  H   H456      1.0  0.99741  0.15825  0.78787  1.0000
  H   H457      1.0  0.19165  0.23016  0.71245  1.0000
  H   H458      1.0  0.20598  0.22829  0.87478  1.0000
  H   H459      1.0  0.15441  0.23284  0.83689  1.0000
  H   H460      1.0  0.10417  0.32882  0.06482  1.0000
  S   S118      1.0  0.14212  0.36261  0.29097  1.0000
  H   H461      1.0  0.23630  0.30980  0.01408  1.0000
  Fe  Fe65      1.0  0.18900  0.39010  0.25795  1.0000
  S   S119      1.0  0.16213  0.40295  0.26393  1.0000
  S   S120      1.0  0.19995  0.38858  0.23117  1.0000
  Fe  Fe66      1.0  0.17009  0.41314  0.28160  1.0000
  C   C285      1.0  0.14439  0.25332  0.97832  1.0000
  Fe  Fe67      1.0  0.15944  0.38044  0.28468  1.0000
  H   H462      1.0  0.23048  0.29628  0.04441  1.0000
  S   S121      1.0  0.19726  0.40170  0.27404  1.0000
  S   S122      1.0  0.18590  0.36704  0.27754  1.0000
  Fe  Fe68      1.0  0.28976  0.38537  0.18308  1.0000
  S   S123      1.0  0.27701  0.39984  0.16213  1.0000
  S   S124      1.0  0.27827  0.38027  0.21048  1.0000
  Fe  Fe69      1.0  0.29735  0.41431  0.15431  1.0000
  Fe  Fe70      1.0  0.29514  0.38148  0.14771  1.0000
  S   S125      1.0  0.29088  0.37004  0.12859  1.0000
  S   S126      1.0  0.30629  0.36577  0.16945  1.0000
  Fe  Fe71      1.0  0.15728  0.28297  0.03226  1.0000
  S   S127      1.0  0.16586  0.26436  0.05377  1.0000
  S   S128      1.0  0.15577  0.31017  0.03083  1.0000
  Fe  Fe72      1.0  0.15073  0.25660  0.01817  1.0000
  H   H463      1.0  0.32024  0.24873  0.11152  1.0000
  Fe  Fe73      1.0  0.14393  0.25373  0.05590  1.0000
  C   C286      1.0  0.10365  0.25601  0.10639  1.0000
  Fe  Fe74      1.0  0.17976  0.24866  0.03526  1.0000
  H   H464      1.0  0.22674  0.33130  0.00725  1.0000
  S   S129      1.0  0.13419  0.27340  0.03531  1.0000
  S   S130      1.0  0.17291  0.26816  0.01314  1.0000
  H   H465      1.0  0.11224  0.25121  0.11470  1.0000
  C   C287      1.0  0.23537  0.32723  0.03631  1.0000
  H   H466      1.0  0.26137  0.43979  0.09304  1.0000
  Fe  Fe75      1.0  0.04389  0.26260  0.13762  1.0000
  S   S131      1.0  0.02624  0.27718  0.15625  1.0000
  S   S132      1.0  0.14281  0.24642  0.00015  1.0000
  Fe  Fe76      1.0  0.04297  0.26109  0.17352  1.0000
  S   S133      1.0  0.05067  0.26914  0.19303  1.0000
  Fe  Fe77      1.0  0.01224  0.25627  0.16404  1.0000
  H   H467      1.0  0.30995  0.27193  0.08000  1.0000
  C   C288      1.0  0.25500  0.43419  0.10576  1.0000
  H   H468      1.0  0.21436  0.31572  0.01427  1.0000
  Fe  Fe78      1.0  0.19955  0.32702  0.09277  1.0000
  S   S134      1.0  0.21276  0.30053  0.09367  1.0000
  S   S135      1.0  0.17672  0.33834  0.08175  1.0000
  Fe  Fe79      1.0  0.22270  0.33343  0.11149  1.0000
  S   S136      1.0  0.23781  0.30714  0.11377  1.0000
  S   S137      1.0  0.22454  0.35198  0.12520  1.0000
  Fe  Fe80      1.0  0.23596  0.31047  0.08729  1.0000
  S   S138      1.0  0.25702  0.30101  0.06756  1.0000
  Fe  Fe81      1.0  0.21317  0.29978  0.11984  1.0000
  S   S139      1.0  0.20466  0.27891  0.13988  1.0000
  S   S140      1.0  0.22279  0.33742  0.08429  1.0000
  S   S141      1.0  0.19803  0.32565  0.11961  1.0000
  Fe  Fe82      1.0  0.11499  0.33437  0.22515  1.0000
  S   S142      1.0  0.13243  0.31227  0.23651  1.0000
  S   S143      1.0  0.11077  0.35861  0.23316  1.0000
  Fe  Fe83      1.0  0.11198  0.31636  0.19965  1.0000
  S   S144      1.0  0.13009  0.29333  0.20875  1.0000
  S   S145      1.0  0.10268  0.31553  0.17753  1.0000
  Fe  Fe84      1.0  0.11564  0.29746  0.23387  1.0000
  S   S146      1.0  0.10737  0.27602  0.25325  1.0000
  Fe  Fe85      1.0  0.14491  0.31070  0.21022  1.0000
  S   S147      1.0  0.17218  0.31071  0.20234  1.0000
  S   S148      1.0  0.09667  0.31971  0.22493  1.0000
  S   S149      1.0  0.12826  0.33352  0.19872  1.0000
  N   N27       1.0  0.11120  0.29416  0.29632  1.0000
  C   C289      1.0  0.15407  0.25744  0.26089  1.0000
  C   C290      1.0  0.14067  0.26605  0.25323  1.0000
  C   C291      1.0  0.12466  0.26309  0.26073  1.0000
  C   C292      1.0  0.12224  0.25081  0.27526  1.0000
  H   H469      1.0  0.31653  0.28965  0.08139  1.0000
  H   H470      1.0  0.16631  0.26024  0.25548  1.0000
  H   H471      1.0  0.14268  0.27534  0.24183  1.0000
  H   H472      1.0  0.08238  0.26211  0.12582  1.0000
  C   C293      1.0  0.19722  0.28600  0.15841  1.0000
  C   C294      1.0  0.20327  0.29876  0.16053  1.0000
  C   C295      1.0  0.19599  0.30579  0.17450  1.0000
  C   C296      1.0  0.18236  0.30039  0.18611  1.0000
  C   C297      1.0  0.17651  0.28741  0.18417  1.0000
  C   C298      1.0  0.18415  0.28001  0.17045  1.0000
  H   H473      1.0  0.21340  0.30341  0.15126  1.0000
  H   H474      1.0  0.20055  0.31583  0.17598  1.0000
  H   H475      1.0  0.16618  0.28302  0.19327  1.0000
  H   H476      1.0  0.17954  0.27007  0.16886  1.0000
  C   C299      1.0  0.26521  0.28002  0.07539  1.0000
  C   C300      1.0  0.25685  0.27153  0.09042  1.0000
  C   C301      1.0  0.26369  0.25495  0.09708  1.0000
  C   C302      1.0  0.27905  0.24688  0.08888  1.0000
  C   C303      1.0  0.28729  0.25523  0.07367  1.0000
  C   C304      1.0  0.28032  0.27179  0.06688  1.0000
  H   H477      1.0  0.24517  0.27774  0.09710  1.0000
  H   H478      1.0  0.25725  0.24851  0.10884  1.0000
  C   C305      1.0  0.25548  0.41041  0.12880  1.0000
  H   H479      1.0  0.28678  0.27830  0.05519  1.0000
  H   H480      1.0  0.25547  0.43466  0.19114  1.0000
  C   C306      1.0  0.06472  0.28260  0.18804  1.0000
  C   C307      1.0  0.06708  0.28837  0.20090  1.0000
  C   C308      1.0  0.07879  0.29827  0.19780  1.0000
  C   C309      1.0  0.08801  0.30288  0.18167  1.0000
  C   C310      1.0  0.08540  0.29747  0.16867  1.0000
  C   C311      1.0  0.07388  0.28725  0.17185  1.0000
  H   H481      1.0  0.05968  0.28530  0.21332  1.0000
  H   H482      1.0  0.08043  0.30263  0.20784  1.0000
  H   H483      1.0  0.09238  0.30108  0.15613  1.0000
  H   H484      1.0  0.07210  0.28296  0.16182  1.0000
  H   H485      1.0  0.27771  0.47699  0.14902  1.0000
  C   C312      1.0  0.17126  0.32945  0.06818  1.0000
  C   C313      1.0  0.17679  0.31252  0.06760  1.0000
  C   C314      1.0  0.17211  0.30625  0.05629  1.0000
  C   C315      1.0  0.16206  0.31694  0.04545  1.0000
  C   C316      1.0  0.15665  0.33378  0.04612  1.0000
  C   C317      1.0  0.16104  0.33994  0.05752  1.0000
  H   H486      1.0  0.18452  0.30426  0.07594  1.0000
  H   H487      1.0  0.17644  0.29323  0.05583  1.0000
  H   H488      1.0  0.14894  0.34215  0.03780  1.0000
  H   H489      1.0  0.15670  0.35301  0.05787  1.0000
  C   C318      1.0  0.10948  0.25590  0.08944  1.0000
  C   C319      1.0  0.30637  0.47549  0.17073  1.0000
  C   C320      1.0  0.20591  0.33501  0.03655  1.0000
  C   C321      1.0  0.07538  0.26754  0.10230  1.0000
  C   C322      1.0  0.08130  0.26803  0.08520  1.0000
  C   C323      1.0  0.09835  0.26226  0.07874  1.0000
  S   S150      1.0  0.06128  0.24773  0.15450  1.0000
  H   H490      1.0  0.10274  0.26210  0.06565  1.0000
  H   H491      1.0  0.07261  0.27245  0.07701  1.0000
  H   H492      1.0  0.25385  0.40488  0.10007  1.0000
  C   C324      1.0  0.27280  0.36333  0.12909  1.0000
  C   C325      1.0  0.25814  0.36614  0.14120  1.0000
  C   C326      1.0  0.24352  0.36235  0.13998  1.0000
  C   C327      1.0  0.24354  0.35521  0.12700  1.0000
  C   C328      1.0  0.25836  0.35182  0.11526  1.0000
  C   C329      1.0  0.27286  0.35603  0.11623  1.0000
  H   H493      1.0  0.25797  0.37146  0.15135  1.0000
  H   H494      1.0  0.23211  0.36492  0.14915  1.0000
  H   H495      1.0  0.25849  0.34642  0.10517  1.0000
  H   H496      1.0  0.28415  0.35380  0.10681  1.0000
  C   C330      1.0  0.22171  0.38615  0.22551  1.0000
  C   C331      1.0  0.22983  0.38704  0.20876  1.0000
  C   C332      1.0  0.24723  0.38515  0.20402  1.0000
  C   C333      1.0  0.25654  0.38226  0.21605  1.0000
  C   C334      1.0  0.24842  0.38127  0.23280  1.0000
  C   C335      1.0  0.23102  0.38327  0.23753  1.0000
  H   H497      1.0  0.22265  0.38917  0.19946  1.0000
  H   H498      1.0  0.25342  0.38568  0.19113  1.0000
  H   H499      1.0  0.25561  0.37891  0.24216  1.0000
  H   H500      1.0  0.22484  0.38237  0.25049  1.0000
  C   C336      1.0  0.13391  0.36149  0.27457  1.0000
  C   C337      1.0  0.13121  0.34621  0.27391  1.0000
  C   C338      1.0  0.12449  0.34509  0.26106  1.0000
  C   C339      1.0  0.11993  0.35935  0.24907  1.0000
  C   C340      1.0  0.12257  0.37461  0.24980  1.0000
  C   C341      1.0  0.12980  0.37564  0.26232  1.0000
  H   H501      1.0  0.13441  0.33522  0.28331  1.0000
  H   H502      1.0  0.12242  0.33332  0.26065  1.0000
  H   H503      1.0  0.11899  0.38572  0.24065  1.0000
  H   H504      1.0  0.13171  0.38751  0.26277  1.0000
  H   H505      1.0  0.12808  0.30519  0.09765  1.0000
  N   N28       1.0  0.27177  0.43159  0.20750  1.0000
  H   H506      1.0  0.30103  0.25153  0.10542  1.0000
  H   H507      1.0  0.23752  0.33918  0.02765  1.0000
  C   C342      1.0  0.26620  0.40643  0.10066  1.0000
  S   S151      1.0  0.16332  0.44099  0.28100  1.0000
  Fe  Fe86      1.0  0.19117  0.37981  0.29450  1.0000
  S   S152      1.0  0.02763  0.24140  0.18291  1.0000
  C   C343      1.0  0.15139  0.24593  0.27600  1.0000
  C   C344      1.0  0.29019  0.28408  0.10632  1.0000
  H   H508      1.0  0.29058  0.40909  0.21106  1.0000
  H   H509      1.0  0.26894  0.41447  0.19471  1.0000
  H   H510      1.0  0.25363  0.44278  0.11399  1.0000
  C   C345      1.0  0.28799  0.47184  0.15530  1.0000
  H   H511      1.0  0.29202  0.42513  0.22011  1.0000
  S   S153      1.0  0.30875  0.40106  0.17626  1.0000
  N   N29       1.0  0.14886  0.32178  0.14743  1.0000
  C   C346      1.0  0.13351  0.33499  0.14872  1.0000
  C   C347      1.0  0.15536  0.32025  0.12991  1.0000
  C   C348      1.0  0.14508  0.30574  0.15782  1.0000
  C   C349      1.0  0.16154  0.32610  0.15333  1.0000
  H   H512      1.0  0.12839  0.33650  0.16180  1.0000
  H   H513      1.0  0.12349  0.33195  0.14477  1.0000
  H   H514      1.0  0.13584  0.34724  0.14091  1.0000
  H   H515      1.0  0.15860  0.33205  0.12168  1.0000
  H   H516      1.0  0.16689  0.31025  0.12858  1.0000
  H   H517      1.0  0.14607  0.31711  0.12502  1.0000
  H   H518      1.0  0.14072  0.30627  0.17121  1.0000
  H   H519      1.0  0.15626  0.29539  0.15671  1.0000
  H   H520      1.0  0.13502  0.30239  0.15424  1.0000
  H   H521      1.0  0.15734  0.32684  0.16668  1.0000
  H   H522      1.0  0.16456  0.33827  0.14600  1.0000
  H   H523      1.0  0.17335  0.31656  0.15217  1.0000
  H   H524      1.0  0.28045  0.42621  0.12173  1.0000
  H   H525      1.0  0.28879  0.40590  0.11716  1.0000
  H   H526      1.0  0.31027  0.27866  0.12755  1.0000
  C   C350      1.0  0.18409  0.47175  0.29397  1.0000
  H   H527      1.0  0.10987  0.24855  0.28106  1.0000
  H   H528      1.0  0.20287  0.33719  0.04941  1.0000
  H   H529      1.0  0.30069  0.25441  0.12547  1.0000
  C   C351      1.0  0.31622  0.27636  0.08726  1.0000
  S   S154      1.0  0.05381  0.27331  0.11039  1.0000
  H   H530      1.0  0.07878  0.25850  0.25743  1.0000
  H   H531      1.0  0.31681  0.29353  0.10901  1.0000
  S   S155      1.0  0.16704  0.23760  0.28733  1.0000
  H   H532      1.0  0.23309  0.32897  0.04924  1.0000
  C   C352      1.0  0.30915  0.44842  0.16460  1.0000
  C   C353      1.0  0.13564  0.24220  0.28287  1.0000
  H   H533      1.0  0.26194  0.42837  0.23390  1.0000
  H   H534      1.0  0.25333  0.41866  0.13756  1.0000
  H   H535      1.0  0.14873  0.48274  0.29024  1.0000
  H   H536      1.0  0.24224  0.43379  0.10516  1.0000
  N   N30       1.0  0.22126  0.32202  0.03376  1.0000
  C   C354      1.0  0.08494  0.24633  0.25386  1.0000
  C   C355      1.0  0.22484  0.31961  0.01657  1.0000
  H   H537      1.0  0.16950  0.33232  0.22493  1.0000
  H   H538      1.0  0.18042  0.34010  0.24505  1.0000
  N   N31       1.0  0.30753  0.27427  0.10497  1.0000
  H   H539      1.0  0.22162  0.39478  0.30378  1.0000
  C   C356      1.0  0.30736  0.25646  0.11218  1.0000
  H   H540      1.0  0.29894  0.24891  0.06705  1.0000
  H   H541      1.0  0.07843  0.23668  0.26276  1.0000
  H   H542      1.0  0.13458  0.30031  0.28191  1.0000
  C   C357      1.0  0.17424  0.35325  0.24061  1.0000
  C   C358      1.0  0.27023  0.44974  0.20493  1.0000
  N   N32       1.0  0.26448  0.41738  0.11201  1.0000
  H   H543      1.0  0.25743  0.45678  0.20360  1.0000
  H   H544      1.0  0.24316  0.40846  0.12859  1.0000
  H   H545      1.0  0.29832  0.42699  0.19799  1.0000
  H   H546      1.0  0.18824  0.41868  0.30484  1.0000
  H   H547      1.0  0.06033  0.26317  0.23796  1.0000
  H   H548      1.0  0.21810  0.41631  0.29331  1.0000
  H   H549      1.0  0.08738  0.27254  0.22821  1.0000
  H   H550      1.0  0.17145  0.33985  0.30730  1.0000
  C   C359      1.0  0.25473  0.23654  0.04361  1.0000
  H   H551      1.0  0.08918  0.31358  0.29966  1.0000
  C   C360      1.0  0.12687  0.29106  0.28379  1.0000
  H   H552      1.0  0.09341  0.26113  0.21197  1.0000
  H   H553      1.0  0.27275  0.41137  0.08781  1.0000
  H   H554      1.0  0.31563  0.43555  0.16522  1.0000
  H   H555      1.0  0.21557  0.30778  0.05868  1.0000
  S   S156      1.0  0.31461  0.39723  0.13802  1.0000
  H   H556      1.0  0.24718  0.31768  0.03441  1.0000
  C   C361      1.0  0.29304  0.48203  0.16265  1.0000
  H   H557      1.0  0.20717  0.34714  0.02778  1.0000
  H   H558      1.0  0.09850  0.31236  0.27837  1.0000
  C   C362      1.0  0.25978  0.42572  0.22274  1.0000
  H   H559      1.0  0.10748  0.31131  0.05560  1.0000
  N   N33       1.0  0.17354  0.35667  0.22290  1.0000
  C   C363      1.0  0.19068  0.35345  0.21272  1.0000
  H   H560      1.0  0.12452  0.32068  0.05350  1.0000
  C   C364      1.0  0.16390  0.34573  0.22070  1.0000
  C   C365      1.0  0.16537  0.37430  0.21759  1.0000
  H   H561      1.0  0.19832  0.36144  0.21422  1.0000
  H   H562      1.0  0.19065  0.35599  0.19926  1.0000
  H   H563      1.0  0.19716  0.34021  0.21632  1.0000
  H   H564      1.0  0.18130  0.36142  0.24271  1.0000
  H   H565      1.0  0.19497  0.33142  0.03487  1.0000
  H   H566      1.0  0.16346  0.34764  0.20741  1.0000
  H   H567      1.0  0.15242  0.37716  0.22505  1.0000
  H   H568      1.0  0.16461  0.37735  0.20428  1.0000
  H   H569      1.0  0.17232  0.38289  0.21915  1.0000
  C   C366      1.0  0.08669  0.26195  0.11277  1.0000
  H   H570      1.0  0.10807  0.32085  0.28945  1.0000
  C   C367      1.0  0.24220  0.24855  0.06777  1.0000
  S   S157      1.0  0.16443  0.39185  0.30319  1.0000
  C   C368      1.0  0.06723  0.25106  0.23463  1.0000
  H   H571      1.0  0.24666  0.43178  0.22174  1.0000
  H   H572      1.0  0.27300  0.45292  0.21552  1.0000
  C   C369      1.0  0.09341  0.26009  0.22522  1.0000
  C   C370      1.0  0.31425  0.45861  0.17181  1.0000
  H   H573      1.0  0.26089  0.41200  0.22507  1.0000
  C   C371      1.0  0.21889  0.30618  0.04564  1.0000
  H   H574      1.0  0.20868  0.30157  0.04376  1.0000
  H   H575      1.0  0.08972  0.28322  0.30792  1.0000
  S   S158      1.0  0.15871  0.23605  0.03940  1.0000
  C   C372      1.0  0.17050  0.45037  0.29295  1.0000
  C   C373      1.0  0.28892  0.42282  0.20925  1.0000
  H   H576      1.0  0.25162  0.25645  0.06415  1.0000
  N   N34       1.0  0.11703  0.30561  0.07777  1.0000
  C   C374      1.0  0.10151  0.30142  0.08910  1.0000
  C   C375      1.0  0.12865  0.29024  0.07369  1.0000
  C   C376      1.0  0.12495  0.31360  0.08594  1.0000
  C   C377      1.0  0.11309  0.31714  0.06227  1.0000
  H   H577      1.0  0.09255  0.31265  0.09279  1.0000
  H   H578      1.0  0.10406  0.29228  0.10070  1.0000
  H   H579      1.0  0.09504  0.29574  0.08314  1.0000
  H   H580      1.0  0.13194  0.28112  0.08502  1.0000
  H   H581      1.0  0.12311  0.28390  0.06749  1.0000
  H   H582      1.0  0.14045  0.29297  0.06509  1.0000
  H   H583      1.0  0.11661  0.32534  0.08907  1.0000
  H   H584      1.0  0.13676  0.31679  0.07772  1.0000
  S   S159      1.0  0.28959  0.44254  0.14671  1.0000
  C   C378      1.0  0.29607  0.45500  0.15620  1.0000
  H   H585      1.0  0.27355  0.39372  0.10488  1.0000
  H   H586      1.0  0.10662  0.25748  0.22636  1.0000
  H   H587      1.0  0.28831  0.42396  0.10050  1.0000
  H   H588      1.0  0.27908  0.45451  0.19345  1.0000
  H   H589      1.0  0.15078  0.34810  0.22787  1.0000
  H   H590      1.0  0.26275  0.39811  0.13414  1.0000
  H   H591      1.0  0.27724  0.43187  0.18142  1.0000
  C   C379      1.0  0.28121  0.41847  0.11287  1.0000
  C   C380      1.0  0.26818  0.42801  0.19306  1.0000
  H   H592      1.0  0.18537  0.46390  0.27162  1.0000
  S   S160      1.0  0.02844  0.24325  0.14394  1.0000
  H   H593      1.0  0.23120  0.25593  0.06245  1.0000
  C   C381      1.0  0.10145  0.28158  0.29827  1.0000
  H   H594      1.0  0.16153  0.35552  0.24863  1.0000
  S   S161      1.0  0.13032  0.24622  0.08256  1.0000
  H   H595      1.0  0.09795  0.24330  0.25566  1.0000
  H   H596      1.0  0.23810  0.24619  0.08159  1.0000
  H   H597      1.0  0.28319  0.27990  0.09958  1.0000
  H   H598      1.0  0.13460  0.27839  0.28747  1.0000
  C   C382      1.0  0.18060  0.46204  0.28494  1.0000
  H   H599      1.0  0.12429  0.29187  0.27150  1.0000
  H   H600      1.0  0.06766  0.23578  0.11548  1.0000
  C   C383      1.0  0.10131  0.31098  0.29073  1.0000
  H   H601      1.0  0.19186  0.48070  0.28768  1.0000
  H   H602      1.0  0.28322  0.28279  0.11951  1.0000
  H   H603      1.0  0.28979  0.29759  0.10093  1.0000
  H   H604      1.0  0.10870  0.26871  0.30195  1.0000
  S   S162      1.0  0.20660  0.23680  0.03625  1.0000
  C   C384      1.0  0.22045  0.40765  0.30521  1.0000
  H   H605      1.0  0.06657  0.25196  0.22157  1.0000
  H   H606      1.0  0.06039  0.24133  0.24280  1.0000
  H   H607      1.0  0.09797  0.28237  0.28641  1.0000
  C   C385      1.0  0.31641  0.28013  0.11411  1.0000
  N   N35       1.0  0.08470  0.24706  0.23647  1.0000
  H   H608      1.0  0.24406  0.24320  0.03747  1.0000
  H   H609      1.0  0.26424  0.24437  0.03935  1.0000
  H   H610      1.0  0.14376  0.27896  0.97712  1.0000
  H   H611      1.0  0.23270  0.40843  0.30679  1.0000
  H   H612      1.0  0.20312  0.43813  0.30936  1.0000
  C   C386      1.0  0.16408  0.44837  0.31011  1.0000
  Fe  Fe87      1.0  0.20717  0.28994  0.56803  1.0000
  S   S163      1.0  0.21167  0.31499  0.55291  1.0000
  S   S164      1.0  0.22515  0.26735  0.57810  1.0000
  Fe  Fe88      1.0  0.17060  0.29890  0.56787  1.0000
  S   S165      1.0  0.17160  0.32473  0.55268  1.0000
  S   S166      1.0  0.14857  0.28681  0.57620  1.0000
  Fe  Fe89      1.0  0.19532  0.31252  0.53736  1.0000
  S   S167      1.0  0.20287  0.32047  0.50921  1.0000
  Fe  Fe90      1.0  0.18772  0.32510  0.56945  1.0000
  S   S168      1.0  0.18155  0.34787  0.58052  1.0000
  S   S169      1.0  0.19298  0.28661  0.55119  1.0000
  S   S170      1.0  0.18462  0.30016  0.58587  1.0000
  N   N36       1.0  0.20688  0.41171  0.31946  1.0000
  H   H613      1.0  0.11572  0.26119  0.62841  1.0000
  S   S171      1.0  0.23244  0.37195  0.60595  1.0000
  C   C387      1.0  0.17138  0.25470  0.61357  1.0000
  H   H614      1.0  0.25350  0.25522  0.42091  1.0000
  C   C388      1.0  0.26432  0.25360  0.42653  1.0000
  C   C389      1.0  0.19636  0.38745  0.52040  1.0000
  C   C390      1.0  0.18022  0.35039  0.63948  1.0000
  H   H615      1.0  0.17763  0.32340  0.63093  1.0000
  H   H616      1.0  0.20030  0.24180  0.36577  1.0000
  C   C391      1.0  0.16697  0.25699  0.44684  1.0000
  C   C392      1.0  0.15634  0.24770  0.37482  1.0000
  C   C393      1.0  0.30261  0.26130  0.56682  1.0000
  H   H617      1.0  0.13480  0.30195  0.63056  1.0000
  C   C394      1.0  0.16755  0.45807  0.31912  1.0000
  H   H618      1.0  0.18735  0.39278  0.51206  1.0000
  H   H619      1.0  0.21922  0.36316  0.53411  1.0000
  C   C395      1.0  0.25175  0.26139  0.49938  1.0000
  C   C396      1.0  0.17681  0.37261  0.54112  1.0000
  C   C397      1.0  0.23219  0.25323  0.52488  1.0000
  C   C398      1.0  0.27888  0.27196  0.37743  1.0000
  H   H620      1.0  0.24760  0.23670  0.57252  1.0000
  C   C399      1.0  0.23066  0.28231  0.51182  1.0000
  C   C400      1.0  0.19093  0.41048  0.31679  1.0000
  H   H621      1.0  0.21148  0.38672  0.33415  1.0000
  Fe  Fe91      1.0  0.19018  0.31171  0.39918  1.0000
  S   S172      1.0  0.17564  0.29377  0.41784  1.0000
  S   S173      1.0  0.17554  0.33548  0.38598  1.0000
  Fe  Fe92      1.0  0.22312  0.28910  0.40381  1.0000
  S   S174      1.0  0.21159  0.26909  0.42258  1.0000
  S   S175      1.0  0.25080  0.28710  0.39642  1.0000
  Fe  Fe93      1.0  0.19416  0.27434  0.40542  1.0000
  S   S176      1.0  0.18710  0.25272  0.40070  1.0000
  Fe  Fe94      1.0  0.19406  0.29006  0.43368  1.0000
  S   S177      1.0  0.18530  0.28471  0.46188  1.0000
  S   S178      1.0  0.20739  0.29243  0.38552  1.0000
  S   S179      1.0  0.20695  0.30990  0.41611  1.0000
  H   H622      1.0  0.30880  0.24303  0.54439  1.0000
  C   C401      1.0  0.25533  0.25873  0.38484  1.0000
  H   H623      1.0  0.22359  0.27403  0.48711  1.0000
  S   S180      1.0  0.13527  0.26816  0.35487  1.0000
  C   C402      1.0  0.13834  0.25580  0.46009  1.0000
  H   H624      1.0  0.24245  0.25849  0.39088  1.0000
  C   C403      1.0  0.25206  0.24681  0.56305  1.0000
  C   C404      1.0  0.26337  0.27281  0.53826  1.0000
  C   C405      1.0  0.17211  0.25752  0.38852  1.0000
  H   H625      1.0  0.17693  0.25656  0.43531  1.0000
  H   H626      1.0  0.29714  0.26445  0.57925  1.0000
  C   C406      1.0  0.14903  0.26413  0.36825  1.0000
  C   C407      1.0  0.15303  0.27729  0.37214  1.0000
  C   C408      1.0  0.16473  0.27401  0.38211  1.0000
  H   H627      1.0  0.23916  0.28349  0.51901  1.0000
  S   S181      1.0  0.28866  0.25217  0.52160  1.0000
  H   H628      1.0  0.14723  0.28999  0.36727  1.0000
  H   H629      1.0  0.16805  0.28420  0.38478  1.0000
  C   C409      1.0  0.18536  0.34437  0.36581  1.0000
  C   C410      1.0  0.17626  0.35818  0.35641  1.0000
  C   C411      1.0  0.18327  0.36468  0.33979  1.0000
  C   C412      1.0  0.19954  0.35757  0.33255  1.0000
  C   C413      1.0  0.20884  0.34410  0.34212  1.0000
  C   C414      1.0  0.20173  0.33742  0.35868  1.0000
  H   H630      1.0  0.16363  0.36368  0.36193  1.0000
  H   H631      1.0  0.17605  0.37521  0.33270  1.0000
  H   H632      1.0  0.22150  0.33863  0.33665  1.0000
  H   H633      1.0  0.20893  0.32691  0.36591  1.0000
  C   C415      1.0  0.26222  0.27170  0.38525  1.0000
  H   H634      1.0  0.20443  0.37251  0.55026  1.0000
  H   H635      1.0  0.14219  0.24548  0.47042  1.0000
  H   H636      1.0  0.28423  0.28196  0.37776  1.0000
  H   H637      1.0  0.24260  0.28903  0.55075  1.0000
  C   C416      1.0  0.21179  0.45497  0.64151  1.0000
  H   H638      1.0  0.19112  0.25314  0.58341  1.0000
  H   H639      1.0  0.26777  0.28290  0.52871  1.0000
  H   H640      1.0  0.21923  0.25593  0.53238  1.0000
  C   C417      1.0  0.16212  0.32681  0.34944  1.0000
  S   S182      1.0  0.12827  0.24383  0.32440  1.0000
  H   H641      1.0  0.12229  0.30247  0.31147  1.0000
  H   H642      1.0  0.27310  0.26094  0.41724  1.0000
  N   N37       1.0  0.16212  0.32689  0.33214  1.0000
  C   C418      1.0  0.27170  0.25631  0.53796  1.0000
  C   C419      1.0  0.17730  0.47003  0.31106  1.0000
  H   H643      1.0  0.15322  0.23747  0.37206  1.0000
  C   C420      1.0  0.16399  0.23985  0.59735  1.0000
  H   H644      1.0  0.31080  0.23665  0.32198  1.0000
  C   C421      1.0  0.14539  0.26917  0.43108  1.0000
  H   H645      1.0  0.18341  0.30652  0.33045  1.0000
  H   H646      1.0  0.28958  0.23460  0.57152  1.0000
  C   C422      1.0  0.26601  0.24332  0.55034  1.0000
  H   H647      1.0  0.18027  0.41402  0.32697  1.0000
  C   C423      1.0  0.19632  0.35935  0.51981  1.0000
  H   H648      1.0  0.20866  0.24139  0.34420  1.0000
  C   C424      1.0  0.19755  0.31076  0.49614  1.0000
  C   C425      1.0  0.20430  0.31423  0.47893  1.0000
  C   C426      1.0  0.20060  0.30644  0.46826  1.0000
  C   C427      1.0  0.19007  0.29510  0.47471  1.0000
  C   C428      1.0  0.18337  0.29160  0.49193  1.0000
  C   C429      1.0  0.18709  0.29936  0.50261  1.0000
  H   H649      1.0  0.21240  0.32303  0.47381  1.0000
  H   H650      1.0  0.20583  0.30927  0.45502  1.0000
  H   H651      1.0  0.17517  0.28290  0.49704  1.0000
  H   H652      1.0  0.18173  0.29664  0.51582  1.0000
  C   C430      1.0  0.13878  0.28544  0.59731  1.0000
  C   C431      1.0  0.14069  0.29585  0.60643  1.0000
  H   H653      1.0  0.28237  0.23962  0.44997  1.0000
  C   C432      1.0  0.14476  0.33118  0.32994  1.0000
  H   H654      1.0  0.18064  0.25518  0.62029  1.0000
  C   C433      1.0  0.12954  0.27312  0.60528  1.0000
  H   H655      1.0  0.14761  0.30555  0.60030  1.0000
  H   H656      1.0  0.16362  0.30047  0.33717  1.0000
  H   H657      1.0  0.23195  0.29189  0.49998  1.0000
  H   H658      1.0  0.12790  0.26514  0.59825  1.0000
  C   C434      1.0  0.19613  0.35467  0.58683  1.0000
  C   C435      1.0  0.19031  0.36761  0.59548  1.0000
  C   C436      1.0  0.20132  0.37296  0.60144  1.0000
  C   C437      1.0  0.21835  0.36574  0.59833  1.0000
  C   C438      1.0  0.22428  0.35316  0.58917  1.0000
  C   C439      1.0  0.21319  0.34749  0.58358  1.0000
  H   H659      1.0  0.17716  0.37338  0.59786  1.0000
  H   H660      1.0  0.19665  0.38282  0.60825  1.0000
  H   H661      1.0  0.23747  0.34756  0.58668  1.0000
  H   H662      1.0  0.21783  0.33753  0.57689  1.0000
  C   C440      1.0  0.24911  0.27628  0.55068  1.0000
  C   C441      1.0  0.24343  0.26328  0.56306  1.0000
  H   H663      1.0  0.19460  0.39646  0.52831  1.0000
  S   S183      1.0  0.23491  0.40107  0.63506  1.0000
  C   C442      1.0  0.11515  0.29300  0.31243  1.0000
  C   C443      1.0  0.28864  0.25943  0.36908  1.0000
  H   H664      1.0  0.20916  0.38664  0.51240  1.0000
  H   H665      1.0  0.15593  0.33917  0.35255  1.0000
  H   H666      1.0  0.21754  0.43032  0.32295  1.0000
  C   C444      1.0  0.13337  0.29387  0.62353  1.0000
  H   H667      1.0  0.15922  0.25442  0.62265  1.0000
  H   H668      1.0  0.16722  0.37818  0.53345  1.0000
  N   N38       1.0  0.19391  0.37095  0.53070  1.0000
  C   C445      1.0  0.12451  0.28121  0.63157  1.0000
  C   C446      1.0  0.17033  0.31019  0.32871  1.0000
  Fe  Fe95      1.0  0.22293  0.38388  0.62840  1.0000
  N   N39       1.0  0.19053  0.33337  0.64300  1.0000
  S   S184      1.0  0.18035  0.48269  0.32275  1.0000
  N   N40       1.0  0.15106  0.25530  0.44442  1.0000
  C   C447      1.0  0.17129  0.33938  0.32048  1.0000
  H   H669      1.0  0.16539  0.35214  0.32269  1.0000
  H   H670      1.0  0.29617  0.24084  0.42979  1.0000
  C   C448      1.0  0.28194  0.24629  0.36891  1.0000
  N   N41       1.0  0.23436  0.26535  0.50878  1.0000
  H   H671      1.0  0.15583  0.43984  0.31634  1.0000
  C   C449      1.0  0.28654  0.23428  0.43865  1.0000
  H   H672      1.0  0.17429  0.36028  0.54849  1.0000
  H   H673      1.0  0.17481  0.38048  0.55022  1.0000
  H   H674      1.0  0.16966  0.26660  0.60412  1.0000
  H   H675      1.0  0.14331  0.28148  0.43425  1.0000
  H   H676      1.0  0.25958  0.25943  0.43752  1.0000
  C   C450      1.0  0.31865  0.24021  0.55154  1.0000
  H   H677      1.0  0.20961  0.26707  0.50607  1.0000
  H   H678      1.0  0.30148  0.25980  0.36299  1.0000
  H   H679      1.0  0.26071  0.26232  0.50622  1.0000
  H   H680      1.0  0.20910  0.35762  0.51179  1.0000
  H   H681      1.0  0.18724  0.36377  0.51153  1.0000
  C   C451      1.0  0.12268  0.27083  0.62239  1.0000
  H   H682      1.0  0.20022  0.40231  0.34590  1.0000
  H   H683      1.0  0.21324  0.34132  0.62921  1.0000
  H   H684      1.0  0.17074  0.30985  0.31569  1.0000
  C   C452      1.0  0.22280  0.26456  0.49907  1.0000
  H   H685      1.0  0.12286  0.28056  0.31687  1.0000
  H   H686      1.0  0.18448  0.33662  0.32174  1.0000
  C   C453      1.0  0.15353  0.23928  0.43966  1.0000
  H   H687      1.0  0.15543  0.31747  0.35862  1.0000
  H   H688      1.0  0.13737  0.32215  0.33866  1.0000
  H   H689      1.0  0.20483  0.35181  0.54923  1.0000
  H   H690      1.0  0.25524  0.24847  0.49731  1.0000
  H   H691      1.0  0.15479  0.26927  0.41913  1.0000
  H   H692      1.0  0.29221  0.26397  0.56028  1.0000
  C   C454      1.0  0.20616  0.36436  0.54150  1.0000
  H   H693      1.0  0.19456  0.34679  0.52725  1.0000
  S   S185      1.0  0.16508  0.23506  0.33405  1.0000
  S   S186      1.0  0.20856  0.36529  0.31165  1.0000
  H   H694      1.0  0.16304  0.23859  0.42784  1.0000
  H   H695      1.0  0.12611  0.25470  0.45871  1.0000
  H   H696      1.0  0.20323  0.33402  0.61754  1.0000
  C   C455      1.0  0.21037  0.39980  0.33494  1.0000
  C   C456      1.0  0.22907  0.45028  0.63602  1.0000
  H   H697      1.0  0.13634  0.26772  0.46403  1.0000
  H   H698      1.0  0.24067  0.25360  0.53250  1.0000
  C   C457      1.0  0.20602  0.33194  0.62998  1.0000
  C   C458      1.0  0.16762  0.24442  0.38512  1.0000
  H   H699      1.0  0.16562  0.26903  0.45029  1.0000
  H   H700      1.0  0.18716  0.36000  0.63867  1.0000
  H   H701      1.0  0.19553  0.43245  0.33140  1.0000
  H   H702      1.0  0.23451  0.43822  0.63293  1.0000
  H   H703      1.0  0.14179  0.23760  0.43767  1.0000
  C   C459      1.0  0.26527  0.24591  0.37680  1.0000
  C   C460      1.0  0.23932  0.46131  0.63431  1.0000
  C   C461      1.0  0.20349  0.23390  0.35648  1.0000
  H   H704      1.0  0.25266  0.45763  0.62992  1.0000
  H   H705      1.0  0.13353  0.26820  0.42874  1.0000
  H   H706      1.0  0.22548  0.25208  0.49613  1.0000
  H   H707      1.0  0.22226  0.40045  0.33748  1.0000
  Fe  Fe96      1.0  0.13852  0.24495  0.34555  1.0000
  H   H708      1.0  0.25376  0.27015  0.48705  1.0000
  H   H709      1.0  0.17504  0.32374  0.35151  1.0000
  H   H710      1.0  0.16220  0.45670  0.33232  1.0000
  H   H711      1.0  0.17158  0.24686  0.45692  1.0000
  H   H712      1.0  0.21771  0.28564  0.51904  1.0000
  S   S187      1.0  0.19685  0.39811  0.63615  1.0000
  H   H713      1.0  0.25997  0.23589  0.37649  1.0000
  H   H714      1.0  0.23499  0.24023  0.52314  1.0000
  N   N42       1.0  0.27242  0.23584  0.43107  1.0000
  H   H715      1.0  0.15185  0.23912  0.60635  1.0000
  N   N43       1.0  0.31164  0.24371  0.56833  1.0000
  C   C462      1.0  0.20574  0.42888  0.32087  1.0000
  H   H716      1.0  0.19120  0.39757  0.31626  1.0000
  H   H717      1.0  0.31107  0.26992  0.55958  1.0000
  H   H718      1.0  0.16178  0.25130  0.58745  1.0000
  H   H719      1.0  0.13831  0.34386  0.33212  1.0000
  H   H720      1.0  0.10363  0.29492  0.32231  1.0000
  C   C463      1.0  0.23240  0.47709  0.63809  1.0000
  N   N44       1.0  0.17691  0.24018  0.60568  1.0000
  H   H721      1.0  0.28744  0.23587  0.40630  1.0000
  C   C464      1.0  0.19270  0.24154  0.59327  1.0000
  H   H722      1.0  0.29266  0.47762  0.63072  1.0000
  H   H723      1.0  0.21432  0.31940  0.63237  1.0000
  H   H724      1.0  0.17621  0.35312  0.62752  1.0000
  H   H725      1.0  0.32057  0.24310  0.58976  1.0000
  H   H726      1.0  0.20271  0.24197  0.59911  1.0000
  H   H727      1.0  0.14433  0.33128  0.31702  1.0000
  H   H728      1.0  0.29435  0.23499  0.59057  1.0000
  C   C465      1.0  0.18106  0.32117  0.64315  1.0000
  Fe  Fe97      1.0  0.12293  0.24140  0.88921  1.0000
  H   H729      1.0  0.26359  0.47334  0.66129  1.0000
  Fe  Fe98      1.0  0.30757  0.42390  0.69054  1.0000
  S   S188      1.0  0.29175  0.44216  0.70592  1.0000
  H   H730      1.0  0.10079  0.30894  0.69439  1.0000
  H   H731      1.0  0.21770  0.23952  0.71093  1.0000
  C   C466      1.0  0.14468  0.24696  0.95200  1.0000
  Fe  Fe99      1.0  0.29825  0.42218  0.72757  1.0000
  S   S189      1.0  0.28042  0.41605  0.75181  1.0000
  C   C467      1.0  0.29752  0.31595  0.78777  1.0000
  H   H732      1.0  0.11036  0.27129  0.91593  1.0000
  N   N45       1.0  0.28874  0.47638  0.65691  1.0000
  H   H733      1.0  0.11790  0.26743  0.82944  1.0000
  C   C468      1.0  0.26480  0.38832  0.67418  1.0000
  C   C469      1.0  0.15616  0.24494  0.69262  1.0000
  H   H734      1.0  0.07898  0.27837  0.72724  1.0000
  S   S190      1.0  0.16765  0.24277  0.89115  1.0000
  H   H735      1.0  0.07265  0.24815  0.86587  1.0000
  C   C470      1.0  0.20828  0.26013  0.85932  1.0000
  C   C471      1.0  0.10789  0.28774  0.72244  1.0000
  H   H736      1.0  0.24620  0.25671  0.75774  1.0000
  S   S191      1.0  0.14159  0.27109  0.92298  1.0000
  Fe  Fe100     1.0  0.15547  0.25134  0.86930  1.0000
  S   S192      1.0  0.16851  0.25931  0.84266  1.0000
  S   S193      1.0  0.13189  0.26526  0.88298  1.0000
  Fe  Fe101     1.0  0.23495  0.34711  0.77005  1.0000
  S   S194      1.0  0.25765  0.32699  0.76542  1.0000
  S   S195      1.0  0.23389  0.37057  0.74990  1.0000
  Fe  Fe102     1.0  0.21925  0.32544  0.80189  1.0000
  S   S196      1.0  0.24068  0.30353  0.79991  1.0000
  S   S197      1.0  0.19740  0.32425  0.82368  1.0000
  Fe  Fe103     1.0  0.25648  0.32250  0.79266  1.0000
  S   S198      1.0  0.27924  0.31589  0.80328  1.0000
  Fe  Fe104     1.0  0.23990  0.31004  0.77296  1.0000
  S   S199      1.0  0.24593  0.29018  0.75856  1.0000
  S   S200      1.0  0.23517  0.34410  0.79690  1.0000
  S   S201      1.0  0.21696  0.33039  0.77538  1.0000
  Fe  Fe105     1.0  0.15741  0.31030  0.75468  1.0000
  S   S202      1.0  0.17419  0.28997  0.74243  1.0000
  S   S203      1.0  0.16592  0.33425  0.74981  1.0000
  Fe  Fe106     1.0  0.13154  0.28954  0.77293  1.0000
  S   S204      1.0  0.14596  0.26751  0.76201  1.0000
  S   S205      1.0  0.10831  0.28671  0.79250  1.0000
  Fe  Fe107     1.0  0.16786  0.27299  0.76719  1.0000
  S   S206      1.0  0.18779  0.25216  0.77620  1.0000
  Fe  Fe108     1.0  0.15081  0.28643  0.73820  1.0000
  S   S207      1.0  0.15206  0.28377  0.71252  1.0000
  S   S208      1.0  0.15323  0.29360  0.78011  1.0000
  S   S209      1.0  0.13418  0.30822  0.74858  1.0000
  H   H737      1.0  0.26419  0.45838  0.75848  1.0000
  C   C472      1.0  0.23004  0.27908  0.76473  1.0000
  C   C473      1.0  0.21378  0.28668  0.77136  1.0000
  C   C474      1.0  0.20089  0.27812  0.77538  1.0000
  C   C475      1.0  0.20432  0.26178  0.77326  1.0000
  C   C476      1.0  0.22073  0.25389  0.76730  1.0000
  C   C477      1.0  0.23358  0.26265  0.76279  1.0000
  H   H738      1.0  0.21099  0.29935  0.77288  1.0000
  H   H739      1.0  0.18828  0.28422  0.78009  1.0000
  N   N46       1.0  0.32147  0.36986  0.75783  1.0000
  H   H740      1.0  0.30553  0.45848  0.67110  1.0000
  H   H741      1.0  0.06653  0.27716  0.93983  1.0000
  H   H742      1.0  0.25734  0.26743  0.78593  1.0000
  S   S210      1.0  0.31281  0.47739  0.69732  1.0000
  C   C478      1.0  0.29732  0.32602  0.77184  1.0000
  H   H743      1.0  0.11633  0.29668  0.71669  1.0000
  H   H744      1.0  0.28502  0.28185  0.78952  1.0000
  H   H745      1.0  0.28595  0.33450  0.76921  1.0000
  H   H746      1.0  0.15923  0.27031  0.68371  1.0000
  H   H747      1.0  0.27554  0.26558  0.75785  1.0000
  H   H748      1.0  0.12450  0.28439  0.69183  1.0000
  H   H749      1.0  0.16145  0.35821  0.79641  1.0000
  H   H750      1.0  0.25140  0.46729  0.74331  1.0000
  H   H751      1.0  0.20279  0.42979  0.69733  1.0000
  H   H752      1.0  0.27589  0.28738  0.77165  1.0000
  C   C479      1.0  0.14379  0.26372  0.94399  1.0000
  C   C480      1.0  0.14363  0.27518  0.95313  1.0000
  H   H753      1.0  0.27927  0.45734  0.65269  1.0000
  C   C481      1.0  0.08153  0.23659  0.86442  1.0000
  H   H754      1.0  0.14298  0.28817  0.94705  1.0000
  C   C482      1.0  0.15333  0.26359  0.71051  1.0000
  C   C483      1.0  0.17666  0.27722  0.83771  1.0000
  C   C484      1.0  0.17239  0.28774  0.84886  1.0000
  C   C485      1.0  0.17916  0.30198  0.84463  1.0000
  C   C486      1.0  0.19036  0.30559  0.82939  1.0000
  C   C487      1.0  0.19490  0.29484  0.81842  1.0000
  C   C488      1.0  0.18786  0.28081  0.82248  1.0000
  H   H755      1.0  0.16378  0.28499  0.86066  1.0000
  H   H756      1.0  0.17561  0.31029  0.85314  1.0000
  H   H757      1.0  0.20351  0.29755  0.80661  1.0000
  H   H758      1.0  0.19117  0.27268  0.81382  1.0000
  C   C489      1.0  0.07863  0.25815  0.77768  1.0000
  C   C490      1.0  0.09060  0.26589  0.76565  1.0000
  C   C491      1.0  0.09975  0.27468  0.77016  1.0000
  C   C492      1.0  0.09670  0.27601  0.78671  1.0000
  C   C493      1.0  0.08462  0.26838  0.79875  1.0000
  C   C494      1.0  0.07575  0.25927  0.79427  1.0000
  H   H759      1.0  0.09298  0.26480  0.75293  1.0000
  H   H760      1.0  0.10905  0.28057  0.76084  1.0000
  H   H761      1.0  0.08223  0.26938  0.81156  1.0000
  H   H762      1.0  0.06647  0.25340  0.80361  1.0000
  H   H763      1.0  0.07096  0.26200  0.95823  1.0000
  C   C495      1.0  0.14548  0.25351  0.80959  1.0000
  C   C496      1.0  0.24397  0.42768  0.69373  1.0000
  C   C497      1.0  0.17410  0.35799  0.69430  1.0000
  C   C498      1.0  0.12579  0.25593  0.83557  1.0000
  S   S211      1.0  0.09715  0.24370  0.88512  1.0000
  C   C499      1.0  0.30542  0.46580  0.65820  1.0000
  H   H764      1.0  0.11643  0.25028  0.94092  1.0000
  C   C500      1.0  0.26758  0.40344  0.75107  1.0000
  C   C501      1.0  0.26517  0.40251  0.73584  1.0000
  C   C502      1.0  0.25472  0.39246  0.73554  1.0000
  C   C503      1.0  0.24709  0.38295  0.75040  1.0000
  C   C504      1.0  0.24983  0.38362  0.76555  1.0000
  C   C505      1.0  0.25984  0.39404  0.76590  1.0000
  H   H765      1.0  0.27119  0.40966  0.72432  1.0000
  H   H766      1.0  0.25274  0.39183  0.72381  1.0000
  H   H767      1.0  0.24387  0.37644  0.77707  1.0000
  H   H768      1.0  0.26167  0.39471  0.77770  1.0000
  H   H769      1.0  0.30131  0.38071  0.74499  1.0000
  H   H770      1.0  0.14696  0.25324  0.73678  1.0000
  C   C506      1.0  0.28575  0.40998  0.67074  1.0000
  S   S212      1.0  0.11632  0.27786  0.65316  1.0000
  C   C507      1.0  0.14996  0.25089  0.72448  1.0000
  H   H771      1.0  0.27039  0.37771  0.69849  1.0000
  H   H772      1.0  0.28870  0.39695  0.69552  1.0000
  H   H773      1.0  0.12170  0.26417  0.70407  1.0000
  H   H774      1.0  0.13477  0.25985  0.84021  1.0000
  C   C508      1.0  0.28585  0.27839  0.77763  1.0000
  H   H775      1.0  0.23360  0.45523  0.67143  1.0000
  H   H776      1.0  0.16236  0.33932  0.69261  1.0000
  H   H777      1.0  0.13814  0.26494  0.80281  1.0000
  H   H778      1.0  0.29504  0.37717  0.76718  1.0000
  H   H779      1.0  0.17915  0.36312  0.73055  1.0000
  Fe  Fe109     1.0  0.14310  0.25440  0.90573  1.0000
  H   H780      1.0  0.21897  0.42773  0.66896  1.0000
  N   N47       1.0  0.22825  0.43233  0.68781  1.0000
  C   C509      1.0  0.31192  0.32522  0.75930  1.0000
  C   C510      1.0  0.26780  0.25897  0.79148  1.0000
  C   C511      1.0  0.19037  0.24781  0.73420  1.0000
  C   C512      1.0  0.30399  0.37199  0.75672  1.0000
  S   S213      1.0  0.19855  0.44124  0.64444  1.0000
  H   H781      1.0  0.11748  0.24972  0.84663  1.0000
  H   H782      1.0  0.31009  0.25035  0.78015  1.0000
  H   H783      1.0  0.08169  0.30644  0.70938  1.0000
  N   N48       1.0  0.23000  0.34307  0.71766  1.0000
  C   C513      1.0  0.22484  0.34747  0.70159  1.0000
  C   C514      1.0  0.23526  0.32477  0.72277  1.0000
  C   C515      1.0  0.21581  0.34921  0.73043  1.0000
  C   C516      1.0  0.24406  0.35082  0.71597  1.0000
  H   H784      1.0  0.22088  0.36122  0.69740  1.0000
  H   H785      1.0  0.21415  0.34192  0.70249  1.0000
  H   H786      1.0  0.23528  0.34316  0.69157  1.0000
  H   H787      1.0  0.24605  0.31968  0.71349  1.0000
  H   H788      1.0  0.23911  0.32112  0.73492  1.0000
  H   H789      1.0  0.22496  0.31843  0.72430  1.0000
  H   H790      1.0  0.21965  0.34733  0.74227  1.0000
  H   H791      1.0  0.20548  0.34259  0.73312  1.0000
  H   H792      1.0  0.21081  0.36282  0.72653  1.0000
  H   H793      1.0  0.24028  0.36468  0.71304  1.0000
  H   H794      1.0  0.25474  0.34717  0.70585  1.0000
  H   H795      1.0  0.24872  0.34719  0.72768  1.0000
  N   N49       1.0  0.15596  0.33437  0.79916  1.0000
  C   C517      1.0  0.15053  0.32067  0.81273  1.0000
  C   C518      1.0  0.17249  0.32805  0.78923  1.0000
  H   H796      1.0  0.14992  0.31013  0.80782  1.0000
  H   H797      1.0  0.13799  0.32492  0.82035  1.0000
  H   H798      1.0  0.15932  0.31560  0.82125  1.0000
  H   H799      1.0  0.17672  0.33794  0.77854  1.0000
  H   H800      1.0  0.18214  0.32354  0.79683  1.0000
  H   H801      1.0  0.17233  0.31755  0.78400  1.0000
  H   H802      1.0  0.16620  0.34314  0.81464  1.0000
  C   C519      1.0  0.07477  0.26513  0.94440  1.0000
  C   C520      1.0  0.16420  0.33687  0.71774  1.0000
  N   N50       1.0  0.27204  0.47887  0.73939  1.0000
  N   N51       1.0  0.09253  0.26616  0.93887  1.0000
  H   H803      1.0  0.22200  0.45721  0.69206  1.0000
  H   H804      1.0  0.24768  0.41394  0.69810  1.0000
  H   H805      1.0  0.23351  0.41047  0.67793  1.0000
  H   H806      1.0  0.28371  0.24411  0.76603  1.0000
  S   S214      1.0  0.22293  0.36562  0.65290  1.0000
  C   C521      1.0  0.20487  0.47079  0.64523  1.0000
  Fe  Fe110     1.0  0.19751  0.38071  0.66102  1.0000
  H   H807      1.0  0.27631  0.45767  0.67416  1.0000
  H   H808      1.0  0.24278  0.43344  0.70429  1.0000
  N   N52       1.0  0.13453  0.24476  0.82394  1.0000
  H   H809      1.0  0.29647  0.23631  0.79098  1.0000
  H   H810      1.0  0.27162  0.45418  0.73809  1.0000
  H   H811      1.0  0.18450  0.37545  0.70012  1.0000
  C   C522      1.0  0.23660  0.24705  0.84827  1.0000
  H   H812      1.0  0.09212  0.27680  0.95910  1.0000
  C   C523      1.0  0.31243  0.30551  0.79132  1.0000
  S   S215      1.0  0.31192  0.40305  0.71248  1.0000
  H   H813      1.0  0.07229  0.25536  0.93962  1.0000
  C   C524      1.0  0.11512  0.27647  0.69785  1.0000
  C   C525      1.0  0.16650  0.34428  0.70074  1.0000
  C   C526      1.0  0.28531  0.25703  0.76432  1.0000
  C   C527      1.0  0.26769  0.40034  0.65950  1.0000
  C   C528      1.0  0.23049  0.42427  0.67393  1.0000
  H   H814      1.0  0.26195  0.40131  0.64940  1.0000
  N   N53       1.0  0.28413  0.26100  0.78042  1.0000
  C   C529      1.0  0.12210  0.23999  0.81808  1.0000
  H   H815      1.0  0.15858  0.32612  0.72250  1.0000
  H   H816      1.0  0.09773  0.29319  0.73201  1.0000
  C   C530      1.0  0.27815  0.41113  0.65778  1.0000
  N   N54       1.0  0.10121  0.28433  0.70979  1.0000
  C   C531      1.0  0.08961  0.27295  0.71799  1.0000
  C   C532      1.0  0.27257  0.38701  0.68709  1.0000
  S   S216      1.0  0.29823  0.42417  0.66834  1.0000
  C   C533      1.0  0.26444  0.46408  0.74506  1.0000
  H   H817      1.0  0.23742  0.25734  0.83698  1.0000
  C   C534      1.0  0.14469  0.24187  0.96912  1.0000
  C   C535      1.0  0.17599  0.35762  0.72218  1.0000
  H   H818      1.0  0.16927  0.32199  0.65285  1.0000
  H   H819      1.0  0.08772  0.29180  0.94054  1.0000
  H   H820      1.0  0.16875  0.35217  0.64944  1.0000
  H   H821      1.0  0.10040  0.24694  0.95922  1.0000
  H   H822      1.0  0.15842  0.24274  0.68027  1.0000
  H   H823      1.0  0.29743  0.25243  0.80026  1.0000
  S   S217      1.0  0.06743  0.24709  0.77178  1.0000
  C   C536      1.0  0.15671  0.26050  0.69458  1.0000
  S   S218      1.0  0.20684  0.39727  0.67090  1.0000
  C   C537      1.0  0.21476  0.42666  0.70152  1.0000
  H   H824      1.0  0.31264  0.29773  0.80364  1.0000
  C   C538      1.0  0.09529  0.27940  0.94525  1.0000
  H   H825      1.0  0.18844  0.30818  0.64577  1.0000
  H   H826      1.0  0.31159  0.33257  0.74685  1.0000
  H   H827      1.0  0.14754  0.35120  0.77783  1.0000
  H   H828      1.0  0.11534  0.27617  0.72896  1.0000
  S   S219      1.0  0.25091  0.37536  0.67702  1.0000
  H   H829      1.0  0.26608  0.24601  0.79375  1.0000
  S   S220      1.0  0.14304  0.23444  0.65770  1.0000
  C   C539      1.0  0.09231  0.30014  0.70077  1.0000
  C   C540      1.0  0.10297  0.25002  0.94537  1.0000
  H   H830      1.0  0.21259  0.43255  0.71223  1.0000
  Fe  Fe111     1.0  0.23246  0.38390  0.66030  1.0000
  S   S221      1.0  0.32072  0.43093  0.72746  1.0000
  H   H831      1.0  0.29728  0.46500  0.73374  1.0000
  H   H832      1.0  0.17757  0.24729  0.74177  1.0000
  H   H833      1.0  0.09602  0.26084  0.72475  1.0000
  H   H834      1.0  0.25444  0.43165  0.68362  1.0000
  H   H835      1.0  0.09567  0.26010  0.91519  1.0000
  H   H836      1.0  0.21196  0.45446  0.67740  1.0000
  H   H837      1.0  0.27847  0.47672  0.71386  1.0000
  H   H838      1.0  0.21782  0.41289  0.70620  1.0000
  H   H839      1.0  0.15497  0.25737  0.81362  1.0000
  C   C541      1.0  0.15712  0.34779  0.80633  1.0000
  H   H840      1.0  0.14256  0.33114  0.78277  1.0000
  H   H841      1.0  0.08726  0.29800  0.69101  1.0000
  C   C542      1.0  0.19483  0.33001  0.65937  1.0000
  H   H842      1.0  0.28354  0.48107  0.68145  1.0000
  H   H843      1.0  0.24075  0.42799  0.66343  1.0000
  C   C543      1.0  0.14371  0.34098  0.78837  1.0000
  H   H844      1.0  0.14488  0.35297  0.81385  1.0000
  S   S222      1.0  0.17695  0.36667  0.67289  1.0000
  C   C544      1.0  0.16886  0.34356  0.72850  1.0000
  C   C545      1.0  0.14411  0.26999  0.97017  1.0000
  C   C546      1.0  0.28292  0.39791  0.68544  1.0000
  H   H845      1.0  0.11063  0.27432  0.68776  1.0000
  C   C547      1.0  0.17897  0.36463  0.70500  1.0000
  C   C548      1.0  0.22378  0.45061  0.68197  1.0000
  H   H846      1.0  0.13110  0.34596  0.79539  1.0000
  H   H847      1.0  0.19592  0.25451  0.74008  1.0000
  H   H848      1.0  0.08432  0.27018  0.70875  1.0000
  C   C549      1.0  0.28942  0.47386  0.74167  1.0000
  C   C550      1.0  0.09713  0.27005  0.92048  1.0000
  N   N55       1.0  0.21930  0.24463  0.85488  1.0000
  C   C551      1.0  0.29758  0.24952  0.78831  1.0000
  H   H849      1.0  0.29761  0.25812  0.75577  1.0000
  C   C552      1.0  0.27642  0.46573  0.66149  1.0000
  H   H850      1.0  0.19509  0.25874  0.86407  1.0000
  H   H851      1.0  0.10861  0.28045  0.94132  1.0000
  Fe  Fe112     1.0  0.20865  0.41364  0.64519  1.0000
  H   H852      1.0  0.22345  0.24125  0.76566  1.0000
  H   H853      1.0  0.14507  0.23793  0.94512  1.0000
  H   H854      1.0  0.11420  0.25113  0.81153  1.0000
  H   H855      1.0  0.30107  0.35998  0.75710  1.0000
  S   S223      1.0  0.11118  0.23789  0.68979  1.0000
  H   H856      1.0  0.28033  0.42040  0.64636  1.0000
  H   H857      1.0  0.19150  0.47452  0.64941  1.0000
  Fe  Fe113     1.0  0.11750  0.25047  0.66289  1.0000
  H   H858      1.0  0.18912  0.25555  0.72162  1.0000
  H   H859      1.0  0.29805  0.28037  0.76940  1.0000
  H   H860      1.0  0.10095  0.23963  0.94118  1.0000
  H   H861      1.0  0.31507  0.47338  0.65478  1.0000
  H   H862      1.0  0.20856  0.27080  0.84836  1.0000
  H   H863      1.0  0.21350  0.25058  0.83069  1.0000
  H   H864      1.0  0.21202  0.26363  0.86915  1.0000
  S   S224      1.0  0.10492  0.23517  0.65488  1.0000
  H   H865      1.0  0.08933  0.28200  0.91507  1.0000
  H   H866      1.0  0.30931  0.45669  0.64999  1.0000
  H   H867      1.0  0.24135  0.25021  0.85764  1.0000
  H   H868      1.0  0.29007  0.46767  0.75481  1.0000
  C   C553      1.0  0.21359  0.24039  0.84205  1.0000
  H   H869      1.0  0.20266  0.31732  0.66244  1.0000
  C   C554      1.0  0.14970  0.23522  0.72253  1.0000
  H   H870      1.0  0.26654  0.26188  0.80372  1.0000
  Fe  Fe114     1.0  0.31569  0.44936  0.70412  1.0000
  H   H871      1.0  0.24517  0.23552  0.84477  1.0000
  H   H872      1.0  0.18343  0.33104  0.66949  1.0000
  H   H873      1.0  0.22372  0.23832  0.72987  1.0000
  H   H874      1.0  0.15239  0.24548  0.80055  1.0000
  H   H875      1.0  0.20067  0.23820  0.84670  1.0000
  H   H876      1.0  0.20180  0.33917  0.65967  1.0000
  H   H877      1.0  0.11358  0.23342  0.82863  1.0000
  H   H878      1.0  0.31589  0.36300  0.78458  1.0000
  H   H879      1.0  0.31603  0.39187  0.76765  1.0000
  H   H880      1.0  0.32202  0.34580  0.77449  1.0000
  H   H881      1.0  0.22237  0.23393  0.88004  1.0000
  H   H882      1.0  0.32262  0.39517  0.74548  1.0000
  H   H883      1.0  0.32287  0.23683  0.70995  1.0000
  C   C555      1.0  0.21514  0.48178  0.64365  1.0000
  H   H884      1.0  0.15416  0.72601  0.26448  1.0000
  Fe  Fe115     1.0  0.27140  0.65147  0.09515  1.0000
  S   S225      1.0  0.26333  0.66577  0.11535  1.0000
  S   S226      1.0  0.29559  0.63277  0.09612  1.0000
  Fe  Fe116     1.0  0.24097  0.66982  0.08022  1.0000
  S   S227      1.0  0.23028  0.68532  0.09948  1.0000
  S   S228      1.0  0.22875  0.67242  0.05912  1.0000
  Fe  Fe117     1.0  0.25655  0.68794  0.09543  1.0000
  S   S229      1.0  0.26270  0.71270  0.09174  1.0000
  Fe  Fe118     1.0  0.23808  0.66154  0.11739  1.0000
  S   S230      1.0  0.22415  0.65014  0.14223  1.0000
  S   S231      1.0  0.26692  0.67417  0.07481  1.0000
  S   S232      1.0  0.24650  0.64561  0.09856  1.0000
  Fe  Fe119     1.0  0.14861  0.63380  0.20981  1.0000
  S   S233      1.0  0.15324  0.65922  0.20656  1.0000
  S   S234      1.0  0.17097  0.61284  0.21273  1.0000
  Fe  Fe120     1.0  0.11268  0.64774  0.20626  1.0000
  S   S235      1.0  0.11446  0.67419  0.20299  1.0000
  S   S236      1.0  0.08983  0.64290  0.20193  1.0000
  Fe  Fe121     1.0  0.13910  0.66686  0.18629  1.0000
  S   S237      1.0  0.14784  0.68294  0.16156  1.0000
  Fe  Fe122     1.0  0.12828  0.66371  0.22371  1.0000
  S   S238      1.0  0.12421  0.67682  0.24434  1.0000
  S   S239      1.0  0.13650  0.64109  0.18795  1.0000
  S   S240      1.0  0.12442  0.63770  0.22860  1.0000
  C   C556      1.0  0.24339  0.70232  0.30830  1.0000
  H   H885      1.0  0.30552  0.70617  0.24306  1.0000
  H   H886      1.0  0.30986  0.49145  0.10803  1.0000
  C   C557      1.0  0.13899  0.49311  0.28534  1.0000
  S   S241      1.0  0.03718  0.71087  0.19124  1.0000
  H   H887      1.0  0.28964  0.52487  0.11773  1.0000
  H   H888      1.0  0.13759  0.49057  0.27378  1.0000
  H   H889      1.0  0.15750  0.50829  0.25730  1.0000
  H   H890      1.0  0.12784  0.60938  0.26500  1.0000
  S   S242      1.0  0.02368  0.71192  0.14859  1.0000
  H   H891      1.0  0.28467  0.69881  0.11725  1.0000
  C   C558      1.0  0.29370  0.61195  0.10419  1.0000
  S   S243      1.0  0.15338  0.71024  0.06393  1.0000
  H   H892      1.0  0.14265  0.63936  0.27943  1.0000
  S   S244      1.0  0.24081  0.52000  0.27501  1.0000
  H   H893      1.0  0.31929  0.48612  0.13391  1.0000
  H   H894      1.0  0.23187  0.56678  0.22773  1.0000
  H   H895      1.0  0.27152  0.55311  0.24586  1.0000
  S   S245      1.0  0.12848  0.71703  0.02883  1.0000
  H   H896      1.0  0.29298  0.69670  0.28192  1.0000
  N   N56       1.0  0.30840  0.70583  0.11034  1.0000
  N   N57       1.0  0.14346  0.50942  0.28220  1.0000
  N   N58       1.0  0.14340  0.61433  0.27825  1.0000
  H   H897      1.0  0.12057  0.60541  0.28724  1.0000
  C   C559      1.0  0.08628  0.71399  0.08195  1.0000
  C   C560      1.0  0.31291  0.68414  0.21332  1.0000
  S   S246      1.0  0.25242  0.69534  0.25188  1.0000
  H   H898      1.0  0.30738  0.54885  0.22465  1.0000
  C   C561      1.0  0.24673  0.71258  0.12446  1.0000
  C   C562      1.0  0.30282  0.72205  0.09948  1.0000
  H   H899      1.0  0.16677  0.62082  0.26444  1.0000
  C   C563      1.0  0.06984  0.71780  0.09092  1.0000
  H   H900      1.0  0.16472  0.60078  0.26362  1.0000
  H   H901      1.0  0.16953  0.50002  0.27307  1.0000
  H   H902      1.0  0.24327  0.70120  0.12480  1.0000
  Fe  Fe123     1.0  0.19849  0.70522  0.29400  1.0000
  S   S247      1.0  0.17750  0.70493  0.28325  1.0000
  C   C564      1.0  0.25433  0.54855  0.22149  1.0000
  C   C565      1.0  0.07437  0.66125  0.19975  1.0000
  C   C566      1.0  0.06460  0.66453  0.18800  1.0000
  C   C567      1.0  0.05325  0.67987  0.18512  1.0000
  C   C568      1.0  0.05124  0.69164  0.19447  1.0000
  C   C569      1.0  0.06059  0.68810  0.20662  1.0000
  C   C570      1.0  0.07230  0.67303  0.20909  1.0000
  H   H903      1.0  0.06605  0.65535  0.18088  1.0000
  H   H904      1.0  0.04585  0.68246  0.17590  1.0000
  H   H905      1.0  0.05889  0.69706  0.21405  1.0000
  H   H906      1.0  0.07954  0.67039  0.21845  1.0000
  C   C571      1.0  0.14195  0.67197  0.25278  1.0000
  S   S248      1.0  0.28208  0.53145  0.16980  1.0000
  C   C572      1.0  0.23969  0.55492  0.23212  1.0000
  H   H907      1.0  0.13204  0.69062  0.26756  1.0000
  Fe  Fe124     1.0  0.21410  0.52627  0.28855  1.0000
  S   S249      1.0  0.31376  0.48785  0.17949  1.0000
  C   C573      1.0  0.20829  0.68442  0.05991  1.0000
  C   C574      1.0  0.20084  0.68743  0.04637  1.0000
  C   C575      1.0  0.18412  0.69595  0.04723  1.0000
  C   C576      1.0  0.17473  0.70115  0.06178  1.0000
  C   C577      1.0  0.18223  0.69834  0.07522  1.0000
  C   C578      1.0  0.19901  0.69016  0.07421  1.0000
  H   H908      1.0  0.20795  0.68300  0.03526  1.0000
  H   H909      1.0  0.17837  0.69802  0.03682  1.0000
  H   H910      1.0  0.17502  0.70248  0.08645  1.0000
  H   H911      1.0  0.20458  0.68795  0.08467  1.0000
  C   C579      1.0  0.20316  0.65988  0.14744  1.0000
  C   C580      1.0  0.19676  0.67578  0.13873  1.0000
  C   C581      1.0  0.17968  0.68295  0.14290  1.0000
  C   C582      1.0  0.16911  0.67419  0.15580  1.0000
  C   C583      1.0  0.17558  0.65827  0.16433  1.0000
  C   C584      1.0  0.19256  0.65117  0.16024  1.0000
  H   H912      1.0  0.20495  0.68268  0.12904  1.0000
  H   H913      1.0  0.17474  0.69534  0.13635  1.0000
  H   H914      1.0  0.16759  0.65131  0.17419  1.0000
  H   H915      1.0  0.19743  0.63888  0.16704  1.0000
  C   C585      1.0  0.25576  0.72086  0.10968  1.0000
  S   S250      1.0  0.32206  0.53141  0.15406  1.0000
  H   H916      1.0  0.18214  0.62498  0.10621  1.0000
  H   H917      1.0  0.30677  0.69169  0.09380  1.0000
  H   H918      1.0  0.07745  0.71329  0.98942  1.0000
  H   H919      1.0  0.27274  0.61433  0.09369  1.0000
  H   H920      1.0  0.12983  0.70231  0.21428  1.0000
  C   C586      1.0  0.23513  0.54597  0.24848  1.0000
  H   H921      1.0  0.06319  0.71687  0.00856  1.0000
  S   S251      1.0  0.06435  0.70666  0.11145  1.0000
  C   C587      1.0  0.16722  0.59565  0.22890  1.0000
  C   C588      1.0  0.18047  0.58494  0.23578  1.0000
  C   C589      1.0  0.17746  0.57188  0.24960  1.0000
  H   H922      1.0  0.19302  0.58700  0.23067  1.0000
  H   H923      1.0  0.18767  0.56389  0.25510  1.0000
  C   C590      1.0  0.12985  0.52291  0.27651  1.0000
  H   H924      1.0  0.12332  0.63271  0.28852  1.0000
  S   S252      1.0  0.21028  0.72213  0.27157  1.0000
  H   H925      1.0  0.31607  0.67620  0.25364  1.0000
  H   H926      1.0  0.28662  0.49490  0.16210  1.0000
  H   H927      1.0  0.23022  0.70801  0.30731  1.0000
  S   S253      1.0  0.19816  0.55183  0.28994  1.0000
  H   H928      1.0  0.14085  0.60092  0.22996  1.0000
  Fe  Fe125     1.0  0.29746  0.54770  0.14992  1.0000
  C   C591      1.0  0.15106  0.59288  0.23542  1.0000
  C   C592      1.0  0.08869  0.73177  0.00301  1.0000
  C   C593      1.0  0.31593  0.69310  0.10018  1.0000
  S   S254      1.0  0.30693  0.53026  0.19402  1.0000
  H   H929      1.0  0.16275  0.52208  0.26660  1.0000
  H   H930      1.0  0.32242  0.67340  0.20923  1.0000
  S   S255      1.0  0.18761  0.65921  0.27542  1.0000
  H   H931      1.0  0.26789  0.51269  0.24809  1.0000
  C   C594      1.0  0.28096  0.55841  0.24829  1.0000
  H   H932      1.0  0.13892  0.60700  0.30496  1.0000
  Fe  Fe126     1.0  0.17793  0.54108  0.28748  1.0000
  H   H933      1.0  0.30530  0.71408  0.22133  1.0000
  N   N59       1.0  0.28870  0.56922  0.23303  1.0000
  C   C595      1.0  0.16123  0.56935  0.25631  1.0000
  H   H934      1.0  0.07562  0.69636  0.00728  1.0000
  C   C596      1.0  0.10543  0.70426  0.00119  1.0000
  H   H935      1.0  0.30043  0.68109  0.21601  1.0000
  H   H936      1.0  0.13557  0.57752  0.25399  1.0000
  H   H937      1.0  0.29084  0.50419  0.13060  1.0000
  H   H938      1.0  0.23287  0.72386  0.07035  1.0000
  C   C597      1.0  0.24245  0.71892  0.13896  1.0000
  C   C598      1.0  0.26433  0.53318  0.22717  1.0000
  C   C599      1.0  0.30346  0.58447  0.12050  1.0000
  H   H939      1.0  0.23572  0.71241  0.15046  1.0000
  C   C600      1.0  0.28015  0.58929  0.10758  1.0000
  C   C601      1.0  0.28122  0.60607  0.10126  1.0000
  C   C602      1.0  0.30084  0.57631  0.23687  1.0000
  H   H940      1.0  0.27068  0.58471  0.10504  1.0000
  H   H941      1.0  0.29777  0.68898  0.13193  1.0000
  C   C603      1.0  0.14811  0.57959  0.24896  1.0000
  H   H942      1.0  0.30821  0.51176  0.09438  1.0000
  H   H943      1.0  0.11801  0.52307  0.28610  1.0000
  N   N60       1.0  0.18952  0.64667  0.10740  1.0000
  C   C604      1.0  0.17653  0.63769  0.10864  1.0000
  C   C605      1.0  0.19979  0.63734  0.11975  1.0000
  C   C606      1.0  0.18149  0.66343  0.11073  1.0000
  C   C607      1.0  0.20029  0.64825  0.09050  1.0000
  H   H944      1.0  0.16859  0.64446  0.09944  1.0000
  H   H945      1.0  0.16820  0.63631  0.12127  1.0000
  N   N61       1.0  0.12809  0.72619  0.21913  1.0000
  H   H946      1.0  0.20984  0.64372  0.11889  1.0000
  H   H947      1.0  0.19220  0.63625  0.13272  1.0000
  H   H948      1.0  0.20591  0.62455  0.11779  1.0000
  H   H949      1.0  0.19095  0.67059  0.10977  1.0000
  H   H950      1.0  0.17344  0.66273  0.12348  1.0000
  H   H951      1.0  0.17357  0.67084  0.10169  1.0000
  H   H952      1.0  0.21043  0.65467  0.08929  1.0000
  H   H953      1.0  0.19311  0.65564  0.08080  1.0000
  H   H954      1.0  0.20640  0.63589  0.08739  1.0000
  Fe  Fe127     1.0  0.30661  0.51613  0.17529  1.0000
  C   C608      1.0  0.07572  0.70989  0.00324  1.0000
  H   H955      1.0  0.11591  0.70739  0.00429  1.0000
  C   C609      1.0  0.27549  0.69619  0.26813  1.0000
  H   H956      1.0  0.13298  0.53536  0.27388  1.0000
  C   C610      1.0  0.26112  0.72887  0.27196  1.0000
  H   H957      1.0  0.09599  0.71185  0.03149  1.0000
  C   C611      1.0  0.19087  0.62374  0.30886  1.0000
  Fe  Fe128     1.0  0.28357  0.54692  0.18642  1.0000
  H   H958      1.0  0.10397  0.72045  0.05919  1.0000
  H   H959      1.0  0.30707  0.58436  0.22555  1.0000
  C   C612      1.0  0.15665  0.67713  0.27083  1.0000
  Fe  Fe129     1.0  0.14549  0.72446  0.04003  1.0000
  H   H960      1.0  0.31211  0.57620  0.12790  1.0000
  H   H961      1.0  0.29473  0.58404  0.24633  1.0000
  C   C613      1.0  0.15541  0.65910  0.24860  1.0000
  H   H962      1.0  0.24917  0.69521  0.29831  1.0000
  N   N62       1.0  0.25514  0.60501  0.15783  1.0000
  C   C614      1.0  0.25755  0.58859  0.15394  1.0000
  C   C615      1.0  0.25934  0.61736  0.14226  1.0000
  C   C616      1.0  0.26616  0.60375  0.16896  1.0000
  C   C617      1.0  0.23756  0.61034  0.16619  1.0000
  H   H963      1.0  0.25472  0.57889  0.16544  1.0000
  H   H964      1.0  0.27064  0.58427  0.14752  1.0000
  H   H965      1.0  0.24943  0.58906  0.14557  1.0000
  H   H966      1.0  0.25760  0.62993  0.14471  1.0000
  H   H967      1.0  0.27254  0.61376  0.13570  1.0000
  H   H968      1.0  0.25133  0.61866  0.13348  1.0000
  H   H969      1.0  0.26435  0.61585  0.17243  1.0000
  H   H970      1.0  0.27953  0.60017  0.16285  1.0000
  H   H971      1.0  0.26365  0.59419  0.18065  1.0000
  H   H972      1.0  0.23395  0.60119  0.17791  1.0000
  H   H973      1.0  0.22889  0.61176  0.15803  1.0000
  H   H974      1.0  0.23530  0.62265  0.16944  1.0000
  H   H975      1.0  0.29040  0.54771  0.25329  1.0000
  H   H976      1.0  0.22062  0.71511  0.21328  1.0000
  S   S256      1.0  0.26066  0.56045  0.20157  1.0000
  H   H977      1.0  0.13016  0.63791  0.26630  1.0000
  H   H978      1.0  0.15664  0.50215  0.30207  1.0000
  C   C618      1.0  0.30386  0.70311  0.23186  1.0000
  H   H979      1.0  0.24359  0.72836  0.25836  1.0000
  H   H980      1.0  0.09537  0.70414  0.08762  1.0000
  H   H981      1.0  0.15696  0.68398  0.27959  1.0000
  H   H982      1.0  0.31085  0.56633  0.24184  1.0000
  C   C619      1.0  0.22411  0.73199  0.07863  1.0000
  C   C620      1.0  0.09114  0.72319  0.06579  1.0000
  H   H983      1.0  0.15496  0.65193  0.24021  1.0000
  C   C621      1.0  0.26140  0.70501  0.26169  1.0000
  H   H984      1.0  0.11095  0.71331  0.23845  1.0000
  C   C622      1.0  0.17008  0.66424  0.26667  1.0000
  C   C623      1.0  0.31799  0.70964  0.16742  1.0000
  C   C624      1.0  0.29740  0.55929  0.22029  1.0000
  S   S257      1.0  0.20647  0.69767  0.24974  1.0000
  H   H985      1.0  0.31453  0.60561  0.11604  1.0000
  H   H986      1.0  0.25046  0.71459  0.21037  1.0000
  H   H987      1.0  0.22987  0.72331  0.23446  1.0000
  H   H988      1.0  0.25050  0.72742  0.18982  1.0000
  H   H989      1.0  0.31334  0.69493  0.20257  1.0000
  S   S258      1.0  0.28946  0.55767  0.12552  1.0000
  C   C625      1.0  0.15778  0.61380  0.26392  1.0000
  H   H990      1.0  0.15812  0.61389  0.29516  1.0000
  C   C626      1.0  0.13799  0.71075  0.21366  1.0000
  C   C627      1.0  0.25432  0.72140  0.26348  1.0000
  H   H991      1.0  0.28861  0.55374  0.21714  1.0000
  C   C628      1.0  0.14253  0.68087  0.26402  1.0000
  N   N63       1.0  0.10101  0.68508  0.15053  1.0000
  C   C629      1.0  0.10939  0.66789  0.15723  1.0000
  C   C630      1.0  0.08634  0.68464  0.14478  1.0000
  C   C631      1.0  0.11272  0.69309  0.13639  1.0000
  C   C632      1.0  0.09561  0.69471  0.16373  1.0000
  H   H992      1.0  0.12057  0.66779  0.16160  1.0000
  H   H993      1.0  0.11354  0.66016  0.14772  1.0000
  H   H994      1.0  0.10094  0.66155  0.16805  1.0000
  H   H995      1.0  0.07949  0.69739  0.14000  1.0000
  H   H996      1.0  0.08995  0.67783  0.13453  1.0000
  H   H997      1.0  0.07736  0.67841  0.15499  1.0000
  H   H998      1.0  0.11714  0.68609  0.12623  1.0000
  H   H999      1.0  0.12393  0.69370  0.14030  1.0000
  H   H1000     1.0  0.10672  0.70605  0.13103  1.0000
  H   H1001     1.0  0.08892  0.70766  0.15929  1.0000
  H   H1002     1.0  0.10646  0.69543  0.16816  1.0000
  H   H1003     1.0  0.08700  0.68884  0.17471  1.0000
  N   N64       1.0  0.08904  0.71372  0.00861  1.0000
  H   H1004     1.0  0.17988  0.64534  0.25223  1.0000
  N   N65       1.0  0.31458  0.51019  0.11745  1.0000
  H   H1005     1.0  0.26614  0.57790  0.22376  1.0000
  H   H1006     1.0  0.30125  0.67113  0.24536  1.0000
  H   H1007     1.0  0.29394  0.72122  0.09249  1.0000
  H   H1008     1.0  0.31347  0.72665  0.09018  1.0000
  Fe  Fe130     1.0  0.19505  0.68281  0.27421  1.0000
  C   C633      1.0  0.27501  0.71994  0.27867  1.0000
  H   H1009     1.0  0.10763  0.70705  0.98736  1.0000
  H   H1010     1.0  0.07407  0.71605  0.03296  1.0000
  H   H1011     1.0  0.12749  0.52150  0.26487  1.0000
  H   H1012     1.0  0.10643  0.69058  0.00565  1.0000
  S   S259      1.0  0.21506  0.68183  0.28698  1.0000
  H   H1013     1.0  0.28733  0.71053  0.13043  1.0000
  H   H1014     1.0  0.29080  0.70159  0.23429  1.0000
  H   H1015     1.0  0.28093  0.59111  0.21494  1.0000
  C   C634      1.0  0.30485  0.60110  0.11376  1.0000
  C   C635      1.0  0.31395  0.67375  0.24233  1.0000
  H   H1016     1.0  0.21138  0.72982  0.08049  1.0000
  S   S260      1.0  0.29698  0.56440  0.16605  1.0000
  C   C636      1.0  0.29125  0.57849  0.11723  1.0000
  H   H1017     1.0  0.15628  0.59372  0.29428  1.0000
  S   S261      1.0  0.19454  0.51660  0.28324  1.0000
  C   C637      1.0  0.25998  0.52445  0.24362  1.0000
  C   C638      1.0  0.15898  0.50996  0.26921  1.0000
  C   C639      1.0  0.16942  0.65518  0.25561  1.0000
  Fe  Fe131     1.0  0.04440  0.72140  0.12836  1.0000
  Fe  Fe132     1.0  0.32029  0.54685  0.17222  1.0000
  C   C640      1.0  0.24540  0.53083  0.25429  1.0000
  H   H1018     1.0  0.27553  0.52809  0.21900  1.0000
  H   H1019     1.0  0.26881  0.59071  0.23586  1.0000
  C   C641      1.0  0.14943  0.60693  0.29386  1.0000
  H   H1020     1.0  0.30328  0.56703  0.20851  1.0000
  Fe  Fe133     1.0  0.19076  0.71982  0.25990  1.0000
  Fe  Fe134     1.0  0.14248  0.72903  0.00408  1.0000
  H   H1021     1.0  0.29606  0.52012  0.13699  1.0000
  H   H1022     1.0  0.32140  0.53119  0.12103  1.0000
  S   S262      1.0  0.15673  0.55417  0.27444  1.0000
  H   H1023     1.0  0.12709  0.49243  0.29472  1.0000
  Fe  Fe135     1.0  0.22499  0.69873  0.26331  1.0000
  H   H1024     1.0  0.22384  0.55093  0.25668  1.0000
  H   H1025     1.0  0.19926  0.62564  0.29629  1.0000
  S   S263      1.0  0.28210  0.72837  0.29118  1.0000
  H   H1026     1.0  0.14896  0.52410  0.29595  1.0000
  C   C642      1.0  0.29701  0.51500  0.12606  1.0000
  C   C643      1.0  0.13194  0.60470  0.27706  1.0000
  C   C644      1.0  0.14605  0.51173  0.29773  1.0000
  C   C645      1.0  0.32406  0.49783  0.12928  1.0000
  H   H1027     1.0  0.28074  0.68339  0.26710  1.0000
  C   C646      1.0  0.28237  0.70369  0.27653  1.0000
  N   N66       1.0  0.31597  0.68790  0.22794  1.0000
  Fe  Fe136     1.0  0.03361  0.72144  0.16508  1.0000
  H   H1028     1.0  0.99116  0.72016  0.12803  1.0000
  C   C647      1.0  0.27558  0.58287  0.22662  1.0000
  H   H1029     1.0  0.08644  0.69547  0.03175  1.0000
  H   H1030     1.0  0.21197  0.64364  0.30554  1.0000
  C   C648      1.0  0.08626  0.70901  0.02698  1.0000
  H   H1031     1.0  0.27445  0.56541  0.25828  1.0000
  H   H1032     1.0  0.13804  0.59127  0.27797  1.0000
  C   C649      1.0  0.13449  0.63182  0.27813  1.0000
  H   H1033     1.0  0.15379  0.61929  0.25185  1.0000
  H   H1034     1.0  0.31494  0.53479  0.10205  1.0000
  C   C650      1.0  0.29393  0.70082  0.12307  1.0000
  H   H1035     1.0  0.02881  0.72835  0.21670  1.0000
  S   S264      1.0  0.15050  0.71740  0.98156  1.0000
  H   H1036     1.0  0.24987  0.71268  0.30572  1.0000
  H   H1037     1.0  0.30641  0.71532  0.16350  1.0000
  H   H1038     1.0  0.13481  0.51087  0.30799  1.0000
  H   H1039     1.0  0.31559  0.71687  0.12632  1.0000
  H   H1040     1.0  0.14518  0.71345  0.20060  1.0000
  H   H1041     1.0  0.14698  0.70361  0.22174  1.0000
  C   C651      1.0  0.31529  0.50278  0.10351  1.0000
  C   C652      1.0  0.32088  0.70733  0.11860  1.0000
  C   C653      1.0  0.24810  0.72773  0.20320  1.0000
  H   H1042     1.0  0.10708  0.72683  0.20952  1.0000
  H   H1043     1.0  0.32023  0.68652  0.16061  1.0000
  H   H1044     1.0  0.29639  0.73180  0.10682  1.0000
  C   C654      1.0  0.32191  0.52515  0.11090  1.0000
  C   C655      1.0  0.11927  0.72197  0.23669  1.0000
  S   S265      1.0  0.05534  0.72869  0.14556  1.0000
  H   H1045     1.0  0.22046  0.72874  0.19311  1.0000
  H   H1046     1.0  0.32312  0.50264  0.14043  1.0000
  H   H1047     1.0  0.32026  0.68066  0.10796  1.0000
  C   C656      1.0  0.05815  0.73053  0.08350  1.0000
  H   H1048     1.0  0.32312  0.66217  0.23984  1.0000
  H   H1049     1.0  0.17919  0.63347  0.30811  1.0000
  H   H1050     1.0  0.22774  0.72762  0.09091  1.0000
  H   H1051     1.0  0.05742  0.72897  0.19919  1.0000
  C   C657      1.0  0.21890  0.72841  0.20656  1.0000
  H   H1052     1.0  0.12820  0.71575  0.24500  1.0000
  H   H1053     1.0  0.14856  0.73136  0.22555  1.0000
  H   H1054     1.0  0.22350  0.61357  0.31016  1.0000
  C   C658      1.0  0.31240  0.70604  0.47136  1.0000
  Fe  Fe137     1.0  0.25694  0.64976  0.52005  1.0000
  S   S266      1.0  0.24472  0.66578  0.49932  1.0000
  S   S267      1.0  0.28158  0.65445  0.52049  1.0000
  Fe  Fe138     1.0  0.23026  0.62928  0.53323  1.0000
  S   S268      1.0  0.21607  0.64369  0.51319  1.0000
  S   S269      1.0  0.21865  0.60944  0.55287  1.0000
  Fe  Fe139     1.0  0.24116  0.64206  0.49572  1.0000
  S   S270      1.0  0.24919  0.64031  0.46861  1.0000
  Fe  Fe140     1.0  0.22104  0.66598  0.51839  1.0000
  S   S271      1.0  0.20159  0.68966  0.51866  1.0000
  S   S272      1.0  0.25516  0.62578  0.51525  1.0000
  S   S273      1.0  0.23331  0.65186  0.53972  1.0000
  H   H1055     1.0  0.21420  0.53584  0.43081  1.0000
  H   H1056     1.0  0.25251  0.68215  0.41869  1.0000
  H   H1057     1.0  0.17669  0.67210  0.54696  1.0000
  H   H1058     1.0  0.25233  0.66205  0.41623  1.0000
  S   S274      1.0  0.24917  0.57357  0.61676  1.0000
  C   C659      1.0  0.24527  0.73234  0.59623  1.0000
  C   C660      1.0  0.28333  0.65307  0.47401  1.0000
  H   H1059     1.0  0.20642  0.69692  0.42662  1.0000
  C   C661      1.0  0.31007  0.65051  0.45486  1.0000
  C   C662      1.0  0.21427  0.61192  0.32220  1.0000
  C   C663      1.0  0.22932  0.68537  0.40163  1.0000
  H   H1060     1.0  0.20200  0.60426  0.60673  1.0000
  H   H1061     1.0  0.16323  0.65402  0.59199  1.0000
  C   C664      1.0  0.25456  0.71798  0.51335  1.0000
  Fe  Fe141     1.0  0.29744  0.72722  0.54632  1.0000
  C   C665      1.0  0.21933  0.66462  0.42509  1.0000
  H   H1062     1.0  0.27859  0.69427  0.50065  1.0000
  Fe  Fe142     1.0  0.21828  0.61349  0.40736  1.0000
  S   S275      1.0  0.24289  0.60793  0.38962  1.0000
  S   S276      1.0  0.21494  0.60454  0.43518  1.0000
  Fe  Fe143     1.0  0.20015  0.63244  0.37960  1.0000
  S   S277      1.0  0.22329  0.62887  0.35973  1.0000
  S   S278      1.0  0.17685  0.64512  0.37021  1.0000
  Fe  Fe144     1.0  0.22798  0.60257  0.37433  1.0000
  S   S279      1.0  0.23646  0.58087  0.36138  1.0000
  Fe  Fe145     1.0  0.23559  0.63470  0.37687  1.0000
  S   S280      1.0  0.25156  0.65380  0.36720  1.0000
  S   S281      1.0  0.20399  0.60578  0.39324  1.0000
  S   S282      1.0  0.21188  0.64066  0.39555  1.0000
  S   S283      1.0  0.29146  0.70410  0.39493  1.0000
  H   H1063     1.0  0.21089  0.56893  0.39250  1.0000
  C   C666      1.0  0.18296  0.71461  0.55574  1.0000
  Fe  Fe146     1.0  0.29818  0.68069  0.41370  1.0000
  S   S284      1.0  0.29869  0.65459  0.41250  1.0000
  H   H1064     1.0  0.25345  0.69378  0.55708  1.0000
  H   H1065     1.0  0.17425  0.71085  0.53594  1.0000
  H   H1066     1.0  0.15988  0.64733  0.57525  1.0000
  H   H1067     1.0  0.30422  0.62134  0.45447  1.0000
  H   H1068     1.0  0.24503  0.56302  0.41415  1.0000
  H   H1069     1.0  0.20642  0.66889  0.42289  1.0000
  H   H1070     1.0  0.22900  0.53265  0.40190  1.0000
  H   H1071     1.0  0.19613  0.57583  0.61676  1.0000
  N   N67       1.0  0.29826  0.64121  0.46749  1.0000
  H   H1072     1.0  0.21846  0.65892  0.43860  1.0000
  C   C667      1.0  0.19361  0.64126  0.64123  1.0000
  C   C668      1.0  0.26500  0.65341  0.37967  1.0000
  C   C669      1.0  0.26871  0.63971  0.39251  1.0000
  C   C670      1.0  0.27950  0.63987  0.40225  1.0000
  C   C671      1.0  0.28623  0.65391  0.39946  1.0000
  C   C672      1.0  0.28250  0.66753  0.38659  1.0000
  C   C673      1.0  0.27200  0.66727  0.37668  1.0000
  H   H1073     1.0  0.26344  0.62893  0.39483  1.0000
  H   H1074     1.0  0.28238  0.62925  0.41215  1.0000
  H   H1075     1.0  0.28805  0.67812  0.38394  1.0000
  H   H1076     1.0  0.26926  0.67787  0.36672  1.0000
  C   C674      1.0  0.18018  0.66411  0.35699  1.0000
  C   C675      1.0  0.17454  0.66959  0.34212  1.0000
  C   C676      1.0  0.17897  0.68372  0.33056  1.0000
  C   C677      1.0  0.18824  0.69289  0.33429  1.0000
  C   C678      1.0  0.19302  0.68794  0.34961  1.0000
  C   C679      1.0  0.18942  0.67329  0.36073  1.0000
  H   H1077     1.0  0.16716  0.66266  0.33933  1.0000
  H   H1078     1.0  0.17508  0.68758  0.31883  1.0000
  H   H1079     1.0  0.19993  0.69513  0.35270  1.0000
  H   H1080     1.0  0.19363  0.66919  0.37230  1.0000
  Fe  Fe147     1.0  0.29971  0.69944  0.43852  1.0000
  H   H1081     1.0  0.23589  0.66971  0.34040  1.0000
  H   H1082     1.0  0.23589  0.69357  0.35054  1.0000
  H   H1083     1.0  0.24745  0.70999  0.52396  1.0000
  C   C680      1.0  0.19960  0.56381  0.34260  1.0000
  C   C681      1.0  0.21680  0.55791  0.33779  1.0000
  C   C682      1.0  0.22798  0.56318  0.34367  1.0000
  C   C683      1.0  0.22208  0.57456  0.35418  1.0000
  C   C684      1.0  0.20489  0.58058  0.35886  1.0000
  C   C685      1.0  0.19373  0.57512  0.35319  1.0000
  H   H1084     1.0  0.22147  0.54916  0.32967  1.0000
  H   H1085     1.0  0.24126  0.55844  0.34000  1.0000
  H   H1086     1.0  0.20015  0.58936  0.36692  1.0000
  H   H1087     1.0  0.18043  0.57965  0.35706  1.0000
  C   C686      1.0  0.28067  0.66956  0.53141  1.0000
  C   C687      1.0  0.26575  0.67608  0.54153  1.0000
  C   C688      1.0  0.26502  0.68889  0.54922  1.0000
  C   C689      1.0  0.27908  0.69557  0.54653  1.0000
  C   C690      1.0  0.29403  0.68901  0.53648  1.0000
  C   C691      1.0  0.29488  0.67586  0.52916  1.0000
  H   H1088     1.0  0.25477  0.67124  0.54349  1.0000
  H   H1089     1.0  0.30977  0.63898  0.48763  1.0000
  H   H1090     1.0  0.30651  0.67073  0.52150  1.0000
  C   C692      1.0  0.23970  0.62979  0.45991  1.0000
  C   C693      1.0  0.22625  0.62247  0.46919  1.0000
  C   C694      1.0  0.21880  0.61458  0.46158  1.0000
  C   C695      1.0  0.22456  0.61425  0.44462  1.0000
  C   C696      1.0  0.23803  0.62155  0.43539  1.0000
  C   C697      1.0  0.24567  0.62911  0.44306  1.0000
  H   H1091     1.0  0.22159  0.62286  0.48220  1.0000
  H   H1092     1.0  0.20843  0.60888  0.46881  1.0000
  H   H1093     1.0  0.24271  0.62117  0.42238  1.0000
  H   H1094     1.0  0.25627  0.63446  0.43591  1.0000
  C   C698      1.0  0.20004  0.69865  0.53523  1.0000
  C   C699      1.0  0.18480  0.70843  0.54163  1.0000
  C   C700      1.0  0.19651  0.71138  0.56319  1.0000
  C   C701      1.0  0.21193  0.70206  0.55646  1.0000
  C   C702      1.0  0.21367  0.69559  0.54254  1.0000
  C   C703      1.0  0.31248  0.70285  0.48827  1.0000
  H   H1095     1.0  0.22236  0.69930  0.56233  1.0000
  H   H1096     1.0  0.22551  0.68818  0.53755  1.0000
  C   C704      1.0  0.22756  0.59940  0.57033  1.0000
  C   C705      1.0  0.23933  0.60562  0.57406  1.0000
  C   C706      1.0  0.24589  0.59757  0.58832  1.0000
  C   C707      1.0  0.24085  0.58318  0.59884  1.0000
  C   C708      1.0  0.22912  0.57695  0.59507  1.0000
  C   C709      1.0  0.22238  0.58513  0.58094  1.0000
  H   H1097     1.0  0.24342  0.61660  0.56596  1.0000
  H   H1098     1.0  0.25501  0.60243  0.59114  1.0000
  H   H1099     1.0  0.22542  0.56570  0.60288  1.0000
  H   H1100     1.0  0.21337  0.58018  0.57803  1.0000
  Fe  Fe148     1.0  0.18781  0.50773  0.31087  1.0000
  H   H1101     1.0  0.19207  0.63651  0.58887  1.0000
  H   H1102     1.0  0.23640  0.69550  0.39699  1.0000
  N   N68       1.0  0.22826  0.67844  0.41965  1.0000
  C   C710      1.0  0.23630  0.67755  0.32761  1.0000
  H   H1103     1.0  0.27822  0.72359  0.48577  1.0000
  C   C711      1.0  0.23935  0.72879  0.40003  1.0000
  Fe  Fe149     1.0  0.27409  0.71364  0.41669  1.0000
  S   S285      1.0  0.27937  0.68970  0.43501  1.0000
  C   C712      1.0  0.31972  0.71232  0.49418  1.0000
  H   H1104     1.0  0.18848  0.62939  0.57241  1.0000
  H   H1105     1.0  0.19726  0.65938  0.54481  1.0000
  C   C713      1.0  0.17650  0.64734  0.64196  1.0000
  H   H1106     1.0  0.17989  0.61293  0.60984  1.0000
  C   C714      1.0  0.19067  0.60850  0.61602  1.0000
  C   C715      1.0  0.23595  0.70142  0.33777  1.0000
  H   H1107     1.0  0.17991  0.65014  0.54788  1.0000
  C   C716      1.0  0.26597  0.69582  0.49843  1.0000
  S   S286      1.0  0.24732  0.72672  0.41754  1.0000
  H   H1108     1.0  0.23792  0.54929  0.38759  1.0000
  H   H1109     1.0  0.22583  0.70203  0.42544  1.0000
  H   H1110     1.0  0.18747  0.66645  0.58774  1.0000
  H   H1111     1.0  0.28660  0.66175  0.47963  1.0000
  H   H1112     1.0  0.18330  0.61045  0.34130  1.0000
  Fe  Fe150     1.0  0.24028  0.55127  0.63476  1.0000
  H   H1113     1.0  0.18770  0.61133  0.31152  1.0000
  H   H1114     1.0  0.31765  0.62194  0.47701  1.0000
  Fe  Fe151     1.0  0.15570  0.70709  0.63696  1.0000
  H   H1115     1.0  0.21470  0.71272  0.63401  1.0000
  C   C717      1.0  0.29327  0.63032  0.45979  1.0000
  C   C718      1.0  0.28923  0.48600  0.63961  1.0000
  C   C719      1.0  0.20862  0.56210  0.40574  1.0000
  H   H1116     1.0  0.22587  0.65452  0.41821  1.0000
  H   H1117     1.0  0.31384  0.65911  0.46016  1.0000
  H   H1118     1.0  0.28690  0.63774  0.44947  1.0000
  C   C720      1.0  0.26217  0.68507  0.32584  1.0000
  H   H1119     1.0  0.26782  0.72063  0.47161  1.0000
  H   H1120     1.0  0.27655  0.66062  0.46408  1.0000
  S   S287      1.0  0.17768  0.69152  0.62310  1.0000
  C   C721      1.0  0.18506  0.58087  0.62581  1.0000
  H   H1121     1.0  0.23574  0.67564  0.39427  1.0000
  C   C722      1.0  0.21920  0.69159  0.42901  1.0000
  S   S288      1.0  0.22054  0.53909  0.63360  1.0000
  H   H1122     1.0  0.20023  0.57111  0.41328  1.0000
  Fe  Fe152     1.0  0.17214  0.71010  0.60021  1.0000
  H   H1123     1.0  0.24732  0.53721  0.40473  1.0000
  S   S289      1.0  0.15510  0.69668  0.59582  1.0000
  S   S290      1.0  0.19512  0.70964  0.31934  1.0000
  C   C723      1.0  0.26570  0.72426  0.48369  1.0000
  C   C724      1.0  0.19270  0.63933  0.57528  1.0000
  H   H1124     1.0  0.30499  0.69393  0.53449  1.0000
  H   H1125     1.0  0.30439  0.65815  0.44419  1.0000
  H   H1126     1.0  0.20176  0.55240  0.40667  1.0000
  N   N69       1.0  0.24444  0.69157  0.32491  1.0000
  H   H1127     1.0  0.23265  0.54009  0.43365  1.0000
  H   H1128     1.0  0.29756  0.62384  0.49110  1.0000
  H   H1129     1.0  0.21673  0.69066  0.39874  1.0000
  H   H1130     1.0  0.26867  0.69539  0.32373  1.0000
  H   H1131     1.0  0.20188  0.63850  0.62980  1.0000
  H   H1132     1.0  0.24499  0.66690  0.43639  1.0000
  S   S291      1.0  0.16973  0.53165  0.31488  1.0000
  H   H1133     1.0  0.19257  0.61942  0.61939  1.0000
  H   H1134     1.0  0.24090  0.71096  0.48261  1.0000
  N   N70       1.0  0.18259  0.65602  0.56978  1.0000
  C   C725      1.0  0.18413  0.65955  0.55159  1.0000
  S   S292      1.0  0.27738  0.71223  0.55572  1.0000
  C   C726      1.0  0.18868  0.66859  0.57405  1.0000
  N   N71       1.0  0.22447  0.55471  0.41138  1.0000
  S   S293      1.0  0.24582  0.49036  0.63602  1.0000
  H   H1135     1.0  0.31957  0.70976  0.50730  1.0000
  H   H1136     1.0  0.17572  0.63260  0.33854  1.0000
  H   H1137     1.0  0.24210  0.71180  0.33639  1.0000
  H   H1138     1.0  0.19306  0.62262  0.34821  1.0000
  H   H1139     1.0  0.22322  0.68211  0.32602  1.0000
  H   H1140     1.0  0.20608  0.63841  0.56892  1.0000
  C   C727      1.0  0.23515  0.54290  0.40099  1.0000
  H   H1141     1.0  0.25952  0.68714  0.50879  1.0000
  C   C728      1.0  0.18720  0.62254  0.33812  1.0000
  H   H1142     1.0  0.21307  0.55462  0.43712  1.0000
  N   N72       1.0  0.18768  0.59502  0.63085  1.0000
  S   S294      1.0  0.30243  0.69410  0.46495  1.0000
  S   S295      1.0  0.25749  0.52708  0.64307  1.0000
  C   C729      1.0  0.23409  0.71984  0.58083  1.0000
  S   S296      1.0  0.19402  0.71832  0.58133  1.0000
  H   H1143     1.0  0.26691  0.71663  0.51621  1.0000
  H   H1144     1.0  0.21800  0.68666  0.44266  1.0000
  H   H1145     1.0  0.30695  0.69297  0.49688  1.0000
  H   H1146     1.0  0.31982  0.72128  0.44712  1.0000
  C   C730      1.0  0.23317  0.56804  0.40972  1.0000
  C   C731      1.0  0.30623  0.63101  0.48138  1.0000
  H   H1147     1.0  0.20204  0.66840  0.56799  1.0000
  C   C732      1.0  0.24526  0.67214  0.42289  1.0000
  H   H1148     1.0  0.26343  0.67692  0.33824  1.0000
  C   C733      1.0  0.22094  0.54589  0.42902  1.0000
  H   H1149     1.0  0.22534  0.57745  0.41706  1.0000
  H   H1150     1.0  0.18150  0.68136  0.56991  1.0000
  H   H1151     1.0  0.22750  0.71188  0.59192  1.0000
  H   H1152     1.0  0.23269  0.70617  0.50461  1.0000
  H   H1153     1.0  0.26897  0.67759  0.31630  1.0000
  H   H1154     1.0  0.17411  0.58458  0.61993  1.0000
  H   H1155     1.0  0.15700  0.66917  0.57443  1.0000
  C   C734      1.0  0.16490  0.65663  0.57823  1.0000
  H   H1156     1.0  0.26289  0.72010  0.38444  1.0000
  H   H1157     1.0  0.23634  0.57469  0.39651  1.0000
  N   N73       1.0  0.19880  0.62495  0.32170  1.0000
  C   C735      1.0  0.20336  0.71990  0.64026  1.0000
  C   C736      1.0  0.20282  0.64159  0.31761  1.0000
  Fe  Fe153     1.0  0.31057  0.71292  0.40169  1.0000
  H   H1158     1.0  0.16147  0.60571  0.63747  1.0000
  S   S297      1.0  0.13729  0.69327  0.63609  1.0000
  H   H1159     1.0  0.20805  0.64329  0.32745  1.0000
  H   H1160     1.0  0.19151  0.65171  0.31635  1.0000
  H   H1161     1.0  0.22033  0.61208  0.33213  1.0000
  H   H1162     1.0  0.28435  0.62308  0.46898  1.0000
  H   H1163     1.0  0.22760  0.72205  0.57057  1.0000
  H   H1164     1.0  0.21169  0.59925  0.32480  1.0000
  S   S298      1.0  0.16848  0.65159  0.62409  1.0000
  H   H1165     1.0  0.22274  0.70722  0.33692  1.0000
  N   N74       1.0  0.25650  0.71318  0.49748  1.0000
  Fe  Fe154     1.0  0.13508  0.71202  0.61216  1.0000
  H   H1166     1.0  0.24295  0.66936  0.31868  1.0000
  Fe  Fe155     1.0  0.15905  0.67927  0.62002  1.0000
  H   H1167     1.0  0.26776  0.69168  0.48670  1.0000
  S   S299      1.0  0.20852  0.51583  0.31617  1.0000
  S   S300      1.0  0.31921  0.68848  0.41857  1.0000
  C   C737      1.0  0.24977  0.72489  0.38523  1.0000
  C   C738      1.0  0.24319  0.72752  0.37116  1.0000
  Fe  Fe156     1.0  0.19114  0.54082  0.31730  1.0000
  S   S301      1.0  0.29262  0.72447  0.42221  1.0000
  H   H1168     1.0  0.27446  0.64631  0.48380  1.0000
  H   H1169     1.0  0.20493  0.60001  0.64212  1.0000
  S   S302      1.0  0.18492  0.55756  0.33577  1.0000
  C   C739      1.0  0.23987  0.71453  0.49447  1.0000
  H   H1170     1.0  0.23226  0.72745  0.49379  1.0000
  H   H1171     1.0  0.24685  0.71247  0.57711  1.0000
  H   H1172     1.0  0.25130  0.72456  0.35974  1.0000
  H   H1173     1.0  0.24776  0.73114  0.51300  1.0000
  H   H1174     1.0  0.21372  0.58428  0.63005  1.0000
  C   C740      1.0  0.31999  0.71862  0.46018  1.0000
  H   H1175     1.0  0.24076  0.72379  0.60807  1.0000
  H   H1176     1.0  0.29835  0.49422  0.63569  1.0000
  H   H1177     1.0  0.32154  0.64196  0.44972  1.0000
  H   H1178     1.0  0.17104  0.72184  0.56088  1.0000
  S   S303      1.0  0.11079  0.72651  0.60567  1.0000
  H   H1179     1.0  0.27685  0.49405  0.63815  1.0000
  H   H1180     1.0  0.18281  0.57041  0.63667  1.0000
  S   S304      1.0  0.15187  0.72698  0.61429  1.0000
  C   C741      1.0  0.20229  0.58952  0.63862  1.0000
  H   H1181     1.0  0.25834  0.72643  0.59100  1.0000
  C   C742      1.0  0.17274  0.60122  0.64294  1.0000
  H   H1182     1.0  0.24921  0.49550  0.74788  1.0000
  H   H1183     1.0  0.05247  0.70979  0.75698  1.0000
  H   H1184     1.0  0.24056  0.59629  0.70424  1.0000
  Fe  Fe157     1.0  0.24451  0.52958  0.66902  1.0000
  S   S305      1.0  0.25793  0.52281  0.68998  1.0000
  S   S306      1.0  0.22480  0.51593  0.67096  1.0000
  H   H1185     1.0  0.05241  0.69281  0.87644  1.0000
  C   C743      1.0  0.13050  0.68892  0.68689  1.0000
  S   S307      1.0  0.22920  0.55481  0.66083  1.0000
  Fe  Fe158     1.0  0.04399  0.67000  0.79647  1.0000
  S   S308      1.0  0.02673  0.66576  0.82166  1.0000
  S   S309      1.0  0.05946  0.64674  0.78803  1.0000
  H   H1186     1.0  0.20247  0.54141  0.69540  1.0000
  Fe  Fe159     1.0  0.03566  0.68669  0.82557  1.0000
  S   S310      1.0  0.04227  0.68723  0.84944  1.0000
  S   S311      1.0  0.02455  0.68828  0.78359  1.0000
  H   H1187     1.0  0.24180  0.56750  0.70241  1.0000
  H   H1188     1.0  0.03853  0.72652  0.83000  1.0000
  S   S312      1.0  0.11021  0.70119  0.89448  1.0000
  H   H1189     1.0  0.31275  0.67696  0.80566  1.0000
  C   C744      1.0  0.11940  0.68127  0.85564  1.0000
  S   S313      1.0  0.14495  0.70888  0.89756  1.0000
  C   C745      1.0  0.31386  0.65351  0.73742  1.0000
  Fe  Fe160     1.0  0.13780  0.69285  0.88503  1.0000
  S   S314      1.0  0.14928  0.66562  0.88630  1.0000
  Fe  Fe161     1.0  0.11754  0.71937  0.90462  1.0000
  S   S315      1.0  0.13902  0.71104  0.86061  1.0000
  H   H1190     1.0  0.31296  0.59740  0.76198  1.0000
  Fe  Fe162     1.0  0.17836  0.63550  0.70995  1.0000
  S   S316      1.0  0.15937  0.62235  0.70911  1.0000
  S   S317      1.0  0.19784  0.64171  0.68700  1.0000
  Fe  Fe163     1.0  0.16678  0.63326  0.74715  1.0000
  S   S318      1.0  0.14710  0.61941  0.74969  1.0000
  S   S319      1.0  0.16981  0.63956  0.76971  1.0000
  Fe  Fe164     1.0  0.16662  0.60503  0.73217  1.0000
  S   S320      1.0  0.17543  0.57725  0.73525  1.0000
  Fe  Fe165     1.0  0.14173  0.63814  0.72652  1.0000
  S   S321      1.0  0.11657  0.65405  0.72289  1.0000
  S   S322      1.0  0.18682  0.61728  0.73185  1.0000
  S   S323      1.0  0.16030  0.65297  0.72514  1.0000
  H   H1191     1.0  0.31306  0.52635  0.71633  1.0000
  Fe  Fe166     1.0  0.22719  0.68240  0.77753  1.0000
  S   S324      1.0  0.23599  0.65496  0.78604  1.0000
  S   S325      1.0  0.21724  0.68934  0.75433  1.0000
  Fe  Fe167     1.0  0.23671  0.69020  0.80546  1.0000
  S   S326      1.0  0.24639  0.66339  0.81632  1.0000
  S   S327      1.0  0.23823  0.70820  0.81941  1.0000
  Fe  Fe168     1.0  0.25811  0.66154  0.78990  1.0000
  S   S328      1.0  0.28487  0.64897  0.78145  1.0000
  Fe  Fe169     1.0  0.22337  0.65937  0.81159  1.0000
  S   S329      1.0  0.20916  0.64082  0.82985  1.0000
  S   S330      1.0  0.25036  0.68882  0.77928  1.0000
  S   S331      1.0  0.21263  0.68644  0.80284  1.0000
  H   H1192     1.0  0.04027  0.62448  0.78167  1.0000
  H   H1193     1.0  0.28405  0.72184  0.78132  1.0000
  C   C746      1.0  0.14387  0.71209  0.95411  1.0000
  H   H1194     1.0  0.10335  0.67682  0.83475  1.0000
  H   H1195     1.0  0.31173  0.69355  0.76911  1.0000
  H   H1196     1.0  0.28259  0.67970  0.80867  1.0000
  H   H1197     1.0  0.10128  0.67909  0.69782  1.0000
  H   H1198     1.0  0.06913  0.71407  0.72797  1.0000
  H   H1199     1.0  0.13850  0.70673  0.93318  1.0000
  H   H1200     1.0  0.19112  0.69255  0.88542  1.0000
  H   H1201     1.0  0.12197  0.72263  0.67979  1.0000
  H   H1202     1.0  0.12968  0.65069  0.87347  1.0000
  C   C747      1.0  0.18189  0.65454  0.76468  1.0000
  C   C748      1.0  0.19217  0.65799  0.74886  1.0000
  C   C749      1.0  0.20280  0.66903  0.74553  1.0000
  C   C750      1.0  0.20313  0.67657  0.75799  1.0000
  C   C751      1.0  0.19278  0.67316  0.77373  1.0000
  C   C752      1.0  0.18206  0.66229  0.77702  1.0000
  H   H1203     1.0  0.19228  0.65174  0.73942  1.0000
  H   H1204     1.0  0.21125  0.67124  0.73359  1.0000
  H   H1205     1.0  0.19295  0.67898  0.78338  1.0000
  H   H1206     1.0  0.17400  0.65978  0.78921  1.0000
  C   C753      1.0  0.18964  0.64388  0.66968  1.0000
  C   C754      1.0  0.28391  0.48794  0.66832  1.0000
  C   C755      1.0  0.31297  0.65232  0.70979  1.0000
  H   H1207     1.0  0.21927  0.71494  0.85039  1.0000
  C   C756      1.0  0.16599  0.65169  0.65653  1.0000
  C   C757      1.0  0.17252  0.64975  0.67046  1.0000
  C   C758      1.0  0.20020  0.63967  0.65505  1.0000
  C   C759      1.0  0.23441  0.59266  0.67660  1.0000
  H   H1208     1.0  0.15280  0.65664  0.65704  1.0000
  H   H1209     1.0  0.16433  0.65317  0.68167  1.0000
  C   C760      1.0  0.16547  0.65929  0.86997  1.0000
  C   C761      1.0  0.17057  0.67055  0.85523  1.0000
  C   C762      1.0  0.18395  0.66504  0.84274  1.0000
  C   C763      1.0  0.19212  0.64823  0.84491  1.0000
  C   C764      1.0  0.18658  0.63693  0.85935  1.0000
  C   C765      1.0  0.17336  0.64245  0.87185  1.0000
  H   H1210     1.0  0.16429  0.68347  0.85346  1.0000
  H   H1211     1.0  0.18785  0.67373  0.83139  1.0000
  H   H1212     1.0  0.19276  0.62390  0.86106  1.0000
  H   H1213     1.0  0.16943  0.63363  0.88313  1.0000
  C   C766      1.0  0.07541  0.64926  0.77009  1.0000
  C   C767      1.0  0.08841  0.63558  0.76718  1.0000
  C   C768      1.0  0.10118  0.63709  0.75283  1.0000
  C   C769      1.0  0.10080  0.65219  0.74112  1.0000
  C   C770      1.0  0.08758  0.66582  0.74385  1.0000
  C   C771      1.0  0.07501  0.66444  0.75845  1.0000
  H   H1214     1.0  0.08869  0.62379  0.77610  1.0000
  H   H1215     1.0  0.11111  0.62644  0.75067  1.0000
  H   H1216     1.0  0.08711  0.67750  0.73479  1.0000
  H   H1217     1.0  0.06495  0.67502  0.76061  1.0000
  C   C772      1.0  0.05864  0.69616  0.84973  1.0000
  C   C773      1.0  0.06064  0.69756  0.86503  1.0000
  C   C774      1.0  0.07282  0.70556  0.86565  1.0000
  C   C775      1.0  0.08303  0.71235  0.85092  1.0000
  H   H1218     1.0  0.01454  0.66572  0.76639  1.0000
  C   C776      1.0  0.06945  0.70221  0.83509  1.0000
  H   H1219     1.0  0.07379  0.70710  0.87745  1.0000
  H   H1220     1.0  0.32278  0.69351  0.79281  1.0000
  H   H1221     1.0  0.06835  0.70087  0.82328  1.0000
  S   S332      1.0  0.01471  0.70576  0.81573  1.0000
  H   H1222     1.0  0.20002  0.72474  0.86210  1.0000
  S   S333      1.0  0.29347  0.57807  0.69217  1.0000
  H   H1223     1.0  0.03529  0.65436  0.76804  1.0000
  C   C777      1.0  0.31093  0.69073  0.80130  1.0000
  H   H1224     1.0  0.13399  0.68721  0.67387  1.0000
  H   H1225     1.0  0.17965  0.68884  0.87261  1.0000
  C   C778      1.0  0.28778  0.59669  0.77554  1.0000
  C   C779      1.0  0.08154  0.71030  0.83570  1.0000
  S   S334      1.0  0.30183  0.55344  0.73672  1.0000
  C   C780      1.0  0.05467  0.72204  0.75045  1.0000
  C   C781      1.0  0.30168  0.60399  0.76892  1.0000
  C   C782      1.0  0.30104  0.61968  0.77159  1.0000
  C   C783      1.0  0.28632  0.62838  0.78023  1.0000
  C   C784      1.0  0.27266  0.62079  0.78733  1.0000
  C   C785      1.0  0.27347  0.60491  0.78512  1.0000
  H   H1226     1.0  0.30068  0.65221  0.74275  1.0000
  H   H1227     1.0  0.31192  0.62508  0.76695  1.0000
  C   C786      1.0  0.99982  0.63953  0.77813  1.0000
  H   H1228     1.0  0.26297  0.59902  0.79064  1.0000
  C   C787      1.0  0.26752  0.53840  0.69042  1.0000
  C   C788      1.0  0.26948  0.55190  0.67692  1.0000
  C   C789      1.0  0.27735  0.56411  0.67759  1.0000
  C   C790      1.0  0.28319  0.56290  0.69177  1.0000
  C   C791      1.0  0.28107  0.54945  0.70524  1.0000
  C   C792      1.0  0.27327  0.53726  0.70458  1.0000
  C   C793      1.0  0.13840  0.72139  0.96653  1.0000
  C   C794      1.0  0.01387  0.64486  0.79644  1.0000
  H   H1229     1.0  0.28530  0.54843  0.71626  1.0000
  H   H1230     1.0  0.27164  0.52698  0.71514  1.0000
  C   C795      1.0  0.18129  0.55954  0.68789  1.0000
  C   C796      1.0  0.16816  0.57271  0.69203  1.0000
  C   C797      1.0  0.16628  0.57821  0.70658  1.0000
  C   C798      1.0  0.17720  0.57019  0.71730  1.0000
  C   C799      1.0  0.19013  0.55679  0.71333  1.0000
  C   C800      1.0  0.19239  0.55168  0.69847  1.0000
  H   H1231     1.0  0.15941  0.57868  0.68402  1.0000
  H   H1232     1.0  0.15610  0.58837  0.70973  1.0000
  H   H1233     1.0  0.19852  0.55047  0.72166  1.0000
  N   N75       1.0  0.20030  0.70049  0.85909  1.0000
  C   C801      1.0  0.20878  0.71251  0.86116  1.0000
  C   C802      1.0  0.21226  0.68447  0.85776  1.0000
  C   C803      1.0  0.19358  0.70731  0.84382  1.0000
  C   C804      1.0  0.18650  0.69772  0.87368  1.0000
  H   H1234     1.0  0.32034  0.54785  0.68844  1.0000
  H   H1235     1.0  0.27908  0.57440  0.66703  1.0000
  H   H1236     1.0  0.00613  0.65762  0.79662  1.0000
  C   C805      1.0  0.31277  0.50451  0.70840  1.0000
  H   H1237     1.0  0.26515  0.55283  0.66587  1.0000
  H   H1238     1.0  0.13127  0.67632  0.69525  1.0000
  H   H1239     1.0  0.04941  0.72574  0.80892  1.0000
  H   H1240     1.0  0.20968  0.49393  0.64655  1.0000
  H   H1241     1.0  0.20366  0.70962  0.83258  1.0000
  H   H1242     1.0  0.17737  0.70959  0.87507  1.0000
  H   H1243     1.0  0.28968  0.69569  0.77140  1.0000
  H   H1244     1.0  0.31387  0.66703  0.73322  1.0000
  N   N76       1.0  0.19463  0.68822  0.69525  1.0000
  C   C806      1.0  0.18320  0.68458  0.68714  1.0000
  C   C807      1.0  0.18520  0.69285  0.71119  1.0000
  C   C808      1.0  0.20214  0.70216  0.68424  1.0000
  C   C809      1.0  0.20797  0.67328  0.69840  1.0000
  H   H1245     1.0  0.20618  0.67512  0.85629  1.0000
  Fe  Fe170     1.0  0.30634  0.57143  0.74888  1.0000
  S   S335      1.0  0.18391  0.55325  0.66932  1.0000
  H   H1246     1.0  0.17494  0.70400  0.70926  1.0000
  H   H1247     1.0  0.17947  0.68255  0.71987  1.0000
  H   H1248     1.0  0.19340  0.69580  0.71762  1.0000
  H   H1249     1.0  0.21072  0.70537  0.69002  1.0000
  H   H1250     1.0  0.19242  0.71360  0.68140  1.0000
  H   H1251     1.0  0.20948  0.69901  0.67216  1.0000
  H   H1252     1.0  0.21480  0.66900  0.68670  1.0000
  H   H1253     1.0  0.20278  0.66266  0.70714  1.0000
  H   H1254     1.0  0.21724  0.67573  0.70386  1.0000
  N   N77       1.0  0.20969  0.61406  0.79558  1.0000
  C   C810      1.0  0.21527  0.62141  0.77775  1.0000
  C   C811      1.0  0.19568  0.62605  0.80327  1.0000
  C   C812      1.0  0.22364  0.61014  0.80409  1.0000
  C   C813      1.0  0.20412  0.59864  0.79723  1.0000
  H   H1255     1.0  0.22638  0.61304  0.77174  1.0000
  H   H1256     1.0  0.21869  0.63357  0.77597  1.0000
  H   H1257     1.0  0.20526  0.62378  0.77083  1.0000
  H   H1258     1.0  0.18457  0.62855  0.79786  1.0000
  H   H1259     1.0  0.19183  0.62139  0.81693  1.0000
  H   H1260     1.0  0.19916  0.63820  0.80139  1.0000
  H   H1261     1.0  0.23422  0.60070  0.79902  1.0000
  H   H1262     1.0  0.21971  0.60520  0.81770  1.0000
  H   H1263     1.0  0.22843  0.62145  0.80269  1.0000
  H   H1264     1.0  0.19981  0.59278  0.81053  1.0000
  H   H1265     1.0  0.21436  0.58932  0.79149  1.0000
  H   H1266     1.0  0.19353  0.60126  0.79095  1.0000
  H   H1267     1.0  0.30610  0.71974  0.77914  1.0000
  C   C814      1.0  0.13427  0.71430  0.94237  1.0000
  H   H1268     1.0  0.17757  0.67391  0.69494  1.0000
  C   C815      1.0  0.20625  0.59389  0.69285  1.0000
  C   C816      1.0  0.31850  0.51329  0.71664  1.0000
  H   H1269     1.0  0.09731  0.70994  0.71092  1.0000
  H   H1270     1.0  0.24792  0.58940  0.67674  1.0000
  C   C817      1.0  0.22714  0.59922  0.70369  1.0000
  C   C818      1.0  0.11300  0.71590  0.67865  1.0000
  H   H1271     1.0  0.13441  0.66917  0.82823  1.0000
  H   H1272     1.0  0.18981  0.68121  0.67496  1.0000
  H   H1273     1.0  0.26155  0.62705  0.79470  1.0000
  H   H1274     1.0  0.23251  0.58532  0.66864  1.0000
  S   S336      1.0  0.05421  0.68939  0.80129  1.0000
  H   H1275     1.0  0.18708  0.69867  0.84180  1.0000
  H   H1276     1.0  0.31857  0.64579  0.69929  1.0000
  C   C819      1.0  0.31985  0.48762  0.70854  1.0000
  H   H1277     1.0  0.11769  0.64032  0.86692  1.0000
  H   H1278     1.0  0.02980  0.62025  0.76822  1.0000
  H   H1279     1.0  0.13349  0.64777  0.83766  1.0000
  H   H1280     1.0  0.20323  0.58591  0.68625  1.0000
  H   H1281     1.0  0.10848  0.68566  0.86521  1.0000
  H   H1282     1.0  0.11948  0.69126  0.84409  1.0000
  N   N78       1.0  0.22407  0.58927  0.69362  1.0000
  H   H1283     1.0  0.17283  0.69547  0.68481  1.0000
  C   C820      1.0  0.22850  0.57136  0.70138  1.0000
  H   H1284     1.0  0.13080  0.68011  0.86011  1.0000
  H   H1285     1.0  0.22659  0.56339  0.69403  1.0000
  H   H1286     1.0  0.19809  0.59253  0.70554  1.0000
  H   H1287     1.0  0.21979  0.59670  0.71671  1.0000
  H   H1288     1.0  0.30285  0.51085  0.70183  1.0000
  H   H1289     1.0  0.08834  0.69914  0.69161  1.0000
  H   H1290     1.0  0.09199  0.67154  0.85576  1.0000
  H   H1291     1.0  0.99411  0.63009  0.78831  1.0000
  C   C821      1.0  0.28140  0.69344  0.80439  1.0000
  S   S337      1.0  0.30933  0.59128  0.72549  1.0000
  H   H1292     1.0  0.29955  0.65166  0.71386  1.0000
  H   H1293     1.0  0.27059  0.69830  0.79826  1.0000
  C   C822      1.0  0.30014  0.69065  0.77805  1.0000
  C   C823      1.0  0.13363  0.65980  0.84025  1.0000
  H   H1294     1.0  0.31364  0.66566  0.70485  1.0000
  H   H1295     1.0  0.29289  0.49621  0.66527  1.0000
  Fe  Fe171     1.0  0.14365  0.72802  0.87381  1.0000
  H   H1296     1.0  0.10735  0.65643  0.87834  1.0000
  H   H1297     1.0  0.11617  0.71444  0.66554  1.0000
  H   H1298     1.0  0.10245  0.65548  0.84436  1.0000
  C   C824      1.0  0.29464  0.71607  0.78773  1.0000
  H   H1299     1.0  0.27819  0.69885  0.81560  1.0000
  H   H1300     1.0  0.22353  0.61282  0.69845  1.0000
  Fe  Fe172     1.0  0.00774  0.68525  0.80902  1.0000
  Fe  Fe173     1.0  0.03285  0.70730  0.79120  1.0000
  H   H1301     1.0  0.22067  0.56841  0.71413  1.0000
  H   H1302     1.0  0.20264  0.60708  0.68631  1.0000
  H   H1303     1.0  0.21348  0.63531  0.65436  1.0000
  N   N79       1.0  0.01613  0.64042  0.78034  1.0000
  H   H1304     1.0  0.18451  0.71939  0.84437  1.0000
  H   H1305     1.0  0.29210  0.72180  0.79864  1.0000
  H   H1306     1.0  0.02309  0.61415  0.79045  1.0000
  C   C825      1.0  0.26242  0.49149  0.74923  1.0000
  C   C826      1.0  0.11000  0.70215  0.70767  1.0000
  N   N80       1.0  0.11368  0.69959  0.69053  1.0000
  C   C827      1.0  0.10118  0.69140  0.68895  1.0000
  H   H1307     1.0  0.21396  0.70786  0.87258  1.0000
  H   H1308     1.0  0.20023  0.57967  0.65011  1.0000
  H   H1309     1.0  0.11068  0.69008  0.71696  1.0000
  H   H1310     1.0  0.30165  0.67683  0.78155  1.0000
  H   H1311     1.0  0.21769  0.67904  0.86899  1.0000
  S   S338      1.0  0.10620  0.72822  0.92893  1.0000
  H   H1312     1.0  0.31551  0.55263  0.66837  1.0000
  H   H1313     1.0  0.11899  0.70860  0.70922  1.0000
  H   H1314     1.0  0.30742  0.62556  0.73421  1.0000
  H   H1315     1.0  0.17009  0.59122  0.65421  1.0000
  H   H1316     1.0  0.14531  0.65803  0.84457  1.0000
  S   S339      1.0  0.15581  0.71550  0.65946  1.0000
  H   H1317     1.0  0.14014  0.69444  0.68858  1.0000
  H   H1318     1.0  0.02513  0.65018  0.75433  1.0000
  H   H1319     1.0  0.02602  0.64460  0.79901  1.0000
  Fe  Fe174     1.0  0.30724  0.57222  0.71299  1.0000
  H   H1320     1.0  0.00772  0.63605  0.80698  1.0000
  H   H1321     1.0  0.23133  0.60609  0.67045  1.0000
  H   H1322     1.0  0.17436  0.61181  0.64713  1.0000
  H   H1323     1.0  0.10366  0.68920  0.67618  1.0000
  Fe  Fe175     1.0  0.21055  0.54112  0.66033  1.0000
  H   H1324     1.0  0.15549  0.70291  0.95371  1.0000
  C   C828      1.0  0.02781  0.62409  0.78016  1.0000
  H   H1325     1.0  0.31541  0.53225  0.68141  1.0000
  S   S340      1.0  0.28792  0.57740  0.77195  1.0000
  N   N81       1.0  0.11869  0.66524  0.85276  1.0000
  C   C829      1.0  0.11832  0.65259  0.86855  1.0000
  C   C830      1.0  0.10348  0.66733  0.84664  1.0000
  H   H1326     1.0  0.00101  0.63615  0.76613  1.0000
  N   N82       1.0  0.29678  0.69773  0.79287  1.0000
  H   H1327     1.0  0.22278  0.68604  0.84680  1.0000
  H   H1328     1.0  0.27834  0.49670  0.71665  1.0000
  C   C831      1.0  0.02306  0.65324  0.76666  1.0000
  H   H1329     1.0  0.23802  0.72361  0.78477  1.0000
  Fe  Fe176     1.0  0.23669  0.51492  0.64429  1.0000
  H   H1330     1.0  0.01640  0.73018  0.72453  1.0000
  H   H1331     1.0  0.30905  0.69619  0.81226  1.0000
  C   C832      1.0  0.11902  0.72579  0.94297  1.0000
  C   C833      1.0  0.24475  0.72599  0.80637  1.0000
  H   H1332     1.0  0.10035  0.72413  0.68084  1.0000
  H   H1333     1.0  0.27133  0.49608  0.66774  1.0000
  H   H1334     1.0  0.18945  0.70090  0.64544  1.0000
  H   H1335     1.0  0.32060  0.64845  0.74780  1.0000
  N   N83       1.0  0.32172  0.64467  0.72365  1.0000
  S   S341      1.0  0.09656  0.72490  0.85072  1.0000
  C   C834      1.0  0.24363  0.73063  0.78965  1.0000
  C   C835      1.0  0.32205  0.54269  0.67734  1.0000
  C   C836      1.0  0.32061  0.62698  0.72958  1.0000
  H   H1336     1.0  0.08961  0.71526  0.82427  1.0000
  C   C837      1.0  0.17422  0.72270  0.65419  1.0000
  Fe  Fe177     1.0  0.11170  0.72019  0.87033  1.0000
  C   C838      1.0  0.06417  0.72447  0.73406  1.0000
  H   H1337     1.0  0.26780  0.50285  0.74510  1.0000
  C   C839      1.0  0.18902  0.71329  0.64655  1.0000
  H   H1338     1.0  0.25255  0.73174  0.82565  1.0000
  H   H1339     1.0  0.26238  0.48658  0.76271  1.0000
  C   C840      1.0  0.27192  0.48606  0.72160  1.0000
  H   H1340     1.0  0.25900  0.49079  0.71945  1.0000
  H   H1341     1.0  0.29531  0.48481  0.73828  1.0000
  S   S342      1.0  0.07947  0.81230  0.19371  1.0000
  Fe  Fe178     1.0  0.09302  0.78245  0.23315  1.0000
  S   S343      1.0  0.11102  0.78718  0.20872  1.0000
  S   S344      1.0  0.10147  0.76322  0.25477  1.0000
  Fe  Fe179     1.0  0.09789  0.81403  0.20735  1.0000
  S   S345      1.0  0.11224  0.83479  0.19709  1.0000
  Fe  Fe180     1.0  0.09087  0.78496  0.19789  1.0000
  S   S346      1.0  0.09681  0.76726  0.18095  1.0000
  S   S347      1.0  0.08113  0.80940  0.23271  1.0000
  S   S348      1.0  0.07371  0.77826  0.22243  1.0000
  Fe  Fe181     1.0  0.14654  0.88567  0.23937  1.0000
  S   S349      1.0  0.17184  0.86871  0.23933  1.0000
  S   S350      1.0  0.12210  0.87893  0.24102  1.0000
  Fe  Fe182     1.0  0.15752  0.91512  0.24386  1.0000
  S   S351      1.0  0.18362  0.90076  0.24448  1.0000
  Fe  Fe183     1.0  0.18155  0.89113  0.22344  1.0000
  S   S352      1.0  0.20524  0.88707  0.20422  1.0000
  Fe  Fe184     1.0  0.17233  0.87925  0.26037  1.0000
  S   S353      1.0  0.18314  0.86411  0.28247  1.0000
  S   S354      1.0  0.15623  0.90736  0.22124  1.0000
  S   S355      1.0  0.14633  0.89439  0.26195  1.0000
  H   H1342     1.0  0.18925  0.78073  0.26629  1.0000
  S   S356      1.0  0.28925  0.84942  0.23046  1.0000
  H   H1343     1.0  0.15792  0.76343  0.04174  1.0000
  H   H1344     1.0  0.28645  0.79842  0.09928  1.0000
  S   S357      1.0  0.30715  0.83885  0.27112  1.0000
  H   H1345     1.0  0.10310  0.78480  0.07972  1.0000
  S   S358      1.0  0.12921  0.74958  0.04223  1.0000
  Fe  Fe185     1.0  0.29667  0.75205  0.16072  1.0000
  H   H1346     1.0  0.25978  0.77787  0.01184  1.0000
  H   H1347     1.0  0.30355  0.76550  0.04282  1.0000
  C   C841      1.0  0.26875  0.81403  0.17173  1.0000
  C   C842      1.0  0.24534  0.84464  0.25399  1.0000
  H   H1348     1.0  0.20797  0.83982  0.29815  1.0000
  H   H1349     1.0  0.01134  0.80509  0.13804  1.0000
  S   S359      1.0  0.21368  0.78823  0.28041  1.0000
  H   H1350     1.0  0.09893  0.73501  0.00640  1.0000
  H   H1351     1.0  0.07821  0.78072  0.10278  1.0000
  S   S360      1.0  0.24828  0.82801  0.03214  1.0000
  S   S361      1.0  0.26902  0.81297  0.15156  1.0000
  Fe  Fe186     1.0  0.24707  0.80112  0.04171  1.0000
  S   S362      1.0  0.22756  0.80513  0.06446  1.0000
  C   C843      1.0  0.21427  0.81846  0.98947  1.0000
  Fe  Fe187     1.0  0.20915  0.80823  0.04897  1.0000
  S   S363      1.0  0.18928  0.79304  0.05956  1.0000
  Fe  Fe188     1.0  0.22720  0.83245  0.05402  1.0000
  S   S364      1.0  0.22737  0.84510  0.07415  1.0000
  Fe  Fe189     1.0  0.23411  0.93151  0.12073  1.0000
  S   S365      1.0  0.24249  0.94548  0.09470  1.0000
  S   S366      1.0  0.20737  0.93642  0.13436  1.0000
  Fe  Fe190     1.0  0.26696  0.90630  0.12013  1.0000
  S   S367      1.0  0.27782  0.91826  0.09406  1.0000
  S   S368      1.0  0.28001  0.88103  0.13179  1.0000
  Fe  Fe191     1.0  0.26642  0.94242  0.10270  1.0000
  Fe  Fe192     1.0  0.25286  0.91993  0.08899  1.0000
  S   S369      1.0  0.24862  0.91319  0.06676  1.0000
  S   S370      1.0  0.25724  0.93014  0.12922  1.0000
  S   S371      1.0  0.24295  0.90640  0.11459  1.0000
  H   H1352     1.0  0.07338  0.76050  0.11055  1.0000
  C   C844      1.0  0.21908  0.75522  0.05568  1.0000
  H   H1353     1.0  0.25491  0.97039  0.12449  1.0000
  C   C845      1.0  0.27061  0.77581  0.00131  1.0000
  C   C846      1.0  0.23346  0.86404  0.07144  1.0000
  C   C847      1.0  0.23818  0.87410  0.05576  1.0000
  C   C848      1.0  0.24289  0.88910  0.05445  1.0000
  C   C849      1.0  0.24321  0.89398  0.06874  1.0000
  C   C850      1.0  0.23867  0.88376  0.08435  1.0000
  C   C851      1.0  0.23364  0.86902  0.08569  1.0000
  H   H1354     1.0  0.23806  0.87041  0.04468  1.0000
  H   H1355     1.0  0.24635  0.89691  0.04229  1.0000
  H   H1356     1.0  0.23879  0.88726  0.09544  1.0000
  H   H1357     1.0  0.22989  0.86138  0.09787  1.0000
  C   C852      1.0  0.27971  0.77556  0.05712  1.0000
  C   C853      1.0  0.17279  0.79752  0.01798  1.0000
  C   C854      1.0  0.18069  0.80011  0.02919  1.0000
  C   C855      1.0  0.18006  0.78970  0.04503  1.0000
  H   H1358     1.0  0.06592  0.74705  0.19544  1.0000
  H   H1359     1.0  0.99763  0.80701  0.15788  1.0000
  H   H1360     1.0  0.17300  0.80583  0.00587  1.0000
  H   H1361     1.0  0.18686  0.81044  0.02575  1.0000
  C   C856      1.0  0.26570  0.80499  0.98783  1.0000
  H   H1362     1.0  0.19089  0.74687  0.98292  1.0000
  C   C857      1.0  0.30496  0.76437  0.06785  1.0000
  H   H1363     1.0  0.20113  0.95466  0.29890  1.0000
  H   H1364     1.0  0.10810  0.74652  0.21247  1.0000
  H   H1365     1.0  0.31733  0.90870  0.14872  1.0000
  H   H1366     1.0  0.25768  0.78429  0.07465  1.0000
  H   H1367     1.0  0.21450  0.86314  0.26036  1.0000
  H   H1368     1.0  0.01657  0.74626  0.22466  1.0000
  H   H1369     1.0  0.29659  0.95212  0.13133  1.0000
  H   H1370     1.0  0.27259  0.76273  0.00013  1.0000
  C   C858      1.0  0.28810  0.87996  0.14880  1.0000
  C   C859      1.0  0.28436  0.89362  0.15617  1.0000
  C   C860      1.0  0.29130  0.89246  0.16963  1.0000
  C   C861      1.0  0.30480  0.92337  0.12136  1.0000
  H   H1371     1.0  0.25335  0.77348  0.98052  1.0000
  H   H1372     1.0  0.27606  0.90499  0.15164  1.0000
  H   H1373     1.0  0.28833  0.90294  0.17549  1.0000
  C   C862      1.0  0.29501  0.82635  0.28668  1.0000
  C   C863      1.0  0.28352  0.81980  0.28286  1.0000
  H   H1374     1.0  0.16352  0.74698  0.30491  1.0000
  C   C864      1.0  0.20513  0.80921  0.28128  1.0000
  H   H1375     1.0  0.21725  0.75586  0.09570  1.0000
  Fe  Fe193     1.0  0.11331  0.74287  0.02933  1.0000
  H   H1376     1.0  0.28161  0.82299  0.27030  1.0000
  N   N84       1.0  0.17434  0.76624  0.28654  1.0000
  N   N85       1.0  0.23464  0.85336  0.24187  1.0000
  H   H1377     1.0  0.21729  0.84787  0.23110  1.0000
  C   C865      1.0  0.20484  0.90287  0.18619  1.0000
  C   C866      1.0  0.19023  0.90977  0.18011  1.0000
  C   C867      1.0  0.19080  0.92065  0.16438  1.0000
  C   C868      1.0  0.20600  0.92448  0.15478  1.0000
  C   C869      1.0  0.22039  0.91795  0.16120  1.0000
  C   C870      1.0  0.21981  0.90730  0.17689  1.0000
  H   H1378     1.0  0.17864  0.90625  0.18719  1.0000
  H   H1379     1.0  0.17960  0.92569  0.15949  1.0000
  H   H1380     1.0  0.23202  0.92108  0.15413  1.0000
  H   H1381     1.0  0.23104  0.90238  0.18174  1.0000
  C   C871      1.0  0.18314  0.96662  0.23020  1.0000
  C   C872      1.0  0.17422  0.95382  0.23471  1.0000
  H   H1382     1.0  0.19626  0.96415  0.22431  1.0000
  H   H1383     1.0  0.18046  0.94162  0.23224  1.0000
  C   C873      1.0  0.16447  0.78434  0.02247  1.0000
  C   C874      1.0  0.13299  0.76937  0.24197  1.0000
  H   H1384     1.0  0.30030  0.92579  0.15298  1.0000
  H   H1385     1.0  0.25081  0.74414  0.06007  1.0000
  H   H1386     1.0  0.11581  0.76752  0.07086  1.0000
  H   H1387     1.0  0.26407  0.85036  0.09314  1.0000
  H   H1388     1.0  0.25469  0.83385  0.24981  1.0000
  H   H1389     1.0  0.02062  0.76384  0.19640  1.0000
  H   H1390     1.0  0.28173  0.77697  0.00499  1.0000
  H   H1391     1.0  0.17564  0.84175  0.26678  1.0000
  C   C875      1.0  0.08254  0.77076  0.16840  1.0000
  C   C876      1.0  0.06995  0.78522  0.16705  1.0000
  C   C877      1.0  0.05874  0.78762  0.15684  1.0000
  H   H1392     1.0  0.28163  0.83547  0.19226  1.0000
  S   S372      1.0  0.03600  0.81730  0.22446  1.0000
  C   C878      1.0  0.01990  0.79944  0.19363  1.0000
  H   H1393     1.0  0.06899  0.79464  0.17369  1.0000
  H   H1394     1.0  0.04907  0.79885  0.15573  1.0000
  H   H1395     1.0  0.20907  0.81768  0.00259  1.0000
  H   H1396     1.0  0.04131  0.76439  0.18403  1.0000
  C   C879      1.0  0.12320  0.75838  0.25271  1.0000
  N   N86       1.0  0.23089  0.73665  0.20909  1.0000
  H   H1397     1.0  0.17675  0.78742  0.29399  1.0000
  C   C880      1.0  0.11609  0.84550  0.21019  1.0000
  C   C881      1.0  0.12823  0.85525  0.20381  1.0000
  C   C882      1.0  0.13079  0.86492  0.21345  1.0000
  C   C883      1.0  0.12084  0.86530  0.22938  1.0000
  C   C884      1.0  0.10869  0.85557  0.23576  1.0000
  C   C885      1.0  0.10653  0.84547  0.22634  1.0000
  H   H1398     1.0  0.13566  0.85538  0.19131  1.0000
  H   H1399     1.0  0.14008  0.87247  0.20835  1.0000
  H   H1400     1.0  0.10098  0.85578  0.24809  1.0000
  H   H1401     1.0  0.09728  0.83790  0.23153  1.0000
  N   N87       1.0  0.23609  0.86322  0.16100  1.0000
  C   C886      1.0  0.24546  0.87054  0.16831  1.0000
  C   C887      1.0  0.23072  0.84865  0.17323  1.0000
  C   C888      1.0  0.24690  0.85801  0.14577  1.0000
  C   C889      1.0  0.22120  0.87571  0.15673  1.0000
  H   H1402     1.0  0.24898  0.88209  0.15977  1.0000
  H   H1403     1.0  0.25725  0.86175  0.17082  1.0000
  H   H1404     1.0  0.23799  0.87376  0.18030  1.0000
  H   H1405     1.0  0.22404  0.84247  0.16802  1.0000
  H   H1406     1.0  0.24155  0.83920  0.17715  1.0000
  H   H1407     1.0  0.22220  0.85233  0.18469  1.0000
  H   H1408     1.0  0.25044  0.86890  0.13604  1.0000
  H   H1409     1.0  0.24066  0.85153  0.14041  1.0000
  H   H1410     1.0  0.25873  0.84934  0.14831  1.0000
  H   H1411     1.0  0.21432  0.87087  0.15044  1.0000
  H   H1412     1.0  0.22461  0.88735  0.14833  1.0000
  H   H1413     1.0  0.21234  0.87924  0.16806  1.0000
  S   S373      1.0  0.30800  0.81052  0.24225  1.0000
  N   N88       1.0  0.27304  0.82395  0.09514  1.0000
  C   C890      1.0  0.27436  0.82511  0.07728  1.0000
  C   C891      1.0  0.27412  0.84006  0.09759  1.0000
  C   C892      1.0  0.28678  0.81075  0.10099  1.0000
  C   C893      1.0  0.25685  0.81989  0.10475  1.0000
  C   C894      1.0  0.21067  0.81702  0.29049  1.0000
  Fe  Fe194     1.0  0.29248  0.76503  0.12485  1.0000
  H   H1414     1.0  0.26410  0.83493  0.07251  1.0000
  H   H1415     1.0  0.25999  0.75276  0.12327  1.0000
  H   H1416     1.0  0.20035  0.75904  0.08555  1.0000
  H   H1417     1.0  0.20112  0.97514  0.25464  1.0000
  S   S374      1.0  0.28956  0.74126  0.14331  1.0000
  H   H1418     1.0  0.28623  0.84348  0.09061  1.0000
  C   C895      1.0  0.19116  0.84288  0.28228  1.0000
  S   S375      1.0  0.31104  0.87649  0.19204  1.0000
  H   H1419     1.0  0.21401  0.77330  0.07868  1.0000
  H   H1420     1.0  0.24621  0.82969  0.10075  1.0000
  N   N89       1.0  0.06342  0.86388  0.20024  1.0000
  C   C896      1.0  0.04599  0.87345  0.20222  1.0000
  C   C897      1.0  0.07478  0.87488  0.19853  1.0000
  C   C898      1.0  0.06797  0.85682  0.18525  1.0000
  C   C899      1.0  0.06500  0.85020  0.21503  1.0000
  H   H1421     1.0  0.03719  0.86532  0.20374  1.0000
  H   H1422     1.0  0.04424  0.88381  0.19122  1.0000
  H   H1423     1.0  0.04218  0.87893  0.21343  1.0000
  H   H1424     1.0  0.08805  0.86794  0.19681  1.0000
  H   H1425     1.0  0.07384  0.88547  0.18759  1.0000
  H   H1426     1.0  0.07204  0.88006  0.20981  1.0000
  H   H1427     1.0  0.08109  0.84949  0.18345  1.0000
  H   H1428     1.0  0.06693  0.86675  0.17381  1.0000
  H   H1429     1.0  0.05976  0.84829  0.18623  1.0000
  H   H1430     1.0  0.07797  0.84275  0.21381  1.0000
  H   H1431     1.0  0.05666  0.84157  0.21675  1.0000
  H   H1432     1.0  0.06183  0.85494  0.22663  1.0000
  C   C900      1.0  0.00294  0.80015  0.20111  1.0000
  C   C901      1.0  0.18854  0.95911  0.29590  1.0000
  C   C902      1.0  0.10786  0.77105  0.08259  1.0000
  H   H1433     1.0  0.13618  0.97530  0.25113  1.0000
  H   H1434     1.0  0.20257  0.79968  0.98810  1.0000
  N   N90       1.0  0.04039  0.74947  0.20889  1.0000
  H   H1435     1.0  0.17125  0.76840  0.06175  1.0000
  C   C903      1.0  0.00625  0.81234  0.22223  1.0000
  S   S376      1.0  0.30202  0.77478  0.14136  1.0000
  H   H1436     1.0  0.32067  0.75237  0.27067  1.0000
  H   H1437     1.0  0.28639  0.82821  0.06959  1.0000
  Fe  Fe195     1.0  0.14385  0.75834  0.01671  1.0000
  H   H1438     1.0  0.27356  0.81316  0.07501  1.0000
  N   N91       1.0  0.10034  0.92640  0.25681  1.0000
  C   C904      1.0  0.08435  0.93777  0.25413  1.0000
  C   C905      1.0  0.11253  0.92693  0.24073  1.0000
  C   C906      1.0  0.09774  0.90921  0.26388  1.0000
  C   C907      1.0  0.10677  0.93172  0.26845  1.0000
  H   H1439     1.0  0.07485  0.93773  0.26602  1.0000
  H   H1440     1.0  0.07920  0.93409  0.24538  1.0000
  H   H1441     1.0  0.08596  0.95083  0.24876  1.0000
  H   H1442     1.0  0.12470  0.91856  0.24236  1.0000
  H   H1443     1.0  0.10828  0.92277  0.23165  1.0000
  H   H1444     1.0  0.11501  0.93966  0.23506  1.0000
  H   H1445     1.0  0.10957  0.90033  0.26616  1.0000
  H   H1446     1.0  0.09331  0.90460  0.25524  1.0000
  H   H1447     1.0  0.08850  0.90830  0.27595  1.0000
  H   H1448     1.0  0.11888  0.92344  0.27069  1.0000
  H   H1449     1.0  0.09793  0.93152  0.28074  1.0000
  H   H1450     1.0  0.10912  0.94457  0.26339  1.0000
  N   N92       1.0  0.19862  0.93736  0.08490  1.0000
  C   C908      1.0  0.18309  0.93532  0.08197  1.0000
  C   C909      1.0  0.19462  0.95014  0.09489  1.0000
  C   C910      1.0  0.20984  0.94256  0.06877  1.0000
  C   C911      1.0  0.20702  0.92134  0.09401  1.0000
  H   H1451     1.0  0.18574  0.92578  0.07443  1.0000
  H   H1452     1.0  0.17637  0.94720  0.07517  1.0000
  H   H1453     1.0  0.17446  0.93123  0.09393  1.0000
  H   H1454     1.0  0.20606  0.95186  0.09747  1.0000
  H   H1455     1.0  0.18832  0.96246  0.08842  1.0000
  H   H1456     1.0  0.18634  0.94651  0.10725  1.0000
  H   H1457     1.0  0.20390  0.95449  0.06135  1.0000
  H   H1458     1.0  0.21354  0.93293  0.06115  1.0000
  H   H1459     1.0  0.22164  0.94435  0.07055  1.0000
  H   H1460     1.0  0.21912  0.92237  0.09565  1.0000
  H   H1461     1.0  0.20979  0.91124  0.08712  1.0000
  H   H1462     1.0  0.19939  0.91735  0.10664  1.0000
  S   S377      1.0  0.08545  0.74752  0.03814  1.0000
  S   S378      1.0  0.01756  0.74697  0.16047  1.0000
  C   C912      1.0  0.22235  0.86745  0.24800  1.0000
  H   H1463     1.0  0.21802  0.83644  0.25199  1.0000
  H   H1464     1.0  0.18822  0.81226  0.26551  1.0000
  H   H1465     1.0  0.20576  0.73461  0.21123  1.0000
  H   H1466     1.0  0.21383  0.87404  0.23932  1.0000
  H   H1467     1.0  0.31141  0.95411  0.11192  1.0000
  C   C913      1.0  0.29712  0.82260  0.30303  1.0000
  C   C914      1.0  0.22485  0.82939  0.98083  1.0000
  H   H1468     1.0  0.02835  0.77111  0.21922  1.0000
  C   C915      1.0  0.02334  0.81105  0.21510  1.0000
  N   N93       1.0  0.22468  0.74975  0.07158  1.0000
  C   C916      1.0  0.30194  0.87767  0.17567  1.0000
  H   H1469     1.0  0.17248  0.74225  0.28471  1.0000
  Fe  Fe196     1.0  0.06357  0.80577  0.21917  1.0000
  S   S379      1.0  0.22887  0.80183  0.02705  1.0000
  H   H1470     1.0  0.14760  0.77412  0.29160  1.0000
  S   S380      1.0  0.20688  0.83599  0.04027  1.0000
  S   S381      1.0  0.14557  0.94116  0.24833  1.0000
  H   H1471     1.0  0.16245  0.98277  0.28732  1.0000
  H   H1472     1.0  0.22854  0.87673  0.24938  1.0000
  C   C917      1.0  0.15726  0.95688  0.24230  1.0000
  S   S382      1.0  0.28233  0.96159  0.09705  1.0000
  H   H1473     1.0  0.17977  0.96384  0.30671  1.0000
  H   H1474     1.0  0.11613  0.76824  0.09151  1.0000
  H   H1475     1.0  0.04893  0.77159  0.20653  1.0000
  H   H1476     1.0  0.23716  0.76078  0.20125  1.0000
  C   C918      1.0  0.03009  0.80479  0.20063  1.0000
  Fe  Fe197     1.0  0.22818  0.82923  0.01914  1.0000
  C   C919      1.0  0.08386  0.76713  0.10497  1.0000
  H   H1477     1.0  0.30263  0.78696  0.27702  1.0000
  H   H1478     1.0  0.00386  0.79301  0.11889  1.0000
  C   C920      1.0  0.22816  0.73632  0.22698  1.0000
  C   C921      1.0  0.22576  0.84163  0.23990  1.0000
  H   H1479     1.0  0.25545  0.79543  0.21218  1.0000
  S   S383      1.0  0.23105  0.84069  0.99157  1.0000
  C   C922      1.0  0.29621  0.76770  0.08338  1.0000
  H   H1480     1.0  0.31740  0.95359  0.13063  1.0000
  Fe  Fe198     1.0  0.00923  0.73837  0.14222  1.0000
  H   H1481     1.0  0.25430  0.84949  0.22048  1.0000
  H   H1482     1.0  0.22697  0.74761  0.04656  1.0000
  H   H1483     1.0  0.21530  0.74295  0.23186  1.0000
  H   H1484     1.0  0.03303  0.74616  0.18816  1.0000
  H   H1485     1.0  0.25230  0.85307  0.25578  1.0000
  H   H1486     1.0  0.28184  0.83415  0.16366  1.0000
  C   C923      1.0  0.27603  0.82572  0.17422  1.0000
  H   H1487     1.0  0.04317  0.80403  0.19487  1.0000
  C   C924      1.0  0.19259  0.81823  0.27261  1.0000
  C   C925      1.0  0.29668  0.76809  0.05481  1.0000
  S   S384      1.0  0.26994  0.78060  0.04029  1.0000
  H   H1488     1.0  0.24286  0.76513  0.06300  1.0000
  H   H1489     1.0  0.31820  0.75898  0.06584  1.0000
  C   C926      1.0  0.03355  0.75629  0.19370  1.0000
  C   C927      1.0  0.20365  0.83381  0.29102  1.0000
  S   S385      1.0  0.30727  0.76336  0.09914  1.0000
  C   C928      1.0  0.30999  0.94820  0.12543  1.0000
  C   C929      1.0  0.99573  0.78648  0.12984  1.0000
  C   C930      1.0  0.30549  0.86400  0.16838  1.0000
  H   H1490     1.0  0.32408  0.75344  0.20335  1.0000
  C   C931      1.0  0.18853  0.76751  0.27208  1.0000
  S   S386      1.0  0.27039  0.76412  0.17116  1.0000
  C   C932      1.0  0.29853  0.86513  0.15499  1.0000
  H   H1491     1.0  0.09087  0.73678  0.09839  1.0000
  H   H1492     1.0  0.22040  0.81016  0.29715  1.0000
  H   H1493     1.0  0.23465  0.83089  0.23515  1.0000
  C   C933      1.0  0.27086  0.77879  0.07270  1.0000
  C   C934      1.0  0.27609  0.82634  0.19040  1.0000
  H   H1494     1.0  0.25515  0.79450  0.18357  1.0000
  H   H1495     1.0  0.07678  0.73928  0.00892  1.0000
  C   C935      1.0  0.07944  0.73582  0.05830  1.0000
  H   H1496     1.0  0.26520  0.80457  0.29249  1.0000
  H   H1497     1.0  0.18570  0.74164  0.29811  1.0000
  C   C936      1.0  0.14836  0.73818  0.25835  1.0000
  S   S387      1.0  0.04549  0.77791  0.13611  1.0000
  C   C937      1.0  0.05987  0.77536  0.14834  1.0000
  H   H1498     1.0  0.12713  0.78152  0.23578  1.0000
  H   H1499     1.0  0.27299  0.83963  0.11098  1.0000
  C   C938      1.0  0.08379  0.75867  0.15970  1.0000
  H   H1500     1.0  0.15795  0.77314  0.23071  1.0000
  N   N94       1.0  0.09406  0.76207  0.08944  1.0000
  H   H1501     1.0  0.23783  0.83971  0.26639  1.0000
  C   C939      1.0  0.27907  0.77464  0.08591  1.0000
  C   C940      1.0  0.26886  0.81526  0.20408  1.0000
  S   S388      1.0  0.31470  0.73849  0.17749  1.0000
  S   S389      1.0  0.15432  0.78152  0.00837  1.0000
  H   H1502     1.0  0.00975  0.78706  0.15462  1.0000
  S   S390      1.0  0.99106  0.79171  0.19286  1.0000
  C   C941      1.0  0.08349  0.76616  0.07717  1.0000
  C   C942      1.0  0.26119  0.80389  0.20159  1.0000
  C   C943      1.0  0.02955  0.73898  0.22141  1.0000
  H   H1503     1.0  0.04537  0.73332  0.09026  1.0000
  C   C944      1.0  0.31033  0.78420  0.20897  1.0000
  Fe  Fe199     1.0  0.31171  0.85145  0.20955  1.0000
  C   C945      1.0  0.26120  0.80322  0.18542  1.0000
  H   H1504     1.0  0.29919  0.81339  0.09401  1.0000
  H   H1505     1.0  0.28608  0.80949  0.11446  1.0000
  Fe  Fe200     1.0  0.27516  0.78609  0.15024  1.0000
  H   H1506     1.0  0.14631  0.74061  0.20447  1.0000
  H   H1507     1.0  0.25549  0.80795  0.10294  1.0000
  C   C946      1.0  0.21359  0.75988  0.08344  1.0000
  C   C947      1.0  0.27724  0.97752  0.10838  1.0000
  C   C948      1.0  0.17178  0.77650  0.04951  1.0000
  H   H1508     1.0  0.29146  0.92678  0.12746  1.0000
  H   H1509     1.0  0.18817  0.76783  0.30341  1.0000
  H   H1510     1.0  0.24127  0.78924  0.99182  1.0000
  S   S391      1.0  0.26993  0.81491  0.22429  1.0000
  H   H1511     1.0  0.07371  0.75165  0.14293  1.0000
  H   H1512     1.0  0.16748  0.96735  0.27495  1.0000
  C   C949      1.0  0.15044  0.76465  0.23920  1.0000
  H   H1513     1.0  0.29762  0.79087  0.18175  1.0000
  H   H1514     1.0  0.32124  0.92714  0.15178  1.0000
  C   C950      1.0  0.14931  0.97281  0.24533  1.0000
  S   S392      1.0  0.12603  0.75442  0.00375  1.0000
  H   H1515     1.0  0.25547  0.81867  0.11833  1.0000
  S   S393      1.0  0.25801  0.77475  0.29147  1.0000
  H   H1516     1.0  0.21330  0.96080  0.26872  1.0000
  N   N95       1.0  0.31896  0.77974  0.19278  1.0000
  H   H1517     1.0  0.27215  0.77693  0.09793  1.0000
  H   H1518     1.0  0.13213  0.74915  0.22127  1.0000
  H   H1519     1.0  0.31405  0.85274  0.17267  1.0000
  H   H1520     1.0  0.23705  0.74234  0.22936  1.0000
  C   C951      1.0  0.16416  0.77371  0.03820  1.0000
  S   S394      1.0  0.26597  0.77836  0.13208  1.0000
  C   C952      1.0  0.21042  0.80845  0.98118  1.0000
  H   H1521     1.0  0.26707  0.74205  0.09791  1.0000
  C   C953      1.0  0.31348  0.92256  0.14619  1.0000
  H   H1522     1.0  0.30579  0.92866  0.10777  1.0000
  H   H1523     1.0  0.21544  0.76113  0.20376  1.0000
  H   H1524     1.0  0.23716  0.86657  0.21631  1.0000
  H   H1525     1.0  0.25197  0.86855  0.22667  1.0000
  C   C954      1.0  0.18558  0.83501  0.27316  1.0000
  H   H1526     1.0  0.02522  0.79458  0.18247  1.0000
  Fe  Fe201     1.0  0.29157  0.82488  0.22450  1.0000
  C   C955      1.0  0.07243  0.76092  0.14979  1.0000
  C   C956      1.0  0.99608  0.80683  0.21531  1.0000
  H   H1527     1.0  0.25550  0.74149  0.27346  1.0000
  H   H1528     1.0  0.20591  0.75423  0.05751  1.0000
  C   C957      1.0  0.24498  0.85977  0.22560  1.0000
  H   H1529     1.0  0.28988  0.77104  0.30408  1.0000
  H   H1530     1.0  0.29915  0.76923  0.19176  1.0000
  H   H1531     1.0  0.30825  0.90952  0.12332  1.0000
  Fe  Fe202     1.0  0.03851  0.75351  0.13951  1.0000
  H   H1532     1.0  0.07287  0.75968  0.08202  1.0000
  H   H1533     1.0  0.09070  0.76233  0.06533  1.0000
  H   H1534     1.0  0.25499  0.80806  0.99812  1.0000
  H   H1535     1.0  0.00343  0.77421  0.13462  1.0000
  N   N96       1.0  0.31527  0.76444  0.29110  1.0000
  H   H1536     1.0  0.30153  0.85459  0.14922  1.0000
  N   N97       1.0  0.26772  0.78788  0.98574  1.0000
  Fe  Fe203     1.0  0.30802  0.83541  0.24596  1.0000
  Fe  Fe204     1.0  0.26369  0.75516  0.15202  1.0000
  H   H1537     1.0  0.12196  0.73831  0.19530  1.0000
  C   C958      1.0  0.26018  0.73553  0.10931  1.0000
  C   C959      1.0  0.13090  0.74291  0.26113  1.0000
  S   S395      1.0  0.02916  0.74707  0.12059  1.0000
  H   H1538     1.0  0.18748  0.76178  0.26233  1.0000
  C   C960      1.0  0.25619  0.74162  0.12376  1.0000
  C   C961      1.0  0.22836  0.75413  0.19964  1.0000
  H   H1539     1.0  0.31795  0.78984  0.28610  1.0000
  C   C962      1.0  0.24193  0.75193  0.06860  1.0000
  C   C963      1.0  0.17520  0.98253  0.23330  1.0000
  H   H1540     1.0  0.30595  0.82775  0.30598  1.0000
  C   C964      1.0  0.06289  0.73936  0.06711  1.0000
  H   H1541     1.0  0.10851  0.73960  0.08149  1.0000
  H   H1542     1.0  0.23035  0.75483  0.18607  1.0000
  C   C965      1.0  0.30653  0.77872  0.18422  1.0000
  S   S396      1.0  0.31267  0.82778  0.20238  1.0000
  C   C966      1.0  0.15816  0.74900  0.24728  1.0000
  N   N98       1.0  0.18867  0.97219  0.28044  1.0000
  C   C967      1.0  0.27431  0.80929  0.29540  1.0000
  H   H1543     1.0  0.30305  0.77484  0.21713  1.0000
  H   H1544     1.0  0.15681  0.76933  0.27146  1.0000
  C   C968      1.0  0.04102  0.76331  0.21575  1.0000
  S   S397      1.0  0.18003  0.74320  0.24310  1.0000
  N   N99       1.0  0.31532  0.92984  0.12815  1.0000
  C   C969      1.0  0.00244  0.79903  0.14856  1.0000
  C   C970      1.0  0.10098  0.74391  0.09301  1.0000
  H   H1545     1.0  0.27694  0.80664  0.99086  1.0000
  H   H1546     1.0  0.09144  0.76441  0.11449  1.0000
  H   H1547     1.0  0.31266  0.77518  0.17206  1.0000
  H   H1548     1.0  0.31932  0.78511  0.21578  1.0000
  H   H1549     1.0  0.09357  0.74752  0.16065  1.0000
  C   C971      1.0  0.25245  0.78631  0.98186  1.0000
  C   C972      1.0  0.15860  0.77490  0.28103  1.0000
  H   H1550     1.0  0.18459  0.94813  0.29480  1.0000
  H   H1551     1.0  0.19655  0.95498  0.26414  1.0000
  H   H1552     1.0  0.07814  0.77976  0.07403  1.0000
  H   H1553     1.0  0.21959  0.76850  0.04992  1.0000
  H   H1554     1.0  0.09011  0.73593  0.98929  1.0000
  Fe  Fe205     1.0  0.26116  0.74735  0.30201  1.0000
  H   H1555     1.0  0.00092  0.81731  0.23334  1.0000
  H   H1556     1.0  0.05378  0.74911  0.06136  1.0000
  H   H1557     1.0  0.15569  0.76761  0.98093  1.0000
  H   H1558     1.0  0.20062  0.76114  0.27581  1.0000
  C   C973      1.0  0.11577  0.73480  0.20865  1.0000
  H   H1559     1.0  0.04627  0.75865  0.22714  1.0000
  H   H1560     1.0  0.16334  0.74618  0.97929  1.0000
  S   S398      1.0  0.23410  0.74710  0.30638  1.0000
  H   H1561     1.0  0.10925  0.74039  0.10201  1.0000
  H   H1562     1.0  0.31160  0.74072  0.29044  1.0000
  H   H1563     1.0  0.30142  0.79642  0.20730  1.0000
  C   C974      1.0  0.26316  0.97894  0.12136  1.0000
  C   C975      1.0  0.31145  0.75352  0.28257  1.0000
  C   C976      1.0  0.05742  0.73937  0.20468  1.0000
  C   C977      1.0  0.31507  0.78119  0.28014  1.0000
  C   C978      1.0  0.17175  0.97770  0.27698  1.0000
  Fe  Fe206     1.0  0.23062  0.77489  0.29817  1.0000
  C   C979      1.0  0.17397  0.74850  0.29387  1.0000
  H   H1564     1.0  0.15846  0.78834  0.27543  1.0000
  H   H1565     1.0  0.18337  0.76823  0.98465  1.0000
  H   H1566     1.0  0.12336  0.73438  0.26948  1.0000
  C   C980      1.0  0.20045  0.96544  0.26641  1.0000
  H   H1567     1.0  0.24642  0.74829  0.08037  1.0000
  H   H1568     1.0  0.29884  0.75841  0.27960  1.0000
  H   H1569     1.0  0.31974  0.80497  0.17958  1.0000
  S   S399      1.0  0.24399  0.74059  0.15689  1.0000
  C   C981      1.0  0.13930  0.73728  0.21752  1.0000
  C   C982      1.0  0.30259  0.76575  0.30666  1.0000
  C   C983      1.0  0.17631  0.77403  0.29912  1.0000
  H   H1570     1.0  0.06289  0.73381  0.21588  1.0000
  H   H1571     1.0  0.03428  0.73368  0.23307  1.0000
  S   S400      1.0  0.16140  0.73368  0.01529  1.0000
  H   H1572     1.0  0.20655  0.98296  0.28519  1.0000
  H   H1573     1.0  0.11144  0.73329  0.24115  1.0000
  C   C984      1.0  0.24745  0.73334  0.13865  1.0000
  H   H1574     1.0  0.25748  0.73382  0.20458  1.0000
  C   C985      1.0  0.16404  0.84393  0.63020  1.0000
  N   N100      1.0  0.14525  0.77782  0.61852  1.0000
  Fe  Fe207     1.0  0.25399  0.77664  0.31798  1.0000
  Fe  Fe208     1.0  0.21353  0.80435  0.60305  1.0000
  S   S401      1.0  0.23237  0.78756  0.61745  1.0000
  S   S402      1.0  0.21879  0.81697  0.57620  1.0000
  C   C986      1.0  0.25597  0.76924  0.37286  1.0000
  C   C987      1.0  0.26994  0.82894  0.64100  1.0000
  H   H1575     1.0  0.28882  0.78953  0.59220  1.0000
  H   H1576     1.0  0.28651  0.81822  0.55117  1.0000
  C   C988      1.0  0.28174  0.77829  0.36780  1.0000
  C   C989      1.0  0.27673  0.80523  0.31168  1.0000
  H   H1577     1.0  0.23931  0.85675  0.64084  1.0000
  C   C990      1.0  0.29314  0.82083  0.58771  1.0000
  S   S403      1.0  0.19483  0.78808  0.61240  1.0000
  H   H1578     1.0  0.12553  0.78283  0.60552  1.0000
  H   H1579     1.0  0.21406  0.73773  0.41230  1.0000
  H   H1580     1.0  0.29543  0.77448  0.36709  1.0000
  H   H1581     1.0  0.28050  0.76040  0.34716  1.0000
  C   C991      1.0  0.21557  0.73691  0.38699  1.0000
  H   H1582     1.0  0.08442  0.86179  0.64264  1.0000
  H   H1583     1.0  0.13195  0.76138  0.61512  1.0000
  S   S404      1.0  0.25972  0.74908  0.32794  1.0000
  C   C992      1.0  0.28192  0.75321  0.35985  1.0000
  H   H1584     1.0  0.28986  0.80898  0.32810  1.0000
  C   C993      1.0  0.24544  0.82728  0.62593  1.0000
  H   H1585     1.0  0.16866  0.76183  0.61012  1.0000
  H   H1586     1.0  0.09383  0.84132  0.62391  1.0000
  Fe  Fe209     1.0  0.18448  0.80258  0.63253  1.0000
  S   S405      1.0  0.21767  0.73720  0.35455  1.0000
  Fe  Fe210     1.0  0.21844  0.80160  0.63745  1.0000
  H   H1587     1.0  0.23584  0.82680  0.62015  1.0000
  Fe  Fe211     1.0  0.21270  0.77246  0.62847  1.0000
  H   H1588     1.0  0.22877  0.87681  0.63121  1.0000
  C   C994      1.0  0.15071  0.79348  0.60931  1.0000
  Fe  Fe212     1.0  0.23236  0.75113  0.33159  1.0000
  H   H1589     1.0  0.28812  0.79115  0.57105  1.0000
  S   S406      1.0  0.22629  0.77901  0.32395  1.0000
  C   C995      1.0  0.26194  0.78576  0.56000  1.0000
  C   C996      1.0  0.10409  0.74504  0.61301  1.0000
  C   C997      1.0  0.27678  0.75374  0.38884  1.0000
  H   H1590     1.0  0.20331  0.86645  0.63498  1.0000
  H   H1591     1.0  0.15967  0.79191  0.59736  1.0000
  H   H1592     1.0  0.30532  0.82015  0.55519  1.0000
  S   S407      1.0  0.29967  0.74416  0.56128  1.0000
  N   N101      1.0  0.23442  0.73572  0.58435  1.0000
  H   H1593     1.0  0.27156  0.74237  0.39243  1.0000
  H   H1594     1.0  0.24110  0.78427  0.58114  1.0000
  H   H1595     1.0  0.16920  0.84004  0.61850  1.0000
  H   H1596     1.0  0.21191  0.73570  0.60335  1.0000
  C   C998      1.0  0.09396  0.77510  0.62401  1.0000
  H   H1597     1.0  0.23725  0.83039  0.54470  1.0000
  C   C999      1.0  0.29150  0.82272  0.55948  1.0000
  N   N102      1.0  0.27408  0.76363  0.37232  1.0000
  H   H1598     1.0  0.25884  0.73748  0.48235  1.0000
  H   H1599     1.0  0.28685  0.83648  0.55744  1.0000
  S   S408      1.0  0.22017  0.74483  0.63184  1.0000
  H   H1600     1.0  0.30665  0.79304  0.57561  1.0000
  S   S409      1.0  0.28956  0.79035  0.53472  1.0000
  H   H1601     1.0  0.15616  0.75266  0.62924  1.0000
  C   C1000     1.0  0.24623  0.79187  0.56948  1.0000
  C   C1001     1.0  0.24102  0.74686  0.56875  1.0000
  H   H1602     1.0  0.24557  0.74400  0.59946  1.0000
  H   H1603     1.0  0.30233  0.75335  0.31524  1.0000
  S   S410      1.0  0.28263  0.85190  0.61498  1.0000
  H   H1604     1.0  0.13993  0.80370  0.60637  1.0000
  C   C1002     1.0  0.13656  0.77296  0.60844  1.0000
  Fe  Fe213     1.0  0.30101  0.76310  0.53725  1.0000
  C   C1003     1.0  0.28802  0.81200  0.31551  1.0000
  H   H1605     1.0  0.20881  0.74638  0.58292  1.0000
  H   H1606     1.0  0.31801  0.81906  0.61702  1.0000
  H   H1607     1.0  0.27621  0.78634  0.37703  1.0000
  H   H1608     1.0  0.12923  0.76883  0.64166  1.0000
  C   C1004     1.0  0.09414  0.77508  0.60763  1.0000
  H   H1609     1.0  0.26248  0.81348  0.57435  1.0000
  H   H1610     1.0  0.10976  0.82300  0.62831  1.0000
  H   H1611     1.0  0.25344  0.77667  0.36058  1.0000
  C   C1005     1.0  0.26796  0.81805  0.58211  1.0000
  H   H1612     1.0  0.26516  0.81996  0.52845  1.0000
  H   H1613     1.0  0.23327  0.74951  0.55940  1.0000
  H   H1614     1.0  0.27980  0.78616  0.35546  1.0000
  N   N103      1.0  0.28636  0.81446  0.57712  1.0000
  H   H1615     1.0  0.29031  0.74961  0.38895  1.0000
  H   H1616     1.0  0.26262  0.83166  0.58060  1.0000
  C   C1006     1.0  0.24405  0.81790  0.54896  1.0000
  C   C1007     1.0  0.26888  0.79603  0.54532  1.0000
  C   C1008     1.0  0.25983  0.81200  0.53978  1.0000
  H   H1617     1.0  0.09884  0.76011  0.58960  1.0000
  H   H1618     1.0  0.25658  0.84428  0.60472  1.0000
  S   S411      1.0  0.26646  0.79107  0.32729  1.0000
  C   C1009     1.0  0.26934  0.83805  0.62481  1.0000
  C   C1010     1.0  0.29278  0.79626  0.57914  1.0000
  H   H1619     1.0  0.30699  0.81839  0.58429  1.0000
  H   H1620     1.0  0.09045  0.78668  0.59911  1.0000
  C   C1011     1.0  0.23739  0.80804  0.56399  1.0000
  H   H1621     1.0  0.24975  0.75854  0.37628  1.0000
  H   H1622     1.0  0.26898  0.77345  0.56438  1.0000
  C   C1012     1.0  0.25726  0.83700  0.61713  1.0000
  C   C1013     1.0  0.09890  0.76006  0.60224  1.0000
  H   H1623     1.0  0.25399  0.74122  0.56302  1.0000
  H   H1624     1.0  0.26352  0.81196  0.59532  1.0000
  C   C1014     1.0  0.13379  0.78035  0.63450  1.0000
  H   H1625     1.0  0.28935  0.81495  0.60111  1.0000
  H   H1626     1.0  0.17135  0.86763  0.62074  1.0000
  H   H1627     1.0  0.20231  0.74157  0.38770  1.0000
  C   C1015     1.0  0.10414  0.74503  0.62938  1.0000
  S   S412      1.0  0.20180  0.82020  0.62191  1.0000
  H   H1628     1.0  0.28848  0.83455  0.58649  1.0000
  H   H1629     1.0  0.14490  0.77058  0.59643  1.0000
  H   H1630     1.0  0.27062  0.76095  0.39873  1.0000
  C   C1016     1.0  0.16513  0.85963  0.63141  1.0000
  C   C1017     1.0  0.15992  0.76451  0.62185  1.0000
  H   H1631     1.0  0.29551  0.74837  0.35951  1.0000
  H   H1632     1.0  0.16698  0.76802  0.62904  1.0000
  S   S413      1.0  0.08909  0.79422  0.63005  1.0000
  H   H1633     1.0  0.27613  0.74228  0.36265  1.0000
  C   C1018     1.0  0.21729  0.74381  0.59159  1.0000
  Fe  Fe214     1.0  0.29033  0.85710  0.63580  1.0000
  H   H1634     1.0  0.21704  0.75578  0.59456  1.0000
  C   C1019     1.0  0.22608  0.73365  0.37202  1.0000
  S   S414      1.0  0.29998  0.87901  0.63587  1.0000
  C   C1020     1.0  0.22222  0.73473  0.40089  1.0000
  H   H1635     1.0  0.15698  0.79773  0.61670  1.0000
  H   H1636     1.0  0.24966  0.77714  0.38213  1.0000
  H   H1637     1.0  0.12261  0.79036  0.63248  1.0000
  S   S415      1.0  0.29621  0.74710  0.52302  1.0000
  H   H1638     1.0  0.24127  0.75899  0.57097  1.0000
  H   H1639     1.0  0.12830  0.84046  0.62953  1.0000
  C   C1021     1.0  0.09876  0.76004  0.63499  1.0000
  H   H1640     1.0  0.08922  0.82460  0.64123  1.0000
  C   C1022     1.0  0.20281  0.73600  0.64147  1.0000
  H   H1641     1.0  0.30496  0.77408  0.31333  1.0000
  C   C1023     1.0  0.09898  0.83182  0.63409  1.0000
  H   H1642     1.0  0.11257  0.85885  0.62481  1.0000
  Fe  Fe215     1.0  0.32398  0.73843  0.51690  1.0000
  C   C1024     1.0  0.11695  0.84888  0.63512  1.0000
  H   H1643     1.0  0.10810  0.73342  0.63774  1.0000
  H   H1644     1.0  0.14000  0.78393  0.64246  1.0000
  C   C1025     1.0  0.24552  0.81901  0.64251  1.0000
  C   C1026     1.0  0.23077  0.86858  0.64339  1.0000
  S   S416      1.0  0.15761  0.81269  0.64316  1.0000
  H   H1645     1.0  0.12083  0.85493  0.64302  1.0000
  H   H1646     1.0  0.16590  0.77324  0.31028  1.0000
  S   S417      1.0  0.05142  0.79123  0.70195  1.0000
  H   H1647     1.0  0.16208  0.94879  0.78717  1.0000
  C   C1027     1.0  0.28433  0.84966  0.71881  1.0000
  Fe  Fe216     1.0  0.25854  0.90911  0.75838  1.0000
  S   S418      1.0  0.24190  0.89106  0.76541  1.0000
  S   S419      1.0  0.28202  0.90263  0.73962  1.0000
  Fe  Fe217     1.0  0.23604  0.93043  0.78242  1.0000
  S   S420      1.0  0.21782  0.91336  0.79176  1.0000
  S   S421      1.0  0.22652  0.95415  0.79231  1.0000
  Fe  Fe218     1.0  0.24037  0.89233  0.79156  1.0000
  S   S422      1.0  0.24580  0.86645  0.80759  1.0000
  Fe  Fe219     1.0  0.22114  0.91361  0.76482  1.0000
  S   S423      1.0  0.19849  0.91852  0.75416  1.0000
  S   S424      1.0  0.25845  0.90923  0.78462  1.0000
  S   S425      1.0  0.23793  0.93181  0.75538  1.0000
  Fe  Fe220     1.0  0.21130  0.82222  0.89385  1.0000
  S   S426      1.0  0.23377  0.81053  0.90520  1.0000
  S   S427      1.0  0.20552  0.84948  0.88192  1.0000
  Fe  Fe221     1.0  0.19694  0.79104  0.90593  1.0000
  S   S428      1.0  0.21824  0.77682  0.91797  1.0000
  S   S429      1.0  0.17514  0.77875  0.91196  1.0000
  Fe  Fe222     1.0  0.21560  0.79965  0.92722  1.0000
  S   S430      1.0  0.21309  0.79536  0.95486  1.0000
  Fe  Fe223     1.0  0.23430  0.78882  0.89490  1.0000
  S   S431      1.0  0.25719  0.77158  0.88425  1.0000
  S   S432      1.0  0.19305  0.81315  0.91681  1.0000
  S   S433      1.0  0.21315  0.80129  0.88178  1.0000
  Fe  Fe224     1.0  0.06933  0.80740  0.68627  1.0000
  S   S434      1.0  0.08881  0.78635  0.67706  1.0000
  S   S435      1.0  0.07322  0.82968  0.69303  1.0000
  Fe  Fe225     1.0  0.04058  0.79667  0.67943  1.0000
  S   S436      1.0  0.05772  0.77483  0.66953  1.0000
  Fe  Fe226     1.0  0.06990  0.77064  0.69093  1.0000
  S   S437      1.0  0.07691  0.74387  0.70440  1.0000
  C   C1028     1.0  0.30207  0.80962  0.70263  1.0000
  H   H1648     1.0  0.18806  0.94314  0.67710  1.0000
  S   S438      1.0  0.05701  0.81452  0.66453  1.0000
  Fe  Fe227     1.0  0.14069  0.89792  0.70625  1.0000
  S   S439      1.0  0.15086  0.87422  0.72327  1.0000
  H   H1649     1.0  0.02718  0.74629  0.69639  1.0000
  S   S440      1.0  0.16862  0.85977  0.69002  1.0000
  Fe  Fe228     1.0  0.14370  0.86105  0.70760  1.0000
  S   S441      1.0  0.13638  0.83597  0.71470  1.0000
  Fe  Fe229     1.0  0.17448  0.87523  0.70383  1.0000
  S   S442      1.0  0.20013  0.87093  0.70845  1.0000
  H   H1650     1.0  0.10069  0.81943  0.66624  1.0000
  S   S443      1.0  0.16481  0.89930  0.68754  1.0000
  S   S444      1.0  0.01228  0.80374  0.68445  1.0000
  H   H1651     1.0  0.17617  0.87519  0.92529  1.0000
  C   C1029     1.0  0.18700  0.75163  0.95165  1.0000
  H   H1652     1.0  0.14410  0.93461  0.68428  1.0000
  H   H1653     1.0  0.12135  0.81742  0.65336  1.0000
  C   C1030     1.0  0.28758  0.84709  0.80487  1.0000
  H   H1654     1.0  0.20150  0.89054  0.64678  1.0000
  H   H1655     1.0  0.28307  0.75670  0.86033  1.0000
  H   H1656     1.0  0.11920  0.74068  0.97620  1.0000
  H   H1657     1.0  0.10478  0.96220  0.73273  1.0000
  H   H1658     1.0  0.25879  0.87339  0.72986  1.0000
  C   C1031     1.0  0.06666  0.74043  0.72543  1.0000
  H   H1659     1.0  0.09204  0.85645  0.66149  1.0000
  H   H1660     1.0  0.02861  0.75374  0.83841  1.0000
  C   C1032     1.0  0.08912  0.85121  0.65231  1.0000
  N   N104      1.0  0.17884  0.76280  0.96338  1.0000
  Fe  Fe230     1.0  0.28940  0.77045  0.77827  1.0000
  H   H1661     1.0  0.02715  0.76826  0.72819  1.0000
  H   H1662     1.0  0.14341  0.83054  0.66977  1.0000
  H   H1663     1.0  0.10187  0.74426  0.95577  1.0000
  H   H1664     1.0  0.18044  0.93652  0.70820  1.0000
  H   H1665     1.0  0.10878  0.86060  0.70282  1.0000
  C   C1033     1.0  0.09125  0.83094  0.69856  1.0000
  C   C1034     1.0  0.09343  0.84671  0.69830  1.0000
  C   C1035     1.0  0.10745  0.84840  0.70275  1.0000
  C   C1036     1.0  0.11928  0.83427  0.70784  1.0000
  C   C1037     1.0  0.11723  0.81847  0.70793  1.0000
  C   C1038     1.0  0.10333  0.81680  0.70314  1.0000
  H   H1666     1.0  0.08410  0.85770  0.69485  1.0000
  C   C1039     1.0  0.28313  0.86279  0.77770  1.0000
  H   H1667     1.0  0.12627  0.80747  0.71195  1.0000
  H   H1668     1.0  0.10173  0.80458  0.70342  1.0000
  C   C1040     1.0  0.17453  0.76712  0.89822  1.0000
  H   H1669     1.0  0.06294  0.75970  0.81793  1.0000
  C   C1041     1.0  0.17879  0.76324  0.87019  1.0000
  C   C1042     1.0  0.18170  0.77111  0.88124  1.0000
  H   H1670     1.0  0.18380  0.76679  0.85697  1.0000
  H   H1671     1.0  0.18887  0.78074  0.87654  1.0000
  C   C1043     1.0  0.03009  0.76004  0.82499  1.0000
  C   C1044     1.0  0.23107  0.83074  0.96364  1.0000
  C   C1045     1.0  0.22695  0.82092  0.95521  1.0000
  C   C1046     1.0  0.21681  0.80955  0.96410  1.0000
  C   C1047     1.0  0.30912  0.79326  0.72865  1.0000
  H   H1672     1.0  0.16245  0.74568  0.66228  1.0000
  C   C1048     1.0  0.99704  0.78071  0.65722  1.0000
  H   H1673     1.0  0.23216  0.82158  0.94207  1.0000
  H   H1674     1.0  0.19536  0.93604  0.71965  1.0000
  C   C1049     1.0  0.26372  0.97921  0.78257  1.0000
  H   H1675     1.0  0.21382  0.84595  0.64391  1.0000
  H   H1676     1.0  0.04524  0.76191  0.75558  1.0000
  H   H1677     1.0  0.25838  0.80596  0.86777  1.0000
  C   C1050     1.0  0.19899  0.90458  0.74219  1.0000
  C   C1051     1.0  0.21382  0.89367  0.73676  1.0000
  C   C1052     1.0  0.21407  0.88325  0.72652  1.0000
  C   C1053     1.0  0.19954  0.88366  0.72169  1.0000
  C   C1054     1.0  0.18476  0.89469  0.72699  1.0000
  C   C1055     1.0  0.18449  0.90510  0.73722  1.0000
  H   H1678     1.0  0.22517  0.89360  0.74004  1.0000
  H   H1679     1.0  0.22556  0.87517  0.72201  1.0000
  H   H1680     1.0  0.17350  0.89531  0.72317  1.0000
  H   H1681     1.0  0.17301  0.91363  0.74124  1.0000
  C   C1056     1.0  0.27754  0.90212  0.72095  1.0000
  C   C1057     1.0  0.26109  0.90680  0.71878  1.0000
  C   C1058     1.0  0.25760  0.90573  0.70405  1.0000
  C   C1059     1.0  0.27051  0.89992  0.69149  1.0000
  C   C1060     1.0  0.28696  0.89544  0.69358  1.0000
  C   C1061     1.0  0.29047  0.89655  0.70828  1.0000
  H   H1682     1.0  0.25104  0.91114  0.72848  1.0000
  H   H1683     1.0  0.21556  0.95884  0.69333  1.0000
  H   H1684     1.0  0.30322  0.89309  0.70983  1.0000
  C   C1062     1.0  0.23448  0.86219  0.82823  1.0000
  C   C1063     1.0  0.23816  0.84608  0.83799  1.0000
  C   C1064     1.0  0.22929  0.84211  0.85447  1.0000
  C   C1065     1.0  0.21672  0.85429  0.86128  1.0000
  C   C1066     1.0  0.21311  0.87045  0.85157  1.0000
  C   C1067     1.0  0.22195  0.87440  0.83503  1.0000
  H   H1685     1.0  0.24799  0.83670  0.83285  1.0000
  H   H1686     1.0  0.23229  0.82969  0.86195  1.0000
  H   H1687     1.0  0.20340  0.87990  0.85681  1.0000
  H   H1688     1.0  0.21908  0.88686  0.82756  1.0000
  H   H1689     1.0  0.13434  0.94242  0.73379  1.0000
  H   H1690     1.0  0.31819  0.85375  0.79282  1.0000
  C   C1068     1.0  0.21911  0.94521  0.69377  1.0000
  H   H1691     1.0  0.24002  0.77451  0.83701  1.0000
  H   H1692     1.0  0.05881  0.74108  0.83281  1.0000
  H   H1693     1.0  0.02950  0.73773  0.73263  1.0000
  H   H1694     1.0  0.01790  0.76203  0.82156  1.0000
  H   H1695     1.0  0.26201  0.95487  0.78103  1.0000
  H   H1696     1.0  0.19481  0.96127  0.67699  1.0000
  N   N105      1.0  0.21487  0.86551  0.65474  1.0000
  H   H1697     1.0  0.12832  0.80331  0.90166  1.0000
  H   H1698     1.0  0.19965  0.75377  0.94496  1.0000
  C   C1069     1.0  0.06022  0.75376  0.73342  1.0000
  C   C1070     1.0  0.05054  0.75142  0.74963  1.0000
  H   H1699     1.0  0.12731  0.79496  0.87621  1.0000
  H   H1700     1.0  0.11080  0.76582  0.92456  1.0000
  H   H1701     1.0  0.04838  0.77099  0.79452  1.0000
  H   H1702     1.0  0.23941  0.83910  0.95695  1.0000
  H   H1703     1.0  0.23745  0.87459  0.64882  1.0000
  H   H1704     1.0  0.15468  0.73769  0.89796  1.0000
  H   H1705     1.0  0.28881  0.86696  0.76430  1.0000
  H   H1706     1.0  0.26042  0.77603  0.82427  1.0000
  H   H1707     1.0  0.22509  0.85917  0.67658  1.0000
  C   C1071     1.0  0.15034  0.85441  0.66017  1.0000
  H   H1708     1.0  0.11424  0.83192  0.66678  1.0000
  C   C1072     1.0  0.16519  0.75471  0.90422  1.0000
  H   H1709     1.0  0.18114  0.86816  0.94552  1.0000
  H   H1710     1.0  0.27787  0.84003  0.80636  1.0000
  C   C1073     1.0  0.02716  0.75634  0.70236  1.0000
  S   S445      1.0  0.29730  0.79444  0.77368  1.0000
  H   H1711     1.0  0.15424  0.76106  0.96322  1.0000
  H   H1712     1.0  0.22111  0.81960  0.82221  1.0000
  S   S446      1.0  0.30437  0.85962  0.67440  1.0000
  H   H1713     1.0  0.29912  0.76871  0.83286  1.0000
  S   S447      1.0  0.29738  0.80261  0.81427  1.0000
  N   N106      1.0  0.18429  0.80745  0.69233  1.0000
  C   C1074     1.0  0.16915  0.80155  0.69355  1.0000
  C   C1075     1.0  0.18719  0.82005  0.67668  1.0000
  C   C1076     1.0  0.19886  0.79332  0.69246  1.0000
  C   C1077     1.0  0.18195  0.81494  0.70667  1.0000
  H   H1714     1.0  0.15793  0.81198  0.69375  1.0000
  H   H1715     1.0  0.16654  0.79194  0.70515  1.0000
  H   H1716     1.0  0.17033  0.79612  0.68274  1.0000
  H   H1717     1.0  0.19839  0.82496  0.67537  1.0000
  H   H1718     1.0  0.18922  0.81475  0.66560  1.0000
  H   H1719     1.0  0.17630  0.83072  0.67607  1.0000
  H   H1720     1.0  0.21053  0.79751  0.69112  1.0000
  H   H1721     1.0  0.20097  0.78717  0.68198  1.0000
  H   H1722     1.0  0.19723  0.78368  0.70420  1.0000
  H   H1723     1.0  0.19298  0.81982  0.70606  1.0000
  H   H1724     1.0  0.17972  0.80577  0.71870  1.0000
  H   H1725     1.0  0.17094  0.82547  0.70718  1.0000
  S   S448      1.0  0.11650  0.73933  0.88112  1.0000
  H   H1726     1.0  0.15719  0.97906  0.78611  1.0000
  C   C1078     1.0  0.24880  0.78307  0.83111  1.0000
  H   H1727     1.0  0.99674  0.75039  0.70771  1.0000
  H   H1728     1.0  0.29670  0.83889  0.81240  1.0000
  H   H1729     1.0  0.30590  0.78482  0.74033  1.0000
  H   H1730     1.0  0.03263  0.77251  0.82360  1.0000
  H   H1731     1.0  0.21719  0.80055  0.83663  1.0000
  H   H1732     1.0  0.27320  0.85623  0.77859  1.0000
  H   H1733     1.0  0.18287  0.93719  0.78091  1.0000
  H   H1734     1.0  0.22375  0.93893  0.70541  1.0000
  H   H1735     1.0  0.31944  0.82440  0.68687  1.0000
  H   H1736     1.0  0.00764  0.74054  0.74166  1.0000
  S   S449      1.0  0.31393  0.75750  0.76515  1.0000
  H   H1737     1.0  0.11023  0.75987  0.90628  1.0000
  H   H1738     1.0  0.19851  0.87512  0.90007  1.0000
  H   H1739     1.0  0.21336  0.84096  0.91977  1.0000
  C   C1079     1.0  0.20419  0.88147  0.65835  1.0000
  C   C1080     1.0  0.19116  0.94183  0.70775  1.0000
  H   H1740     1.0  0.20300  0.97345  0.76923  1.0000
  C   C1081     1.0  0.26955  0.78054  0.86575  1.0000
  N   N107      1.0  0.11808  0.78295  0.90151  1.0000
  C   C1082     1.0  0.12693  0.78228  0.88415  1.0000
  C   C1083     1.0  0.10098  0.79307  0.90166  1.0000
  C   C1084     1.0  0.12714  0.79054  0.90889  1.0000
  C   C1085     1.0  0.11720  0.76590  0.91134  1.0000
  H   H1741     1.0  0.20662  0.85175  0.67949  1.0000
  C   C1086     1.0  0.21834  0.85399  0.67041  1.0000
  H   H1742     1.0  0.14805  0.96663  0.72287  1.0000
  H   H1743     1.0  0.09388  0.79369  0.91458  1.0000
  C   C1087     1.0  0.18409  0.95924  0.79728  1.0000
  H   H1744     1.0  0.09388  0.78767  0.89607  1.0000
  H   H1745     1.0  0.12080  0.79133  0.92196  1.0000
  H   H1746     1.0  0.18835  0.73828  0.95823  1.0000
  H   H1747     1.0  0.14003  0.78308  0.90914  1.0000
  H   H1748     1.0  0.17151  0.78907  0.96283  1.0000
  H   H1749     1.0  0.18969  0.96889  0.79893  1.0000
  S   S450      1.0  0.16207  0.88344  0.64847  1.0000
  N   N108      1.0  0.24136  0.79825  0.82005  1.0000
  H   H1750     1.0  0.15974  0.75147  0.91738  1.0000
  C   C1088     1.0  0.22695  0.80792  0.83008  1.0000
  H   H1751     1.0  0.05494  0.75118  0.78859  1.0000
  H   H1752     1.0  0.12979  0.75771  0.91136  1.0000
  H   H1753     1.0  0.22658  0.78537  0.81334  1.0000
  C   C1089     1.0  0.15866  0.86474  0.64651  1.0000
  C   C1090     1.0  0.30845  0.86145  0.78583  1.0000
  H   H1754     1.0  0.23078  0.81161  0.83977  1.0000
  H   H1755     1.0  0.26510  0.80157  0.80407  1.0000
  H   H1756     1.0  0.24875  0.82014  0.80317  1.0000
  C   C1091     1.0  0.17391  0.73841  0.65632  1.0000
  S   S451      1.0  0.31052  0.83781  0.64624  1.0000
  H   H1757     1.0  0.24650  0.78638  0.79955  1.0000
  H   H1758     1.0  0.19961  0.91548  0.69357  1.0000
  N   N109      1.0  0.29574  0.85208  0.78718  1.0000
  C   C1092     1.0  0.30380  0.83702  0.78032  1.0000
  H   H1759     1.0  0.31478  0.86551  0.77263  1.0000
  H   H1760     1.0  0.03982  0.75417  0.70482  1.0000
  C   C1093     1.0  0.17683  0.78035  0.95419  1.0000
  H   H1761     1.0  0.27680  0.87422  0.78264  1.0000
  C   C1094     1.0  0.25172  0.73529  0.81271  1.0000
  H   H1762     1.0  0.12093  0.77590  0.87840  1.0000
  C   C1095     1.0  0.14697  0.95987  0.71441  1.0000
  C   C1096     1.0  0.31670  0.81561  0.69845  1.0000
  Fe  Fe231     1.0  0.32061  0.74975  0.79003  1.0000
  N   N110      1.0  0.18124  0.96291  0.78025  1.0000
  S   S452      1.0  0.12771  0.92038  0.71749  1.0000
  H   H1763     1.0  0.06274  0.76590  0.72714  1.0000
  H   H1764     1.0  0.20916  0.88665  0.90683  1.0000
  H   H1765     1.0  0.24488  0.90913  0.70252  1.0000
  C   C1097     1.0  0.14508  0.94147  0.69275  1.0000
  C   C1098     1.0  0.29020  0.77687  0.84037  1.0000
  H   H1766     1.0  0.18639  0.95538  0.70744  1.0000
  C   C1099     1.0  0.13830  0.93689  0.70976  1.0000
  C   C1100     1.0  0.00727  0.78655  0.66374  1.0000
  H   H1767     1.0  0.30272  0.87288  0.79095  1.0000
  S   S453      1.0  0.28748  0.81751  0.69005  1.0000
  H   H1768     1.0  0.29039  0.84510  0.72966  1.0000
  C   C1101     1.0  0.25783  0.86022  0.73564  1.0000
  Fe  Fe232     1.0  0.30517  0.78392  0.79801  1.0000
  H   H1769     1.0  0.29113  0.84164  0.70976  1.0000
  H   H1770     1.0  0.21980  0.86689  0.90152  1.0000
  H   H1771     1.0  0.29704  0.89139  0.68375  1.0000
  H   H1772     1.0  0.26334  0.85639  0.74683  1.0000
  H   H1773     1.0  0.24434  0.85999  0.73996  1.0000
  S   S454      1.0  0.13115  0.88467  0.69242  1.0000
  C   C1102     1.0  0.25393  0.80854  0.81159  1.0000
  H   H1774     1.0  0.27717  0.97682  0.77862  1.0000
  S   S455      1.0  0.29516  0.76076  0.80358  1.0000
  H   H1775     1.0  0.21035  0.85840  0.94817  1.0000
  N   N111      1.0  0.26641  0.84927  0.72377  1.0000
  H   H1776     1.0  0.24586  0.85416  0.71184  1.0000
  Fe  Fe233     1.0  0.15646  0.88369  0.67551  1.0000
  C   C1103     1.0  0.04513  0.75868  0.79685  1.0000
  C   C1104     1.0  0.15252  0.95535  0.68656  1.0000
  H   H1777     1.0  0.26998  0.82366  0.72282  1.0000
  C   C1105     1.0  0.13933  0.94609  0.72059  1.0000
  H   H1778     1.0  0.22046  0.91804  0.68295  1.0000
  C   C1106     1.0  0.15334  0.96469  0.69732  1.0000
  C   C1107     1.0  0.25913  0.85517  0.70882  1.0000
  H   H1779     1.0  0.28128  0.85812  0.81050  1.0000
  H   H1780     1.0  0.26590  0.84764  0.69930  1.0000
  S   S456      1.0  0.16321  0.74343  0.86205  1.0000
  H   H1781     1.0  0.27057  0.82673  0.74251  1.0000
  H   H1782     1.0  0.26329  0.75608  0.80723  1.0000
  C   C1108     1.0  0.26440  0.83202  0.73174  1.0000
  N   N112      1.0  0.20221  0.86524  0.92510  1.0000
  H   H1783     1.0  0.18596  0.88738  0.93229  1.0000
  H   H1784     1.0  0.14007  0.77535  0.88350  1.0000
  S   S457      1.0  0.27267  0.85764  0.66051  1.0000
  H   H1785     1.0  0.28709  0.79355  0.72087  1.0000
  H   H1786     1.0  0.25101  0.83137  0.73624  1.0000
  H   H1787     1.0  0.10112  0.80607  0.89445  1.0000
  H   H1788     1.0  0.07865  0.84480  0.65905  1.0000
  S   S458      1.0  0.26577  0.89775  0.67358  1.0000
  N   N113      1.0  0.20483  0.93886  0.69323  1.0000
  C   C1109     1.0  0.23582  0.79345  0.80745  1.0000
  H   H1789     1.0  0.15741  0.95901  0.67332  1.0000
  H   H1790     1.0  0.22690  0.85722  0.92997  1.0000
  H   H1791     1.0  0.25976  0.86838  0.70282  1.0000
  H   H1792     1.0  0.28627  0.86250  0.71277  1.0000
  H   H1793     1.0  0.20889  0.94560  0.66652  1.0000
  C   C1110     1.0  0.16236  0.74682  0.89322  1.0000
  H   H1794     1.0  0.16713  0.98234  0.76438  1.0000
  H   H1795     1.0  0.21470  0.91396  0.70517  1.0000
  H   H1796     1.0  0.19197  0.84831  0.91836  1.0000
  C   C1111     1.0  0.01700  0.74058  0.72968  1.0000
  C   C1112     1.0  0.20618  0.85805  0.64681  1.0000
  N   N114      1.0  0.01410  0.75676  0.71780  1.0000
  C   C1113     1.0  0.26731  0.79785  0.86018  1.0000
  Fe  Fe234     1.0  0.29373  0.83989  0.67091  1.0000
  C   C1114     1.0  0.23781  0.96965  0.78935  1.0000
  H   H1797     1.0  0.17230  0.95872  0.80683  1.0000
  Fe  Fe235     1.0  0.28437  0.87748  0.66199  1.0000
  C   C1115     1.0  0.24963  0.74455  0.77924  1.0000
  Fe  Fe236     1.0  0.32252  0.78069  0.76285  1.0000
  H   H1798     1.0  0.03327  0.76081  0.79273  1.0000
  H   H1799     1.0  0.25216  0.78621  0.84135  1.0000
  H   H1800     1.0  0.29456  0.82957  0.78136  1.0000
  C   C1116     1.0  0.25706  0.75356  0.78548  1.0000
  C   C1117     1.0  0.27661  0.80465  0.84470  1.0000
  C   C1118     1.0  0.14934  0.83866  0.65898  1.0000
  H   H1801     1.0  0.18773  0.75756  0.65079  1.0000
  H   H1802     1.0  0.25810  0.81314  0.66270  1.0000
  C   C1119     1.0  0.29842  0.79822  0.71759  1.0000
  C   C1120     1.0  0.00008  0.79632  0.67563  1.0000
  C   C1121     1.0  0.19893  0.94759  0.67775  1.0000
  C   C1122     1.0  0.28212  0.78440  0.97198  1.0000
  H   H1803     1.0  0.20637  0.95163  0.77002  1.0000
  H   H1804     1.0  0.27481  0.81803  0.84036  1.0000
  C   C1123     1.0  0.16878  0.75138  0.87614  1.0000
  S   S459      1.0  0.26552  0.77027  0.77225  1.0000
  H   H1805     1.0  0.18901  0.78321  0.94679  1.0000
  H   H1806     1.0  0.21008  0.88724  0.66482  1.0000
  H   H1807     1.0  0.22977  0.94298  0.68311  1.0000
  C   C1124     1.0  0.21436  0.86447  0.93485  1.0000
  H   H1808     1.0  0.14485  0.85842  0.67177  1.0000
  H   H1809     1.0  0.25839  0.81236  0.82070  1.0000
  H   H1810     1.0  0.08705  0.96786  0.72336  1.0000
  H   H1811     1.0  0.16847  0.78321  0.94538  1.0000
  Fe  Fe237     1.0  0.07512  0.79219  0.65659  1.0000
  H   H1812     1.0  0.21578  0.87713  0.93454  1.0000
  H   H1813     1.0  0.00519  0.77079  0.73705  1.0000
  C   C1125     1.0  0.20767  0.87389  0.90766  1.0000
  H   H1814     1.0  0.02068  0.78365  0.65942  1.0000
  C   C1126     1.0  0.28772  0.79414  0.83460  1.0000
  H   H1815     1.0  0.02766  0.73502  0.81327  1.0000
  C   C1127     1.0  0.28123  0.77009  0.85598  1.0000
  C   C1128     1.0  0.21012  0.92080  0.69369  1.0000
  H   H1816     1.0  0.19296  0.94708  0.80002  1.0000
  C   C1129     1.0  0.25797  0.74898  0.80224  1.0000
  C   C1130     1.0  0.25516  0.96679  0.78386  1.0000
  H   H1817     1.0  0.17965  0.75366  0.94208  1.0000
  C   C1131     1.0  0.18563  0.87442  0.93237  1.0000
  C   C1132     1.0  0.09923  0.97089  0.72235  1.0000
  H   H1818     1.0  0.19736  0.84106  0.93846  1.0000
  C   C1133     1.0  0.20116  0.84815  0.92550  1.0000
  H   H1819     1.0  0.22994  0.80457  0.79899  1.0000
  H   H1820     1.0  0.31009  0.84022  0.76698  1.0000
  N   N115      1.0  0.04360  0.74999  0.81455  1.0000
  C   C1134     1.0  0.17430  0.94960  0.77842  1.0000
  H   H1821     1.0  0.17249  0.95172  0.76554  1.0000
  S   S460      1.0  0.22968  0.80867  0.65438  1.0000
  H   H1822     1.0  0.24881  0.74814  0.76629  1.0000
  H   H1823     1.0  0.28035  0.79337  0.96006  1.0000
  H   H1824     1.0  0.01253  0.78260  0.71668  1.0000
  H   H1825     1.0  0.02522  0.76831  0.69307  1.0000
  C   C1135     1.0  0.15664  0.83322  0.64412  1.0000
  H   H1826     1.0  0.19559  0.96661  0.75506  1.0000
  C   C1136     1.0  0.01475  0.77017  0.72528  1.0000
  H   H1827     1.0  0.19404  0.85576  0.65499  1.0000
  C   C1137     1.0  0.19724  0.96368  0.76809  1.0000
  H   H1828     1.0  0.19195  0.87964  0.66653  1.0000
  C   C1138     1.0  0.99754  0.75998  0.71386  1.0000
  H   H1829     1.0  0.20175  0.76266  0.96939  1.0000
  H   H1830     1.0  0.10762  0.96793  0.71054  1.0000
  C   C1139     1.0  0.04756  0.73563  0.75806  1.0000
  C   C1140     1.0  0.16943  0.97911  0.77719  1.0000
  C   C1141     1.0  0.05951  0.74761  0.81951  1.0000
  C   C1142     1.0  0.16227  0.75928  0.97211  1.0000
  H   H1831     1.0  0.06994  0.74001  0.81189  1.0000
  H   H1832     1.0  0.25007  0.79498  0.97001  1.0000
  H   H1833     1.0  0.22616  0.84171  0.66816  1.0000
  H   H1834     1.0  0.28395  0.77163  0.96997  1.0000
  H   H1835     1.0  0.31336  0.82863  0.78725  1.0000
  C   C1143     1.0  0.11362  0.73529  0.95526  1.0000
  C   C1144     1.0  0.11033  0.82650  0.65840  1.0000
  C   C1145     1.0  0.32369  0.79935  0.72462  1.0000
  C   C1146     1.0  0.18918  0.75996  0.97562  1.0000
  C   C1147     1.0  0.18818  0.74516  0.64974  1.0000
  H   H1836     1.0  0.99486  0.77228  0.70522  1.0000
  Fe  Fe238     1.0  0.31916  0.85951  0.64824  1.0000
  C   C1148     1.0  0.25787  0.81970  0.64996  1.0000
  H   H1837     1.0  0.29387  0.78537  0.97458  1.0000
  H   H1838     1.0  0.00265  0.77335  0.64785  1.0000
  S   S461      1.0  0.20033  0.78509  0.64967  1.0000
  H   H1839     1.0  0.27954  0.82920  0.64685  1.0000
  H   H1840     1.0  0.09867  0.76000  0.64766  1.0000
  N   N116      1.0  0.10385  0.83961  0.64497  1.0000
  S   S462      1.0  0.16286  0.98198  0.68902  1.0000
  S   S463      1.0  0.03409  0.73357  0.77765  1.0000
  H   H1841     1.0  0.26328  0.81450  0.97641  1.0000
  C   C1149     1.0  0.03965  0.73360  0.81683  1.0000
  C   C1150     1.0  0.12336  0.73323  0.96689  1.0000
  H   H1842     1.0  0.55524  0.13325  0.23784  1.0000
  C   C1151     1.0  0.35004  0.17000  0.16275  1.0000
  C   C1152     1.0  0.41110  0.19092  0.20104  1.0000
  H   H1843     1.0  0.33490  0.13832  0.24455  1.0000
  S   S464      1.0  0.33178  0.08746  0.24407  1.0000
  H   H1844     1.0  0.56404  0.22893  0.29535  1.0000
  N   N117      1.0  0.55220  0.13910  0.26149  1.0000
  C   C1153     1.0  0.33828  0.15562  0.12272  1.0000
  S   S465      1.0  0.33775  0.04624  0.13193  1.0000
  H   H1845     1.0  0.33684  0.12164  0.15465  1.0000
  Fe  Fe239     1.0  0.34198  0.10022  0.21812  1.0000
  C   C1154     1.0  0.34822  0.16563  0.03542  1.0000
  H   H1846     1.0  0.64580  0.15492  0.21627  1.0000
  Fe  Fe240     1.0  0.42928  0.18620  0.26406  1.0000
  S   S466      1.0  0.40660  0.20463  0.27340  1.0000
  H   H1847     1.0  0.35448  0.20023  0.30791  1.0000
  Fe  Fe241     1.0  0.40796  0.16213  0.26541  1.0000
  S   S467      1.0  0.38393  0.17839  0.27567  1.0000
  S   S468      1.0  0.40747  0.13826  0.25920  1.0000
  Fe  Fe242     1.0  0.39427  0.19887  0.25641  1.0000
  S   S469      1.0  0.37712  0.21653  0.24043  1.0000
  Fe  Fe243     1.0  0.39834  0.18256  0.29192  1.0000
  S   S470      1.0  0.41752  0.18245  0.24515  1.0000
  S   S471      1.0  0.42178  0.16425  0.28360  1.0000
  C   C1155     1.0  0.54368  0.13384  0.27901  1.0000
  C   C1156     1.0  0.33494  0.08517  0.10357  1.0000
  Fe  Fe244     1.0  0.36316  0.12513  0.19801  1.0000
  Fe  Fe245     1.0  0.56394  0.18710  0.30144  1.0000
  S   S472      1.0  0.37620  0.14514  0.19765  1.0000
  Fe  Fe246     1.0  0.36109  0.09648  0.18373  1.0000
  H   H1848     1.0  0.34275  0.16364  0.15843  1.0000
  S   S473      1.0  0.37400  0.08021  0.16524  1.0000
  H   H1849     1.0  0.54763  0.16449  0.26323  1.0000
  H   H1850     1.0  0.33158  0.11065  0.12916  1.0000
  C   C1157     1.0  0.63326  0.16666  0.25343  1.0000
  H   H1851     1.0  0.53543  0.13153  0.25176  1.0000
  S   S474      1.0  0.35777  0.12409  0.17418  1.0000
  C   C1158     1.0  0.42516  0.21270  0.30345  1.0000
  H   H1852     1.0  0.48778  0.15517  0.29448  1.0000
  H   H1853     1.0  0.56969  0.22483  0.24779  1.0000
  H   H1854     1.0  0.37376  0.10646  0.24833  1.0000
  H   H1855     1.0  0.59073  0.20577  0.30283  1.0000
  Fe  Fe247     1.0  0.34481  0.19048  0.09540  1.0000
  S   S475      1.0  0.35176  0.16270  0.10418  1.0000
  H   H1856     1.0  0.35983  0.14155  0.25202  1.0000
  H   H1857     1.0  0.33881  0.07728  0.17258  1.0000
  H   H1858     1.0  0.34163  0.18176  0.16575  1.0000
  H   H1859     1.0  0.50595  0.19930  0.26710  1.0000
  H   H1860     1.0  0.35290  0.14549  0.06481  1.0000
  C   C1159     1.0  0.34260  0.13930  0.13167  1.0000
  S   S476      1.0  0.35232  0.21401  0.03540  1.0000
  H   H1861     1.0  0.36025  0.15635  0.03406  1.0000
  Fe  Fe248     1.0  0.57114  0.18370  0.26550  1.0000
  H   H1862     1.0  0.35369  0.13089  0.12666  1.0000
  C   C1160     1.0  0.34583  0.07124  0.16251  1.0000
  S   S477      1.0  0.33627  0.12814  0.21129  1.0000
  H   H1863     1.0  0.35876  0.10212  0.09865  1.0000
  H   H1864     1.0  0.32672  0.22211  0.29068  1.0000
  H   H1865     1.0  0.41045  0.21381  0.21696  1.0000
  C   C1161     1.0  0.43650  0.18322  0.30610  1.0000
  H   H1866     1.0  0.52991  0.13630  0.28039  1.0000
  C   C1162     1.0  0.63380  0.22357  0.04762  1.0000
  S   S478      1.0  0.53765  0.20141  0.30090  1.0000
  H   H1867     1.0  0.63623  0.22775  0.03381  1.0000
  N   N118      1.0  0.41382  0.20799  0.19326  1.0000
  H   H1868     1.0  0.35280  0.17887  0.12988  1.0000
  C   C1163     1.0  0.36408  0.05505  0.13674  1.0000
  C   C1164     1.0  0.37201  0.06266  0.14399  1.0000
  C   C1165     1.0  0.36302  0.07081  0.15687  1.0000
  Fe  Fe249     1.0  0.54942  0.21507  0.27592  1.0000
  H   H1869     1.0  0.37151  0.18656  0.12469  1.0000
  H   H1870     1.0  0.37127  0.04879  0.12680  1.0000
  H   H1871     1.0  0.38527  0.06217  0.13962  1.0000
  C   C1166     1.0  0.49679  0.19173  0.27009  1.0000
  S   S479      1.0  0.45350  0.19546  0.25675  1.0000
  H   H1872     1.0  0.42261  0.20357  0.16844  1.0000
  H   H1873     1.0  0.60574  0.22418  0.30835  1.0000
  S   S480      1.0  0.56146  0.16753  0.28983  1.0000
  H   H1874     1.0  0.36715  0.19329  0.15956  1.0000
  C   C1167     1.0  0.39931  0.14045  0.24168  1.0000
  C   C1168     1.0  0.39165  0.15607  0.23350  1.0000
  C   C1169     1.0  0.38478  0.15741  0.21988  1.0000
  C   C1170     1.0  0.38533  0.14313  0.21449  1.0000
  C   C1171     1.0  0.39323  0.12756  0.22249  1.0000
  C   C1172     1.0  0.40012  0.12622  0.23609  1.0000
  H   H1875     1.0  0.39082  0.16710  0.23782  1.0000
  H   H1876     1.0  0.37874  0.16951  0.21372  1.0000
  H   H1877     1.0  0.39408  0.11652  0.21817  1.0000
  H   H1878     1.0  0.40617  0.11412  0.24226  1.0000
  S   S481      1.0  0.54572  0.19836  0.26180  1.0000
  H   H1879     1.0  0.57716  0.14013  0.24729  1.0000
  H   H1880     1.0  0.34842  0.20121  0.00907  1.0000
  H   H1881     1.0  0.60761  0.17456  0.26566  1.0000
  H   H1882     1.0  0.54584  0.14084  0.28718  1.0000
  S   S482      1.0  0.57585  0.20195  0.27727  1.0000
  H   H1883     1.0  0.63406  0.22725  0.07793  1.0000
  H   H1884     1.0  0.36883  0.15082  0.14147  1.0000
  Fe  Fe250     1.0  0.34862  0.22560  0.09279  1.0000
  C   C1173     1.0  0.37952  0.22618  0.12048  1.0000
  H   H1885     1.0  0.62867  0.19366  0.18960  1.0000
  C   C1174     1.0  0.35756  0.13139  0.26323  1.0000
  H   H1886     1.0  0.32488  0.07857  0.11134  1.0000
  H   H1887     1.0  0.55213  0.16165  0.24243  1.0000
  C   C1175     1.0  0.41951  0.21419  0.20481  1.0000
  H   H1888     1.0  0.35286  0.19670  0.13707  1.0000
  H   H1889     1.0  0.48179  0.20889  0.25337  1.0000
  C   C1176     1.0  0.62017  0.16292  0.22845  1.0000
  C   C1177     1.0  0.63753  0.15929  0.22699  1.0000
  C   C1178     1.0  0.64411  0.16106  0.23953  1.0000
  H   H1890     1.0  0.57322  0.14323  0.26790  1.0000
  H   H1891     1.0  0.61515  0.16134  0.21881  1.0000
  H   H1892     1.0  0.43870  0.19949  0.17983  1.0000
  H   H1893     1.0  0.62734  0.21301  0.05122  1.0000
  H   H1894     1.0  0.40686  0.18579  0.19267  1.0000
  C   C1179     1.0  0.47097  0.18753  0.26618  1.0000
  C   C1180     1.0  0.48648  0.16693  0.28553  1.0000
  H   H1895     1.0  0.54813  0.12034  0.28402  1.0000
  H   H1896     1.0  0.63827  0.16805  0.26317  1.0000
  H   H1897     1.0  0.63792  0.17773  0.15950  1.0000
  H   H1898     1.0  0.33155  0.15045  0.07593  1.0000
  H   H1899     1.0  0.39772  0.21239  0.13535  1.0000
  H   H1900     1.0  0.34429  0.13395  0.04539  1.0000
  C   C1181     1.0  0.33615  0.20556  0.01624  1.0000
  H   H1901     1.0  0.34948  0.13726  0.27362  1.0000
  C   C1182     1.0  0.63310  0.19145  0.15770  1.0000
  Fe  Fe251     1.0  0.34566  0.21486  0.06249  1.0000
  H   H1902     1.0  0.42270  0.18223  0.20420  1.0000
  H   H1903     1.0  0.32791  0.20067  0.30135  1.0000
  C   C1183     1.0  0.36101  0.11214  0.24599  1.0000
  H   H1904     1.0  0.34612  0.09125  0.12757  1.0000
  N   N119      1.0  0.33281  0.10141  0.10778  1.0000
  C   C1184     1.0  0.63546  0.21727  0.16228  1.0000
  S   S483      1.0  0.33101  0.20995  0.11033  1.0000
  H   H1905     1.0  0.42471  0.22426  0.30730  1.0000
  S   S484      1.0  0.33439  0.09710  0.19633  1.0000
  N   N120      1.0  0.34989  0.11935  0.26000  1.0000
  H   H1906     1.0  0.63591  0.22334  0.14891  1.0000
  H   H1907     1.0  0.33917  0.11081  0.28586  1.0000
  C   C1185     1.0  0.33783  0.06344  0.15527  1.0000
  H   H1908     1.0  0.33460  0.08665  0.09033  1.0000
  H   H1909     1.0  0.34511  0.12204  0.10004  1.0000
  C   C1186     1.0  0.33368  0.09868  0.12535  1.0000
  H   H1910     1.0  0.62220  0.21979  0.16903  1.0000
  N   N121      1.0  0.36520  0.17322  0.15007  1.0000
  H   H1911     1.0  0.55381  0.11588  0.25533  1.0000
  H   H1912     1.0  0.46377  0.16463  0.28056  1.0000
  C   C1187     1.0  0.39801  0.21905  0.18960  1.0000
  C   C1188     1.0  0.37570  0.15728  0.14621  1.0000
  H   H1913     1.0  0.42091  0.22735  0.19972  1.0000
  Fe  Fe252     1.0  0.33141  0.12470  0.18821  1.0000
  H   H1914     1.0  0.43171  0.20651  0.20741  1.0000
  C   C1189     1.0  0.36038  0.18435  0.13477  1.0000
  H   H1915     1.0  0.38622  0.18382  0.14723  1.0000
  H   H1916     1.0  0.36988  0.12529  0.26659  1.0000
  H   H1917     1.0  0.57577  0.12268  0.26477  1.0000
  H   H1918     1.0  0.61557  0.22067  0.07883  1.0000
  H   H1919     1.0  0.64622  0.21856  0.05093  1.0000
  C   C1190     1.0  0.64173  0.19152  0.18224  1.0000
  H   H1920     1.0  0.34699  0.07668  0.10578  1.0000
  C   C1191     1.0  0.34106  0.15506  0.06507  1.0000
  H   H1921     1.0  0.53202  0.15985  0.25607  1.0000
  C   C1192     1.0  0.48310  0.19712  0.26231  1.0000
  C   C1193     1.0  0.54903  0.12950  0.25114  1.0000
  H   H1922     1.0  0.35954  0.09894  0.27843  1.0000
  H   H1923     1.0  0.41220  0.21062  0.30675  1.0000
  C   C1194     1.0  0.49849  0.17663  0.28179  1.0000
  C   C1195     1.0  0.33456  0.21323  0.02931  1.0000
  H   H1924     1.0  0.35634  0.10216  0.24390  1.0000
  C   C1196     1.0  0.34623  0.10984  0.09701  1.0000
  C   C1197     1.0  0.45363  0.20134  0.30647  1.0000
  H   H1925     1.0  0.65399  0.16886  0.13375  1.0000
  N   N122      1.0  0.64264  0.19920  0.16437  1.0000
  C   C1198     1.0  0.37470  0.18122  0.15651  1.0000
  H   H1926     1.0  0.45805  0.20384  0.29269  1.0000
  H   H1927     1.0  0.42920  0.21504  0.28962  1.0000
  H   H1928     1.0  0.38715  0.15922  0.13651  1.0000
  H   H1929     1.0  0.64923  0.19670  0.18758  1.0000
  S   S485      1.0  0.58758  0.17249  0.24402  1.0000
  H   H1930     1.0  0.39380  0.21527  0.18024  1.0000
  H   H1931     1.0  0.40139  0.19071  0.21283  1.0000
  H   H1932     1.0  0.63394  0.19655  0.14412  1.0000
  H   H1933     1.0  0.35326  0.22172  0.29760  1.0000
  H   H1934     1.0  0.37747  0.21524  0.11802  1.0000
  H   H1935     1.0  0.37854  0.17311  0.16807  1.0000
  S   S486      1.0  0.36386  0.20520  0.07936  1.0000
  H   H1936     1.0  0.42898  0.22055  0.17153  1.0000
  S   S487      1.0  0.32778  0.19877  0.07777  1.0000
  H   H1937     1.0  0.37975  0.14866  0.15747  1.0000
  S   S488      1.0  0.36935  0.09719  0.20642  1.0000
  C   C1199     1.0  0.34699  0.05541  0.14226  1.0000
  H   H1938     1.0  0.36204  0.12175  0.23419  1.0000
  H   H1939     1.0  0.34598  0.11212  0.08363  1.0000
  C   C1200     1.0  0.42662  0.20783  0.17762  1.0000
  C   C1201     1.0  0.54569  0.15704  0.25546  1.0000
  C   C1202     1.0  0.57036  0.13608  0.26033  1.0000
  H   H1940     1.0  0.32761  0.11926  0.25292  1.0000
  C   C1203     1.0  0.61589  0.17037  0.25485  1.0000
  C   C1204     1.0  0.60930  0.16843  0.24239  1.0000
  C   C1205     1.0  0.47281  0.17231  0.27772  1.0000
  H   H1941     1.0  0.43964  0.18524  0.29231  1.0000
  S   S489      1.0  0.51536  0.16943  0.29205  1.0000
  H   H1942     1.0  0.35321  0.16185  0.17457  1.0000
  Fe  Fe253     1.0  0.53616  0.18331  0.28688  1.0000
  S   S490      1.0  0.63508  0.22116  0.11327  1.0000
  C   C1206     1.0  0.33357  0.12797  0.25573  1.0000
  H   H1943     1.0  0.64656  0.17778  0.18424  1.0000
  H   H1944     1.0  0.64245  0.22349  0.16714  1.0000
  H   H1945     1.0  0.34159  0.09664  0.27285  1.0000
  C   C1207     1.0  0.33318  0.13415  0.14759  1.0000
  C   C1208     1.0  0.39099  0.22461  0.13027  1.0000
  C   C1209     1.0  0.34745  0.10585  0.27497  1.0000
  H   H1946     1.0  0.39938  0.23221  0.18440  1.0000
  H   H1947     1.0  0.61967  0.19360  0.16399  1.0000
  N   N123      1.0  0.33538  0.15901  0.04931  1.0000
  C   C1210     1.0  0.33266  0.14379  0.04635  1.0000
  H   H1948     1.0  0.38788  0.21882  0.20102  1.0000
  H   H1949     1.0  0.34421  0.16915  0.02336  1.0000
  H   H1950     1.0  0.35081  0.17698  0.03740  1.0000
  H   H1951     1.0  0.32839  0.14643  0.03450  1.0000
  H   H1952     1.0  0.32473  0.13330  0.26614  1.0000
  H   H1953     1.0  0.34352  0.16629  0.06742  1.0000
  C   C1211     1.0  0.62185  0.23142  0.07415  1.0000
  C   C1212     1.0  0.34932  0.21324  0.30970  1.0000
  H   H1954     1.0  0.32469  0.06352  0.15982  1.0000
  H   H1955     1.0  0.60806  0.23291  0.13874  1.0000
  H   H1956     1.0  0.40056  0.23292  0.24513  1.0000
  C   C1213     1.0  0.65715  0.21373  0.44208  1.0000
  S   S491      1.0  0.64270  0.18992  0.55685  1.0000
  H   H1957     1.0  0.61378  0.21236  0.57712  1.0000
  S   S492      1.0  0.44938  0.21633  0.59925  1.0000
  H   H1958     1.0  0.34480  0.18175  0.36832  1.0000
  H   H1959     1.0  0.64803  0.14222  0.41572  1.0000
  C   C1214     1.0  0.64809  0.21726  0.45755  1.0000
  C   C1215     1.0  0.55391  0.22805  0.32789  1.0000
  H   H1960     1.0  0.63990  0.14974  0.62430  1.0000
  C   C1216     1.0  0.33919  0.15262  0.41172  1.0000
  S   S493      1.0  0.57454  0.20747  0.62930  1.0000
  S   S494      1.0  0.34807  0.19052  0.55143  1.0000
  H   H1961     1.0  0.35144  0.14792  0.40385  1.0000
  H   H1962     1.0  0.59170  0.22042  0.55230  1.0000
  C   C1217     1.0  0.60109  0.21455  0.31834  1.0000
  H   H1963     1.0  0.62831  0.18199  0.44161  1.0000
  H   H1964     1.0  0.61814  0.17023  0.63766  1.0000
  H   H1965     1.0  0.44746  0.14436  0.63014  1.0000
  H   H1966     1.0  0.64733  0.18350  0.63940  1.0000
  C   C1218     1.0  0.32875  0.12868  0.41289  1.0000
  C   C1219     1.0  0.35822  0.22027  0.54550  1.0000
  Fe  Fe254     1.0  0.38888  0.21553  0.62793  1.0000
  H   H1967     1.0  0.43045  0.19634  0.62907  1.0000
  C   C1220     1.0  0.59255  0.20418  0.31521  1.0000
  C   C1221     1.0  0.59517  0.20730  0.55910  1.0000
  H   H1968     1.0  0.33122  0.19171  0.33070  1.0000
  C   C1222     1.0  0.64976  0.17220  0.63432  1.0000
  H   H1969     1.0  0.45601  0.17647  0.60576  1.0000
  S   S495      1.0  0.40347  0.21090  0.60284  1.0000
  H   H1970     1.0  0.60992  0.18364  0.58180  1.0000
  C   C1223     1.0  0.36472  0.23151  0.54996  1.0000
  H   H1971     1.0  0.65426  0.17009  0.40223  1.0000
  C   C1224     1.0  0.44789  0.15503  0.63498  1.0000
  S   S496      1.0  0.62590  0.21186  0.51664  1.0000
  C   C1225     1.0  0.43081  0.19556  0.32974  1.0000
  H   H1972     1.0  0.43907  0.18461  0.33613  1.0000
  H   H1973     1.0  0.48459  0.21392  0.59551  1.0000
  C   C1226     1.0  0.62275  0.18026  0.62735  1.0000
  C   C1227     1.0  0.41972  0.16860  0.63211  1.0000
  Fe  Fe255     1.0  0.63362  0.21478  0.39219  1.0000
  Fe  Fe256     1.0  0.64021  0.21193  0.53513  1.0000
  S   S497      1.0  0.62062  0.21554  0.41900  1.0000
  H   H1974     1.0  0.64389  0.20069  0.61134  1.0000
  H   H1975     1.0  0.44257  0.16437  0.60384  1.0000
  H   H1976     1.0  0.62571  0.16589  0.40660  1.0000
  N   N124      1.0  0.43718  0.17062  0.62778  1.0000
  N   N125      1.0  0.64089  0.17535  0.62079  1.0000
  Fe  Fe257     1.0  0.62834  0.21981  0.35701  1.0000
  H   H1977     1.0  0.50065  0.21869  0.61344  1.0000
  C   C1228     1.0  0.47815  0.21744  0.60722  1.0000
  S   S498      1.0  0.62896  0.19779  0.37866  1.0000
  H   H1978     1.0  0.65606  0.21062  0.41830  1.0000
  C   C1229     1.0  0.43814  0.18439  0.63455  1.0000
  H   H1979     1.0  0.33762  0.11777  0.44258  1.0000
  C   C1230     1.0  0.62289  0.16895  0.41906  1.0000
  H   H1980     1.0  0.43938  0.22525  0.63147  1.0000
  H   H1981     1.0  0.56574  0.20406  0.58013  1.0000
  C   C1231     1.0  0.34853  0.16233  0.35530  1.0000
  C   C1232     1.0  0.35766  0.15581  0.34131  1.0000
  C   C1233     1.0  0.36976  0.16375  0.32947  1.0000
  N   N126      1.0  0.33162  0.13879  0.42294  1.0000
  C   C1234     1.0  0.36410  0.18434  0.34596  1.0000
  C   C1235     1.0  0.35167  0.17671  0.35750  1.0000
  H   H1982     1.0  0.35531  0.14463  0.33959  1.0000
  H   H1983     1.0  0.64361  0.10548  0.62495  1.0000
  C   C1236     1.0  0.44299  0.17449  0.60947  1.0000
  N   N127      1.0  0.59106  0.20589  0.57731  1.0000
  C   C1237     1.0  0.57288  0.21167  0.58296  1.0000
  H   H1984     1.0  0.33150  0.20702  0.34139  1.0000
  H   H1985     1.0  0.56936  0.21089  0.59663  1.0000
  C   C1238     1.0  0.59621  0.18832  0.58574  1.0000
  C   C1239     1.0  0.34301  0.12825  0.43384  1.0000
  S   S499      1.0  0.32533  0.19428  0.47771  1.0000
  H   H1986     1.0  0.64040  0.19132  0.59651  1.0000
  S   S500      1.0  0.33368  0.15210  0.37023  1.0000
  C   C1240     1.0  0.47896  0.22452  0.63258  1.0000
  Fe  Fe258     1.0  0.42117  0.22483  0.60555  1.0000
  C   C1241     1.0  0.60002  0.21623  0.58149  1.0000
  C   C1242     1.0  0.32643  0.20502  0.33158  1.0000
  H   H1987     1.0  0.46115  0.15616  0.63194  1.0000
  H   H1988     1.0  0.58850  0.19982  0.55545  1.0000
  S   S501      1.0  0.32677  0.21610  0.51177  1.0000
  C   C1243     1.0  0.58604  0.19207  0.32820  1.0000
  N   N128      1.0  0.63795  0.16400  0.42615  1.0000
  Fe  Fe259     1.0  0.55184  0.22795  0.62749  1.0000
  C   C1244     1.0  0.60349  0.21268  0.33439  1.0000
  C   C1245     1.0  0.59775  0.20001  0.34720  1.0000
  C   C1246     1.0  0.58898  0.18979  0.34412  1.0000
  C   C1247     1.0  0.64890  0.21314  0.43018  1.0000
  Fe  Fe260     1.0  0.64522  0.22403  0.49715  1.0000
  H   H1989     1.0  0.59945  0.19852  0.35963  1.0000
  H   H1990     1.0  0.59630  0.22961  0.57558  1.0000
  S   S502      1.0  0.53325  0.22973  0.61254  1.0000
  H   H1991     1.0  0.35277  0.21371  0.63642  1.0000
  H   H1992     1.0  0.37306  0.20834  0.58714  1.0000
  H   H1993     1.0  0.35436  0.22354  0.53378  1.0000
  H   H1994     1.0  0.41844  0.15834  0.62720  1.0000
  H   H1995     1.0  0.65255  0.18016  0.34284  1.0000
  H   H1996     1.0  0.41127  0.18014  0.62691  1.0000
  H   H1997     1.0  0.41791  0.19318  0.33379  1.0000
  H   H1998     1.0  0.58985  0.18009  0.58276  1.0000
  H   H1999     1.0  0.59308  0.18683  0.59953  1.0000
  H   H2000     1.0  0.56605  0.22556  0.33157  1.0000
  C   C1248     1.0  0.48724  0.22021  0.61731  1.0000
  H   H2001     1.0  0.56856  0.22485  0.57679  1.0000
  H   H2002     1.0  0.33113  0.16049  0.40301  1.0000
  C   C1249     1.0  0.45263  0.22375  0.62739  1.0000
  S   S503      1.0  0.40773  0.22718  0.63138  1.0000
  C   C1250     1.0  0.37314  0.17792  0.33190  1.0000
  H   H2003     1.0  0.35523  0.12279  0.42645  1.0000
  H   H2004     1.0  0.58407  0.18038  0.35421  1.0000
  H   H2005     1.0  0.60875  0.20288  0.55442  1.0000
  H   H2006     1.0  0.33239  0.22743  0.57824  1.0000
  C   C1251     1.0  0.35679  0.20480  0.55617  1.0000
  C   C1252     1.0  0.36246  0.20049  0.57106  1.0000
  C   C1253     1.0  0.36899  0.21171  0.57552  1.0000
  H   H2007     1.0  0.34052  0.12380  0.40448  1.0000
  C   C1254     1.0  0.46073  0.21943  0.61216  1.0000
  C   C1255     1.0  0.37005  0.22734  0.56503  1.0000
  H   H2008     1.0  0.36161  0.18846  0.57929  1.0000
  H   H2009     1.0  0.65580  0.14169  0.43339  1.0000
  H   H2010     1.0  0.61953  0.19166  0.63248  1.0000
  H   H2011     1.0  0.46273  0.19041  0.31171  1.0000
  C   C1256     1.0  0.63361  0.16839  0.44259  1.0000
  H   H2012     1.0  0.59730  0.21530  0.59518  1.0000
  H   H2013     1.0  0.45114  0.18627  0.63158  1.0000
  C   C1257     1.0  0.63148  0.21591  0.43372  1.0000
  C   C1258     1.0  0.62243  0.21915  0.44929  1.0000
  C   C1259     1.0  0.63068  0.21993  0.46114  1.0000
  S   S504      1.0  0.57316  0.18050  0.32530  1.0000
  H   H2014     1.0  0.60895  0.22129  0.45217  1.0000
  H   H2015     1.0  0.62357  0.22264  0.47304  1.0000
  H   H2016     1.0  0.35547  0.21490  0.31887  1.0000
  H   H2017     1.0  0.36668  0.19529  0.34792  1.0000
  H   H2018     1.0  0.61554  0.18281  0.61758  1.0000
  H   H2019     1.0  0.34552  0.13558  0.44150  1.0000
  H   H2020     1.0  0.63843  0.16204  0.60390  1.0000
  H   H2021     1.0  0.64631  0.18656  0.41343  1.0000
  H   H2022     1.0  0.61770  0.18263  0.41743  1.0000
  H   H2023     1.0  0.43517  0.18618  0.60361  1.0000
  H   H2024     1.0  0.34113  0.16083  0.41881  1.0000
  C   C1260     1.0  0.64449  0.16002  0.61446  1.0000
  H   H2025     1.0  0.61285  0.16258  0.42725  1.0000
  H   H2026     1.0  0.37670  0.15868  0.31868  1.0000
  H   H2027     1.0  0.43064  0.20662  0.33429  1.0000
  C   C1261     1.0  0.64659  0.18885  0.60710  1.0000
  Fe  Fe261     1.0  0.65664  0.19324  0.36890  1.0000
  C   C1262     1.0  0.64448  0.14584  0.42799  1.0000
  C   C1263     1.0  0.46168  0.22606  0.63763  1.0000
  H   H2028     1.0  0.64475  0.16532  0.44812  1.0000
  S   S505      1.0  0.38846  0.18805  0.31767  1.0000
  Fe  Fe262     1.0  0.32836  0.19741  0.53590  1.0000
  H   H2029     1.0  0.33118  0.19282  0.44346  1.0000
  H   H2030     1.0  0.62412  0.16172  0.45154  1.0000
  C   C1264     1.0  0.64621  0.11106  0.63361  1.0000
  S   S506      1.0  0.65585  0.21390  0.34629  1.0000
  C   C1265     1.0  0.65082  0.17287  0.41488  1.0000
  S   S507      1.0  0.61175  0.22766  0.33838  1.0000
  H   H2031     1.0  0.55342  0.21667  0.32421  1.0000
  H   H2032     1.0  0.63504  0.13871  0.43628  1.0000
  H   H2033     1.0  0.54395  0.22947  0.33924  1.0000
  H   H2034     1.0  0.32477  0.22684  0.55221  1.0000
  N   N129      1.0  0.33098  0.21647  0.31546  1.0000
  N   N130      1.0  0.43654  0.19822  0.31146  1.0000
  H   H2035     1.0  0.44569  0.17219  0.31100  1.0000
  H   H2036     1.0  0.45426  0.21231  0.31068  1.0000
  H   H2037     1.0  0.42403  0.17994  0.31047  1.0000
  H   H2038     1.0  0.33323  0.18105  0.69294  1.0000
  H   H2039     1.0  0.59514  0.17761  0.67969  1.0000
  C   C1266     1.0  0.63649  0.12762  0.65472  1.0000
  C   C1267     1.0  0.32581  0.19830  0.67131  1.0000
  C   C1268     1.0  0.58962  0.18958  0.67291  1.0000
  C   C1269     1.0  0.32531  0.14332  0.77461  1.0000
  N   N131      1.0  0.38073  0.22398  0.81307  1.0000
  C   C1270     1.0  0.32852  0.22507  0.80775  1.0000
  H   H2040     1.0  0.61247  0.22047  0.70856  1.0000
  H   H2041     1.0  0.45516  0.22933  0.64942  1.0000
  C   C1271     1.0  0.36129  0.22598  0.68850  1.0000
  H   H2042     1.0  0.43355  0.18215  0.64829  1.0000
  Fe  Fe263     1.0  0.61177  0.17944  0.70092  1.0000
  S   S508      1.0  0.62963  0.17794  0.67653  1.0000
  S   S509      1.0  0.59134  0.20243  0.69830  1.0000
  Fe  Fe264     1.0  0.63084  0.14646  0.71862  1.0000
  H   H2043     1.0  0.34338  0.21810  0.78497  1.0000
  C   C1272     1.0  0.34856  0.20669  0.64879  1.0000
  C   C1273     1.0  0.58635  0.19074  0.65742  1.0000
  S   S510      1.0  0.63168  0.17321  0.71548  1.0000
  S   S511      1.0  0.60865  0.15308  0.70692  1.0000
  H   H2044     1.0  0.45317  0.23181  0.69357  1.0000
  Fe  Fe265     1.0  0.62759  0.15123  0.68318  1.0000
  C   C1274     1.0  0.32760  0.23104  0.74948  1.0000
  C   C1275     1.0  0.65513  0.11517  0.78610  1.0000
  H   H2045     1.0  0.58930  0.17967  0.65246  1.0000
  H   H2046     1.0  0.57415  0.22990  0.67635  1.0000
  C   C1276     1.0  0.33742  0.18829  0.68069  1.0000
  H   H2047     1.0  0.36665  0.22384  0.79589  1.0000
  H   H2048     1.0  0.56836  0.23195  0.64895  1.0000
  H   H2049     1.0  0.33865  0.18938  0.79348  1.0000
  H   H2050     1.0  0.64275  0.09314  0.75950  1.0000
  C   C1277     1.0  0.33554  0.21418  0.79691  1.0000
  H   H2051     1.0  0.62227  0.21852  0.68768  1.0000
  C   C1278     1.0  0.39422  0.23027  0.79981  1.0000
  H   H2052     1.0  0.64622  0.14760  0.77289  1.0000
  S   S512      1.0  0.63309  0.12711  0.74239  1.0000
  C   C1279     1.0  0.37223  0.21528  0.80626  1.0000
  C   C1280     1.0  0.33279  0.19791  0.80173  1.0000
  H   H2053     1.0  0.64606  0.21598  0.84014  1.0000
  H   H2054     1.0  0.38097  0.20459  0.80132  1.0000
  H   H2055     1.0  0.39699  0.20136  0.82262  1.0000
  H   H2056     1.0  0.39026  0.22177  0.66641  1.0000
  S   S513      1.0  0.38172  0.19560  0.65034  1.0000
  S   S514      1.0  0.53263  0.23150  0.65085  1.0000
  H   H2057     1.0  0.36467  0.22942  0.65561  1.0000
  C   C1281     1.0  0.36018  0.19663  0.65815  1.0000
  H   H2058     1.0  0.65450  0.19971  0.86643  1.0000
  H   H2059     1.0  0.37791  0.20731  0.83709  1.0000
  Fe  Fe266     1.0  0.64926  0.16959  0.69140  1.0000
  C   C1282     1.0  0.57758  0.21895  0.67113  1.0000
  C   C1283     1.0  0.38784  0.21223  0.82689  1.0000
  S   S515      1.0  0.64968  0.14245  0.69519  1.0000
  H   H2060     1.0  0.32756  0.12971  0.77525  1.0000
  H   H2061     1.0  0.39194  0.23209  0.68135  1.0000
  H   H2062     1.0  0.40353  0.22004  0.79456  1.0000
  H   H2063     1.0  0.33739  0.14640  0.77385  1.0000
  H   H2064     1.0  0.64568  0.16210  0.64484  1.0000
  H   H2065     1.0  0.36350  0.17956  0.68138  1.0000
  H   H2066     1.0  0.41480  0.16591  0.64583  1.0000
  S   S516      1.0  0.48963  0.22779  0.64592  1.0000
  C   C1284     1.0  0.57426  0.22011  0.65562  1.0000
  H   H2067     1.0  0.65603  0.13697  0.75624  1.0000
  H   H2068     1.0  0.44386  0.15179  0.64879  1.0000
  H   H2069     1.0  0.65563  0.13282  0.66322  1.0000
  C   C1285     1.0  0.35457  0.18740  0.67409  1.0000
  C   C1286     1.0  0.58554  0.20371  0.67970  1.0000
  H   H2070     1.0  0.63344  0.22353  0.70002  1.0000
  H   H2071     1.0  0.34746  0.22925  0.69188  1.0000
  S   S517      1.0  0.62026  0.14056  0.66567  1.0000
  C   C1287     1.0  0.65294  0.12647  0.65527  1.0000
  H   H2072     1.0  0.36483  0.21372  0.68485  1.0000
  H   H2073     1.0  0.39442  0.21834  0.83231  1.0000
  H   H2074     1.0  0.65177  0.11065  0.77671  1.0000
  H   H2075     1.0  0.33022  0.14357  0.80439  1.0000
  H   H2076     1.0  0.64327  0.12120  0.79354  1.0000
  H   H2077     1.0  0.36588  0.22431  0.69996  1.0000
  C   C1288     1.0  0.65236  0.11281  0.74062  1.0000
  C   C1289     1.0  0.65628  0.20521  0.83995  1.0000
  C   C1290     1.0  0.33143  0.20744  0.65532  1.0000
  H   H2078     1.0  0.47412  0.22577  0.68201  1.0000
  H   H2079     1.0  0.36187  0.21044  0.81587  1.0000
  C   C1291     1.0  0.62097  0.22583  0.69710  1.0000
  C   C1292     1.0  0.65369  0.09679  0.75082  1.0000
  C   C1293     1.0  0.57879  0.20603  0.64867  1.0000
  C   C1294     1.0  0.63307  0.11959  0.64420  1.0000
  H   H2080     1.0  0.62029  0.12052  0.64376  1.0000
  H   H2081     1.0  0.37704  0.32164  0.19822  1.0000
  C   C1295     1.0  0.63293  0.25121  0.05032  1.0000
  Fe  Fe267     1.0  0.57217  0.28535  0.17981  1.0000
  S   S518      1.0  0.55191  0.30708  0.18607  1.0000
  S   S519      1.0  0.58577  0.26476  0.19695  1.0000
  Fe  Fe268     1.0  0.57500  0.29744  0.14279  1.0000
  S   S520      1.0  0.55471  0.32034  0.14568  1.0000
  S   S521      1.0  0.59170  0.29341  0.11816  1.0000
  Fe  Fe269     1.0  0.56712  0.32252  0.16487  1.0000
  S   S522      1.0  0.57592  0.34579  0.16327  1.0000
  Fe  Fe270     1.0  0.54106  0.30290  0.16651  1.0000
  S   S523      1.0  0.51310  0.30339  0.17358  1.0000
  S   S524      1.0  0.58820  0.30093  0.16030  1.0000
  S   S525      1.0  0.56048  0.27982  0.16204  1.0000
  Fe  Fe271     1.0  0.62245  0.41271  0.21299  1.0000
  S   S526      1.0  0.60841  0.39798  0.23601  1.0000
  S   S527      1.0  0.64376  0.37482  0.26340  1.0000
  H   H2082     1.0  0.54432  0.24570  0.21868  1.0000
  C   C1296     1.0  0.38158  0.25986  0.20748  1.0000
  Fe  Fe272     1.0  0.61104  0.38011  0.21983  1.0000
  S   S528      1.0  0.58997  0.36728  0.22272  1.0000
  H   H2083     1.0  0.63491  0.25597  0.03659  1.0000
  S   S529      1.0  0.62305  0.39602  0.19641  1.0000
  H   H2084     1.0  0.34481  0.30926  0.21770  1.0000
  H   H2085     1.0  0.61547  0.31218  0.21910  1.0000
  H   H2086     1.0  0.45885  0.33352  0.13502  1.0000
  C   C1297     1.0  0.62219  0.45268  0.21349  1.0000
  H   H2087     1.0  0.55752  0.41724  0.23040  1.0000
  H   H2088     1.0  0.63090  0.28627  0.18747  1.0000
  S   S530      1.0  0.64772  0.40003  0.21825  1.0000
  C   C1298     1.0  0.56407  0.40874  0.22174  1.0000
  H   H2089     1.0  0.34101  0.34015  0.17790  1.0000
  H   H2090     1.0  0.50960  0.28204  0.20914  1.0000
  S   S531      1.0  0.63526  0.36479  0.22605  1.0000
  H   H2091     1.0  0.64551  0.24710  0.05328  1.0000
  C   C1299     1.0  0.35231  0.30482  0.20628  1.0000
  H   H2092     1.0  0.37650  0.26720  0.19679  1.0000
  S   S532      1.0  0.35118  0.37311  0.16324  1.0000
  H   H2093     1.0  0.36656  0.34007  0.18584  1.0000
  H   H2094     1.0  0.62199  0.31662  0.18015  1.0000
  Fe  Fe273     1.0  0.44265  0.27707  0.14749  1.0000
  S   S533      1.0  0.42428  0.29904  0.15596  1.0000
  S   S534      1.0  0.47069  0.27618  0.13983  1.0000
  Fe  Fe274     1.0  0.41467  0.25972  0.14857  1.0000
  S   S535      1.0  0.39437  0.28035  0.15741  1.0000
  H   H2095     1.0  0.61936  0.27753  0.14135  1.0000
  Fe  Fe275     1.0  0.40970  0.29742  0.13857  1.0000
  S   S536      1.0  0.39745  0.32007  0.12201  1.0000
  Fe  Fe276     1.0  0.41075  0.28006  0.17395  1.0000
  S   S537      1.0  0.40078  0.28280  0.20033  1.0000
  S   S538      1.0  0.42900  0.27686  0.12835  1.0000
  S   S539      1.0  0.43006  0.25792  0.16694  1.0000
  C   C1300     1.0  0.61785  0.28607  0.19450  1.0000
  Fe  Fe277     1.0  0.64710  0.38200  0.20394  1.0000
  H   H2096     1.0  0.57457  0.43768  0.21167  1.0000
  C   C1301     1.0  0.36455  0.32904  0.19609  1.0000
  H   H2097     1.0  0.52081  0.24715  0.18754  1.0000
  C   C1302     1.0  0.39403  0.23881  0.13326  1.0000
  H   H2098     1.0  0.62717  0.40930  0.26237  1.0000
  H   H2099     1.0  0.58422  0.43561  0.19065  1.0000
  C   C1303     1.0  0.36514  0.31239  0.17721  1.0000
  C   C1304     1.0  0.37388  0.25611  0.11681  1.0000
  C   C1305     1.0  0.38540  0.25456  0.12647  1.0000
  C   C1306     1.0  0.65458  0.41557  0.28132  1.0000
  H   H2100     1.0  0.55591  0.40014  0.22279  1.0000
  H   H2101     1.0  0.36735  0.26839  0.11159  1.0000
  H   H2102     1.0  0.38764  0.26559  0.12860  1.0000
  C   C1307     1.0  0.38476  0.33531  0.13291  1.0000
  C   C1308     1.0  0.39068  0.34003  0.14425  1.0000
  C   C1309     1.0  0.38046  0.35214  0.15298  1.0000
  C   C1310     1.0  0.36410  0.35921  0.15084  1.0000
  C   C1311     1.0  0.35816  0.35453  0.13949  1.0000
  C   C1312     1.0  0.36859  0.34276  0.13036  1.0000
  H   H2103     1.0  0.40318  0.33446  0.14617  1.0000
  H   H2104     1.0  0.38514  0.35586  0.16163  1.0000
  H   H2105     1.0  0.34556  0.35996  0.13775  1.0000
  H   H2106     1.0  0.36400  0.33917  0.12154  1.0000
  H   H2107     1.0  0.62750  0.27431  0.15949  1.0000
  H   H2108     1.0  0.33178  0.32223  0.18545  1.0000
  H   H2109     1.0  0.56851  0.39794  0.19388  1.0000
  C   C1313     1.0  0.39366  0.26485  0.21206  1.0000
  N   N132      1.0  0.52381  0.25750  0.20656  1.0000
  H   H2110     1.0  0.53343  0.23580  0.30677  1.0000
  H   H2111     1.0  0.58043  0.41280  0.18019  1.0000
  H   H2112     1.0  0.59171  0.42078  0.20766  1.0000
  C   C1314     1.0  0.50158  0.29592  0.16382  1.0000
  C   C1315     1.0  0.50910  0.28868  0.15004  1.0000
  C   C1316     1.0  0.49949  0.28261  0.14293  1.0000
  C   C1317     1.0  0.48230  0.28361  0.14956  1.0000
  C   C1318     1.0  0.47481  0.29075  0.16341  1.0000
  C   C1319     1.0  0.48440  0.29688  0.17047  1.0000
  H   H2113     1.0  0.52230  0.28780  0.14481  1.0000
  H   H2114     1.0  0.50542  0.27709  0.13223  1.0000
  H   H2115     1.0  0.46162  0.29154  0.16871  1.0000
  H   H2116     1.0  0.47846  0.30239  0.18117  1.0000
  C   C1320     1.0  0.60374  0.27327  0.11724  1.0000
  C   C1321     1.0  0.61648  0.27103  0.10318  1.0000
  C   C1322     1.0  0.62636  0.25514  0.10205  1.0000
  H   H2117     1.0  0.63899  0.31371  0.13255  1.0000
  C   C1323     1.0  0.61059  0.24356  0.12889  1.0000
  C   C1324     1.0  0.60090  0.25953  0.13019  1.0000
  H   H2118     1.0  0.61868  0.28163  0.09313  1.0000
  H   H2119     1.0  0.63597  0.25361  0.09109  1.0000
  C   C1325     1.0  0.57711  0.24270  0.22568  1.0000
  H   H2120     1.0  0.59105  0.26116  0.14105  1.0000
  C   C1326     1.0  0.58019  0.35090  0.18009  1.0000
  C   C1327     1.0  0.57185  0.34578  0.19652  1.0000
  C   C1328     1.0  0.57513  0.35072  0.20950  1.0000
  C   C1329     1.0  0.58705  0.36044  0.20621  1.0000
  C   C1330     1.0  0.59581  0.36503  0.18986  1.0000
  C   C1331     1.0  0.59217  0.36052  0.17684  1.0000
  H   H2121     1.0  0.56253  0.33846  0.19915  1.0000
  H   H2122     1.0  0.56828  0.34716  0.22212  1.0000
  H   H2123     1.0  0.60520  0.37227  0.18716  1.0000
  H   H2124     1.0  0.59876  0.36442  0.16416  1.0000
  C   C1332     1.0  0.55423  0.24931  0.24857  1.0000
  H   H2125     1.0  0.37772  0.30512  0.17907  1.0000
  C   C1333     1.0  0.65655  0.28324  0.14351  1.0000
  C   C1334     1.0  0.57369  0.25919  0.21687  1.0000
  C   C1335     1.0  0.56057  0.27084  0.22393  1.0000
  C   C1336     1.0  0.55096  0.26592  0.23989  1.0000
  H   H2126     1.0  0.54695  0.43798  0.20708  1.0000
  H   H2127     1.0  0.65352  0.28272  0.15711  1.0000
  H   H2128     1.0  0.55798  0.28364  0.21723  1.0000
  H   H2129     1.0  0.54091  0.27493  0.24545  1.0000
  C   C1337     1.0  0.45193  0.32542  0.13261  1.0000
  C   C1338     1.0  0.57676  0.40626  0.19338  1.0000
  H   H2130     1.0  0.32938  0.26917  0.08581  1.0000
  H   H2131     1.0  0.45573  0.31266  0.14007  1.0000
  H   H2132     1.0  0.47812  0.30675  0.11567  1.0000
  C   C1339     1.0  0.55339  0.42885  0.19903  1.0000
  N   N133      1.0  0.64131  0.28722  0.13689  1.0000
  C   C1340     1.0  0.54107  0.24781  0.20643  1.0000
  C   C1341     1.0  0.64739  0.33821  0.18133  1.0000
  C   C1342     1.0  0.60748  0.24330  0.05152  1.0000
  C   C1343     1.0  0.64597  0.28699  0.11898  1.0000
  H   H2133     1.0  0.55278  0.26888  0.30933  1.0000
  C   C1344     1.0  0.51973  0.25941  0.19034  1.0000
  H   H2134     1.0  0.63267  0.43116  0.27290  1.0000
  H   H2135     1.0  0.55643  0.43606  0.18600  1.0000
  H   H2136     1.0  0.65385  0.29616  0.11179  1.0000
  H   H2137     1.0  0.36431  0.29680  0.20919  1.0000
  C   C1345     1.0  0.47356  0.31960  0.10874  1.0000
  H   H2138     1.0  0.59338  0.28830  0.22190  1.0000
  S   S540      1.0  0.61503  0.44062  0.20427  1.0000
  C   C1346     1.0  0.59335  0.29972  0.21174  1.0000
  H   H2139     1.0  0.57535  0.40088  0.22631  1.0000
  H   H2140     1.0  0.63471  0.33744  0.18238  1.0000
  H   H2141     1.0  0.51287  0.23608  0.21812  1.0000
  C   C1347     1.0  0.40025  0.25531  0.22585  1.0000
  H   H2142     1.0  0.54284  0.23535  0.20373  1.0000
  H   H2143     1.0  0.59981  0.25379  0.05750  1.0000
  H   H2144     1.0  0.63367  0.30244  0.20602  1.0000
  C   C1348     1.0  0.52231  0.27414  0.20954  1.0000
  H   H2145     1.0  0.48082  0.32779  0.11047  1.0000
  H   H2146     1.0  0.62602  0.26181  0.05642  1.0000
  C   C1349     1.0  0.63160  0.30397  0.13913  1.0000
  H   H2147     1.0  0.54438  0.42133  0.19956  1.0000
  C   C1350     1.0  0.58020  0.42852  0.20354  1.0000
  C   C1351     1.0  0.62784  0.44569  0.22828  1.0000
  H   H2148     1.0  0.35889  0.30410  0.17416  1.0000
  S   S541      1.0  0.54188  0.24289  0.26819  1.0000
  H   H2149     1.0  0.32780  0.24294  0.30567  1.0000
  H   H2150     1.0  0.58732  0.31075  0.21743  1.0000
  N   N134      1.0  0.45544  0.32540  0.11472  1.0000
  H   H2151     1.0  0.43271  0.31778  0.11703  1.0000
  H   H2152     1.0  0.64007  0.36206  0.18803  1.0000
  H   H2153     1.0  0.45233  0.34289  0.09175  1.0000
  C   C1352     1.0  0.33913  0.32941  0.18861  1.0000
  H   H2154     1.0  0.63470  0.29010  0.11361  1.0000
  H   H2155     1.0  0.44844  0.31393  0.09890  1.0000
  S   S542      1.0  0.35610  0.24488  0.10151  1.0000
  H   H2156     1.0  0.45061  0.30103  0.11891  1.0000
  H   H2157     1.0  0.62769  0.43279  0.23427  1.0000
  N   N135      1.0  0.35526  0.31892  0.19205  1.0000
  H   H2158     1.0  0.63742  0.45012  0.24710  1.0000
  H   H2159     1.0  0.58827  0.39803  0.19712  1.0000
  H   H2160     1.0  0.49898  0.25573  0.22046  1.0000
  H   H2161     1.0  0.47669  0.31928  0.09531  1.0000
  C   C1353     1.0  0.44640  0.31406  0.11228  1.0000
  N   N136      1.0  0.56859  0.41810  0.20442  1.0000
  C   C1354     1.0  0.63336  0.45550  0.23553  1.0000
  H   H2162     1.0  0.61771  0.47504  0.19460  1.0000
  H   H2163     1.0  0.62003  0.30746  0.13417  1.0000
  H   H2164     1.0  0.34553  0.29676  0.20361  1.0000
  H   H2165     1.0  0.62190  0.28981  0.22310  1.0000
  H   H2166     1.0  0.32957  0.27296  0.11326  1.0000
  C   C1355     1.0  0.63108  0.27470  0.14590  1.0000
  H   H2167     1.0  0.51490  0.24702  0.23239  1.0000
  C   C1356     1.0  0.60967  0.31609  0.18874  1.0000
  H   H2168     1.0  0.60069  0.31703  0.18108  1.0000
  H   H2169     1.0  0.40966  0.25915  0.22934  1.0000
  C   C1357     1.0  0.62212  0.46954  0.20601  1.0000
  C   C1358     1.0  0.65041  0.35221  0.18450  1.0000
  H   H2170     1.0  0.45619  0.35140  0.10703  1.0000
  H   H2171     1.0  0.43609  0.34699  0.10948  1.0000
  C   C1359     1.0  0.44980  0.34244  0.10532  1.0000
  H   H2172     1.0  0.63796  0.26198  0.14424  1.0000
  H   H2173     1.0  0.43839  0.32992  0.13753  1.0000
  C   C1360     1.0  0.62080  0.30130  0.21308  1.0000
  Fe  Fe278     1.0  0.63391  0.38395  0.23997  1.0000
  S   S543      1.0  0.33210  0.23670  0.07414  1.0000
  H   H2174     1.0  0.52490  0.27324  0.22183  1.0000
  H   H2175     1.0  0.52815  0.26627  0.17997  1.0000
  C   C1361     1.0  0.62798  0.47928  0.21312  1.0000
  C   C1362     1.0  0.63369  0.47223  0.22788  1.0000
  C   C1363     1.0  0.37089  0.24198  0.11371  1.0000
  N   N137      1.0  0.61042  0.30078  0.20203  1.0000
  C   C1364     1.0  0.63773  0.40659  0.26810  1.0000
  C   C1365     1.0  0.51212  0.24868  0.21998  1.0000
  H   H2176     1.0  0.61055  0.28558  0.18577  1.0000
  C   C1366     1.0  0.62338  0.24134  0.11483  1.0000
  H   H2177     1.0  0.60580  0.32742  0.19402  1.0000
  C   C1367     1.0  0.56723  0.23771  0.24137  1.0000
  H   H2178     1.0  0.53122  0.28098  0.19984  1.0000
  H   H2179     1.0  0.61425  0.24139  0.08086  1.0000
  H   H2180     1.0  0.36647  0.24166  0.21335  1.0000
  N   N138      1.0  0.62401  0.23737  0.05590  1.0000
  C   C1368     1.0  0.37593  0.24543  0.21683  1.0000
  H   H2181     1.0  0.61809  0.27425  0.20415  1.0000
  H   H2182     1.0  0.58527  0.29920  0.20373  1.0000
  C   C1369     1.0  0.56483  0.24007  0.29915  1.0000
  H   H2183     1.0  0.35766  0.33385  0.20747  1.0000
  C   C1370     1.0  0.64791  0.39061  0.27009  1.0000
  S   S544      1.0  0.40850  0.23647  0.14564  1.0000
  H   H2184     1.0  0.56330  0.25080  0.28840  1.0000
  H   H2185     1.0  0.36698  0.32263  0.16607  1.0000
  H   H2186     1.0  0.50676  0.26666  0.19004  1.0000
  C   C1371     1.0  0.64088  0.41896  0.27401  1.0000
  H   H2187     1.0  0.33137  0.33471  0.19948  1.0000
  H   H2188     1.0  0.62787  0.30460  0.15250  1.0000
  H   H2189     1.0  0.60868  0.24781  0.03782  1.0000
  Fe  Fe279     1.0  0.32437  0.38267  0.16082  1.0000
  H   H2190     1.0  0.53352  0.25751  0.30020  1.0000
  H   H2191     1.0  0.65318  0.27448  0.11684  1.0000
  S   S545      1.0  0.65667  0.30749  0.17386  1.0000
  H   H2192     1.0  0.55032  0.25439  0.19688  1.0000
  C   C1372     1.0  0.39507  0.24051  0.23481  1.0000
  H   H2193     1.0  0.57763  0.23804  0.30116  1.0000
  C   C1373     1.0  0.38291  0.23556  0.23028  1.0000
  H   H2194     1.0  0.60037  0.23319  0.05566  1.0000
  H   H2195     1.0  0.58721  0.23365  0.22024  1.0000
  H   H2196     1.0  0.32458  0.45344  0.17805  1.0000
  H   H2197     1.0  0.52522  0.24886  0.32167  1.0000
  H   H2198     1.0  0.54854  0.30893  0.60759  1.0000
  H   H2199     1.0  0.63580  0.28781  0.41574  1.0000
  S   S546      1.0  0.63053  0.23737  0.37136  1.0000
  N   N139      1.0  0.52197  0.31406  0.61721  1.0000
  H   H2200     1.0  0.63261  0.25116  0.42939  1.0000
  S   S547      1.0  0.63125  0.24990  0.49928  1.0000
  C   C1374     1.0  0.62387  0.40446  0.34856  1.0000
  H   H2201     1.0  0.45804  0.26618  0.57951  1.0000
  H   H2202     1.0  0.32990  0.23625  0.32701  1.0000
  H   H2203     1.0  0.65639  0.26022  0.38572  1.0000
  H   H2204     1.0  0.45772  0.25733  0.60114  1.0000
  C   C1375     1.0  0.50994  0.30850  0.63254  1.0000
  H   H2205     1.0  0.55051  0.25851  0.52591  1.0000
  C   C1376     1.0  0.43646  0.28323  0.63948  1.0000
  H   H2206     1.0  0.54231  0.30798  0.62961  1.0000
  H   H2207     1.0  0.56680  0.26039  0.57659  1.0000
  H   H2208     1.0  0.56663  0.25507  0.32215  1.0000
  H   H2209     1.0  0.42418  0.25592  0.62515  1.0000
  S   S548      1.0  0.55400  0.25471  0.61853  1.0000
  C   C1377     1.0  0.48637  0.26399  0.60173  1.0000
  H   H2210     1.0  0.54055  0.29151  0.62147  1.0000
  H   H2211     1.0  0.52912  0.26914  0.54882  1.0000
  H   H2212     1.0  0.64287  0.27989  0.38835  1.0000
  C   C1378     1.0  0.42313  0.26624  0.63062  1.0000
  H   H2213     1.0  0.50540  0.31652  0.60136  1.0000
  C   C1379     1.0  0.64992  0.40922  0.35030  1.0000
  H   H2214     1.0  0.61552  0.40517  0.34029  1.0000
  H   H2215     1.0  0.48107  0.28063  0.56217  1.0000
  H   H2216     1.0  0.64364  0.41751  0.35921  1.0000
  C   C1380     1.0  0.54645  0.26520  0.56436  1.0000
  C   C1381     1.0  0.63545  0.25642  0.41573  1.0000
  N   N140      1.0  0.65013  0.26411  0.41069  1.0000
  H   H2217     1.0  0.54462  0.25995  0.33073  1.0000
  Fe  Fe280     1.0  0.53356  0.25695  0.60581  1.0000
  H   H2218     1.0  0.52709  0.31441  0.59107  1.0000
  S   S549      1.0  0.38926  0.27252  0.63237  1.0000
  H   H2219     1.0  0.49655  0.26309  0.56948  1.0000
  S   S550      1.0  0.58539  0.24562  0.52148  1.0000
  C   C1382     1.0  0.57091  0.25366  0.53799  1.0000
  H   H2220     1.0  0.62674  0.39127  0.35549  1.0000
  H   H2221     1.0  0.51003  0.29508  0.63466  1.0000
  C   C1383     1.0  0.64672  0.27803  0.41910  1.0000
  Fe  Fe281     1.0  0.39335  0.25136  0.61958  1.0000
  C   C1384     1.0  0.57552  0.25443  0.55222  1.0000
  C   C1385     1.0  0.43751  0.26955  0.63292  1.0000
  C   C1386     1.0  0.46568  0.28771  0.59223  1.0000
  H   H2222     1.0  0.58852  0.25088  0.55287  1.0000
  N   N141      1.0  0.47651  0.27175  0.58876  1.0000
  H   H2223     1.0  0.61673  0.41217  0.35783  1.0000
  S   S551      1.0  0.37711  0.24230  0.57059  1.0000
  S   S552      1.0  0.51307  0.26322  0.62736  1.0000
  H   H2224     1.0  0.49441  0.27220  0.60186  1.0000
  N   N142      1.0  0.63928  0.41018  0.33888  1.0000
  H   H2225     1.0  0.50761  0.33923  0.61346  1.0000
  H   H2226     1.0  0.47313  0.29648  0.59245  1.0000
  H   H2227     1.0  0.45800  0.29397  0.58273  1.0000
  C   C1387     1.0  0.63495  0.42761  0.32969  1.0000
  C   C1388     1.0  0.54201  0.26495  0.54991  1.0000
  H   H2228     1.0  0.45694  0.28582  0.60458  1.0000
  C   C1389     1.0  0.51833  0.31028  0.60289  1.0000
  H   H2229     1.0  0.64396  0.27364  0.43290  1.0000
  H   H2230     1.0  0.47823  0.26153  0.61439  1.0000
  C   C1390     1.0  0.56324  0.25990  0.56556  1.0000
  H   H2231     1.0  0.49607  0.28333  0.57193  1.0000
  H   H2232     1.0  0.52322  0.33539  0.62509  1.0000
  H   H2233     1.0  0.62738  0.43599  0.33821  1.0000
  C   C1391     1.0  0.53911  0.30526  0.61900  1.0000
  H   H2234     1.0  0.51960  0.29664  0.60447  1.0000
  C   C1392     1.0  0.46609  0.26048  0.58875  1.0000
  S   S553      1.0  0.53073  0.27243  0.58057  1.0000
  C   C1393     1.0  0.48800  0.27487  0.57234  1.0000
  S   S554      1.0  0.40776  0.24989  0.59361  1.0000
  S   S555      1.0  0.45502  0.28776  0.64077  1.0000
  N   N143      1.0  0.55202  0.24299  0.31427  1.0000
  H   H2235     1.0  0.64067  0.39968  0.31823  1.0000
  H   H2236     1.0  0.62777  0.42869  0.32022  1.0000
  H   H2237     1.0  0.52928  0.33694  0.60297  1.0000
  S   S556      1.0  0.62596  0.23697  0.54015  1.0000
  Fe  Fe282     1.0  0.53347  0.25843  0.64092  1.0000
  C   C1394     1.0  0.40749  0.27640  0.63523  1.0000
  C   C1395     1.0  0.52050  0.33221  0.61448  1.0000
  H   H2238     1.0  0.49696  0.31559  0.63211  1.0000
  H   H2239     1.0  0.63750  0.24606  0.40935  1.0000
  C   C1396     1.0  0.55413  0.25897  0.53691  1.0000
  H   H2240     1.0  0.64635  0.43253  0.32289  1.0000
  Fe  Fe283     1.0  0.38870  0.23619  0.59309  1.0000
  H   H2241     1.0  0.33448  0.24862  0.57014  1.0000
  H   H2242     1.0  0.44950  0.26157  0.62947  1.0000
  H   H2243     1.0  0.65230  0.38624  0.33336  1.0000
  H   H2244     1.0  0.47388  0.24854  0.58561  1.0000
  H   H2245     1.0  0.36566  0.24350  0.54169  1.0000
  C   C1397     1.0  0.64840  0.39944  0.32692  1.0000
  H   H2246     1.0  0.62410  0.26558  0.41257  1.0000
  H   H2247     1.0  0.32808  0.24773  0.54418  1.0000
  H   H2248     1.0  0.49473  0.25192  0.59954  1.0000
  Fe  Fe284     1.0  0.64544  0.24675  0.51882  1.0000
  C   C1398     1.0  0.65366  0.27045  0.39246  1.0000
  H   H2249     1.0  0.65316  0.39633  0.35775  1.0000
  S   S557      1.0  0.37298  0.24003  0.61816  1.0000
  C   C1399     1.0  0.55406  0.25739  0.31934  1.0000
  Fe  Fe285     1.0  0.51413  0.23582  0.63509  1.0000
  C   C1400     1.0  0.32463  0.23386  0.31755  1.0000
  C   C1401     1.0  0.32532  0.24061  0.57702  1.0000
  Fe  Fe286     1.0  0.61307  0.23772  0.52032  1.0000
  C   C1402     1.0  0.40636  0.28981  0.64227  1.0000
  H   H2250     1.0  0.65761  0.28407  0.41558  1.0000
  C   C1403     1.0  0.53528  0.24648  0.31063  1.0000
  S   S558      1.0  0.65756  0.26763  0.51700  1.0000
  C   C1404     1.0  0.42081  0.29326  0.64434  1.0000
  Fe  Fe287     1.0  0.59200  0.30925  0.67837  1.0000
  S   S559      1.0  0.57543  0.29919  0.70207  1.0000
  S   S560      1.0  0.45117  0.33402  0.64660  1.0000
  Fe  Fe288     1.0  0.59544  0.33765  0.69194  1.0000
  S   S561      1.0  0.57875  0.32944  0.71667  1.0000
  S   S562      1.0  0.60558  0.36147  0.68482  1.0000
  Fe  Fe289     1.0  0.59332  0.30357  0.71441  1.0000
  S   S563      1.0  0.60099  0.28256  0.73533  1.0000
  Fe  Fe290     1.0  0.56258  0.32580  0.70161  1.0000
  S   S564      1.0  0.53431  0.33279  0.70792  1.0000
  S   S565      1.0  0.61102  0.31187  0.69060  1.0000
  S   S566      1.0  0.57809  0.33584  0.67699  1.0000
  C   C1405     1.0  0.65536  0.47243  0.75183  1.0000
  S   S567      1.0  0.64470  0.43520  0.71533  1.0000
  H   H2251     1.0  0.45526  0.27586  0.68817  1.0000
  H   H2252     1.0  0.65557  0.26861  0.79540  1.0000
  H   H2253     1.0  0.53603  0.39875  0.71266  1.0000
  H   H2254     1.0  0.55057  0.40920  0.69647  1.0000
  H   H2255     1.0  0.65163  0.39326  0.67021  1.0000
  S   S568      1.0  0.63502  0.38771  0.73145  1.0000
  H   H2256     1.0  0.36351  0.24758  0.80901  1.0000
  C   C1406     1.0  0.50271  0.29356  0.69603  1.0000
  H   H2257     1.0  0.49298  0.26975  0.72208  1.0000
  S   S569      1.0  0.37281  0.27144  0.73296  1.0000
  H   H2258     1.0  0.35768  0.23401  0.82860  1.0000
  C   C1407     1.0  0.65119  0.27285  0.71870  1.0000
  C   C1408     1.0  0.36338  0.25497  0.68021  1.0000
  C   C1409     1.0  0.41790  0.27200  0.73301  1.0000
  C   C1410     1.0  0.32700  0.30473  0.77883  1.0000
  S   S570      1.0  0.53129  0.27561  0.65756  1.0000
  C   C1411     1.0  0.42908  0.28225  0.72358  1.0000
  S   S571      1.0  0.35666  0.39418  0.71877  1.0000
  Fe  Fe291     1.0  0.45235  0.30660  0.65594  1.0000
  S   S572      1.0  0.47285  0.30354  0.66886  1.0000
  N   N144      1.0  0.36801  0.23897  0.67489  1.0000
  Fe  Fe292     1.0  0.43185  0.33635  0.67033  1.0000
  S   S573      1.0  0.45035  0.33574  0.68504  1.0000
  S   S574      1.0  0.40761  0.35434  0.66646  1.0000
  Fe  Fe293     1.0  0.46970  0.33118  0.66205  1.0000
  H   H2259     1.0  0.33098  0.37139  0.73156  1.0000
  Fe  Fe294     1.0  0.45257  0.30801  0.69103  1.0000
  S   S575      1.0  0.45987  0.29039  0.71396  1.0000
  H   H2260     1.0  0.63121  0.23939  0.79421  1.0000
  S   S576      1.0  0.43214  0.30889  0.67874  1.0000
  H   H2261     1.0  0.53028  0.29889  0.70100  1.0000
  H   H2262     1.0  0.57274  0.37170  0.67895  1.0000
  H   H2263     1.0  0.34623  0.36177  0.74396  1.0000
  C   C1412     1.0  0.44552  0.27804  0.72565  1.0000
  C   C1413     1.0  0.45082  0.26355  0.73701  1.0000
  Fe  Fe295     1.0  0.35474  0.28492  0.75189  1.0000
  C   C1414     1.0  0.52382  0.26901  0.70299  1.0000
  H   H2264     1.0  0.65423  0.41608  0.80114  1.0000
  H   H2265     1.0  0.53764  0.36853  0.71550  1.0000
  C   C1415     1.0  0.45243  0.26462  0.68638  1.0000
  N   N145      1.0  0.55485  0.38289  0.69807  1.0000
  N   N146      1.0  0.51209  0.28352  0.70893  1.0000
  H   H2266     1.0  0.51728  0.26141  0.69933  1.0000
  C   C1416     1.0  0.37117  0.38367  0.70397  1.0000
  C   C1417     1.0  0.36850  0.38618  0.68799  1.0000
  C   C1418     1.0  0.38003  0.37735  0.67653  1.0000
  C   C1419     1.0  0.39428  0.36598  0.68093  1.0000
  C   C1420     1.0  0.39698  0.36345  0.69692  1.0000
  C   C1421     1.0  0.38540  0.37227  0.70842  1.0000
  H   H2267     1.0  0.40516  0.27543  0.73161  1.0000
  H   H2268     1.0  0.55322  0.35755  0.70125  1.0000
  H   H2269     1.0  0.40792  0.35469  0.70043  1.0000
  H   H2270     1.0  0.38752  0.37030  0.72078  1.0000
  H   H2271     1.0  0.35937  0.30716  0.71440  1.0000
  H   H2272     1.0  0.34763  0.31702  0.69858  1.0000
  Fe  Fe296     1.0  0.65040  0.40748  0.72579  1.0000
  H   H2273     1.0  0.53062  0.26077  0.71267  1.0000
  H   H2274     1.0  0.49199  0.24623  0.66983  1.0000
  S   S577      1.0  0.64404  0.45873  0.74984  1.0000
  H   H2275     1.0  0.52916  0.28655  0.72178  1.0000
  H   H2276     1.0  0.64158  0.27305  0.75668  1.0000
  C   C1422     1.0  0.37082  0.33344  0.67756  1.0000
  C   C1423     1.0  0.32676  0.31454  0.76282  1.0000
  C   C1424     1.0  0.33247  0.47940  0.71729  1.0000
  H   H2277     1.0  0.57453  0.38773  0.70616  1.0000
  C   C1425     1.0  0.38622  0.32033  0.69932  1.0000
  H   H2278     1.0  0.39330  0.33045  0.69544  1.0000
  H   H2279     1.0  0.48435  0.26732  0.67243  1.0000
  H   H2280     1.0  0.53611  0.37263  0.69415  1.0000
  Fe  Fe297     1.0  0.38284  0.25477  0.75495  1.0000
  H   H2281     1.0  0.53455  0.40277  0.69133  1.0000
  H   H2282     1.0  0.34961  0.25889  0.68434  1.0000
  Fe  Fe298     1.0  0.34854  0.25312  0.77717  1.0000
  S   S578      1.0  0.36623  0.26971  0.77340  1.0000
  H   H2283     1.0  0.45845  0.23930  0.67138  1.0000
  H   H2284     1.0  0.57493  0.36618  0.70875  1.0000
  H   H2285     1.0  0.37704  0.34421  0.67326  1.0000
  H   H2286     1.0  0.55612  0.38758  0.67175  1.0000
  H   H2287     1.0  0.42487  0.29357  0.71501  1.0000
  N   N147      1.0  0.36938  0.32658  0.69563  1.0000
  H   H2288     1.0  0.47637  0.25984  0.65917  1.0000
  C   C1426     1.0  0.56446  0.38392  0.68071  1.0000
  Fe  Fe299     1.0  0.33430  0.41288  0.71082  1.0000
  C   C1427     1.0  0.52324  0.33533  0.69237  1.0000
  C   C1428     1.0  0.53137  0.33592  0.67570  1.0000
  C   C1429     1.0  0.52224  0.33764  0.66368  1.0000
  C   C1430     1.0  0.50497  0.33848  0.66828  1.0000
  C   C1431     1.0  0.49685  0.33789  0.68495  1.0000
  C   C1432     1.0  0.50591  0.33654  0.69690  1.0000
  H   H2289     1.0  0.54466  0.33516  0.67201  1.0000
  H   H2290     1.0  0.33800  0.46636  0.71752  1.0000
  H   H2291     1.0  0.48352  0.33878  0.68861  1.0000
  H   H2292     1.0  0.49947  0.33631  0.70972  1.0000
  C   C1433     1.0  0.62215  0.27250  0.73172  1.0000
  C   C1434     1.0  0.63427  0.28083  0.72083  1.0000
  H   H2293     1.0  0.44223  0.26100  0.69702  1.0000
  Fe  Fe300     1.0  0.65545  0.43801  0.73548  1.0000
  H   H2294     1.0  0.59241  0.25950  0.68287  1.0000
  C   C1435     1.0  0.62699  0.25606  0.74029  1.0000
  H   H2295     1.0  0.63071  0.29360  0.71442  1.0000
  C   C1436     1.0  0.48060  0.25635  0.67112  1.0000
  H   H2296     1.0  0.39369  0.31033  0.69261  1.0000
  H   H2297     1.0  0.61761  0.24949  0.74854  1.0000
  C   C1437     1.0  0.61314  0.36886  0.69819  1.0000
  C   C1438     1.0  0.61502  0.35949  0.71401  1.0000
  C   C1439     1.0  0.62155  0.36558  0.72405  1.0000
  C   C1440     1.0  0.62636  0.38103  0.71839  1.0000
  C   C1441     1.0  0.62419  0.39055  0.70268  1.0000
  C   C1442     1.0  0.61763  0.38447  0.69263  1.0000
  H   H2298     1.0  0.61160  0.34747  0.71848  1.0000
  H   H2299     1.0  0.62304  0.35818  0.73625  1.0000
  H   H2300     1.0  0.62744  0.40264  0.69833  1.0000
  H   H2301     1.0  0.61608  0.39188  0.68046  1.0000
  H   H2302     1.0  0.36630  0.35047  0.70109  1.0000
  H   H2303     1.0  0.57265  0.39305  0.67714  1.0000
  C   C1443     1.0  0.62565  0.27323  0.78808  1.0000
  H   H2304     1.0  0.58892  0.24088  0.69834  1.0000
  C   C1444     1.0  0.54926  0.29404  0.66424  1.0000
  C   C1445     1.0  0.56391  0.29814  0.66470  1.0000
  H   H2305     1.0  0.65378  0.28044  0.76603  1.0000
  C   C1446     1.0  0.38636  0.23380  0.67052  1.0000
  H   H2306     1.0  0.35757  0.39493  0.68446  1.0000
  H   H2307     1.0  0.53735  0.30121  0.66935  1.0000
  H   H2308     1.0  0.56319  0.30827  0.67029  1.0000
  C   C1447     1.0  0.56555  0.27208  0.65002  1.0000
  S   S579      1.0  0.33135  0.43221  0.68722  1.0000
  H   H2309     1.0  0.49096  0.28834  0.72886  1.0000
  S   S580      1.0  0.33556  0.26973  0.75728  1.0000
  H   H2310     1.0  0.50676  0.27027  0.73445  1.0000
  H   H2311     1.0  0.37836  0.32398  0.67018  1.0000
  H   H2312     1.0  0.35885  0.33510  0.71847  1.0000
  H   H2313     1.0  0.60773  0.26656  0.69981  1.0000
  H   H2314     1.0  0.53337  0.27302  0.69186  1.0000
  H   H2315     1.0  0.62756  0.24372  0.66576  1.0000
  H   H2316     1.0  0.44394  0.24193  0.75489  1.0000
  S   S581      1.0  0.34479  0.31248  0.74710  1.0000
  H   H2317     1.0  0.61875  0.26774  0.80058  1.0000
  C   C1448     1.0  0.43977  0.25316  0.74616  1.0000
  C   C1449     1.0  0.50023  0.27766  0.72428  1.0000
  C   C1450     1.0  0.54350  0.39914  0.69970  1.0000
  N   N148      1.0  0.46740  0.25096  0.68538  1.0000
  H   H2318     1.0  0.38556  0.31516  0.71288  1.0000
  H   H2319     1.0  0.34716  0.34474  0.70247  1.0000
  H   H2320     1.0  0.49571  0.28605  0.69287  1.0000
  C   C1451     1.0  0.64394  0.24811  0.73826  1.0000
  H   H2321     1.0  0.62482  0.25147  0.70720  1.0000
  H   H2322     1.0  0.35837  0.33793  0.67428  1.0000
  S   S582      1.0  0.40971  0.24419  0.75610  1.0000
  H   H2323     1.0  0.55964  0.37789  0.72261  1.0000
  H   H2324     1.0  0.65412  0.36235  0.69784  1.0000
  C   C1452     1.0  0.56644  0.37854  0.70942  1.0000
  C   C1453     1.0  0.42326  0.25740  0.74427  1.0000
  H   H2325     1.0  0.36898  0.25405  0.69082  1.0000
  H   H2326     1.0  0.51108  0.29854  0.68431  1.0000
  C   C1454     1.0  0.47349  0.24659  0.70094  1.0000
  C   C1455     1.0  0.52156  0.29382  0.71244  1.0000
  H   H2327     1.0  0.46351  0.26030  0.73871  1.0000
  H   H2328     1.0  0.41985  0.30392  0.64929  1.0000
  H   H2329     1.0  0.44753  0.26831  0.67480  1.0000
  H   H2330     1.0  0.36719  0.30258  0.69408  1.0000
  C   C1456     1.0  0.35998  0.33980  0.70481  1.0000
  H   H2331     1.0  0.36554  0.25109  0.64987  1.0000
  H   H2332     1.0  0.64609  0.25123  0.80704  1.0000
  H   H2333     1.0  0.65101  0.42521  0.78038  1.0000
  C   C1457     1.0  0.54499  0.36992  0.70244  1.0000
  H   H2334     1.0  0.49343  0.30437  0.70028  1.0000
  H   H2335     1.0  0.62833  0.28500  0.78887  1.0000
  Fe  Fe301     1.0  0.35462  0.25480  0.74032  1.0000
  S   S583      1.0  0.34602  0.24755  0.72150  1.0000
  H   H2336     1.0  0.37787  0.37932  0.66418  1.0000
  H   H2337     1.0  0.51311  0.30464  0.71739  1.0000
  C   C1458     1.0  0.36051  0.31272  0.70086  1.0000
  S   S584      1.0  0.59781  0.29408  0.65900  1.0000
  C   C1459     1.0  0.33053  0.23626  0.73213  1.0000
  C   C1460     1.0  0.59790  0.24607  0.68724  1.0000
  C   C1461     1.0  0.33295  0.36306  0.74370  1.0000
  H   H2338     1.0  0.33129  0.35055  0.74387  1.0000
  C   C1462     1.0  0.46306  0.23629  0.68305  1.0000
  H   H2339     1.0  0.64856  0.36402  0.67861  1.0000
  H   H2340     1.0  0.60387  0.24846  0.71569  1.0000
  H   H2341     1.0  0.46382  0.24244  0.71193  1.0000
  H   H2342     1.0  0.34851  0.48197  0.73164  1.0000
  C   C1463     1.0  0.62597  0.25032  0.67582  1.0000
  H   H2343     1.0  0.37435  0.24460  0.82515  1.0000
  S   S585      1.0  0.49380  0.34046  0.65298  1.0000
  N   N149      1.0  0.61436  0.24378  0.69106  1.0000
  H   H2344     1.0  0.33842  0.29649  0.78164  1.0000
  C   C1464     1.0  0.63694  0.24605  0.78168  1.0000
  H   H2345     1.0  0.61710  0.27662  0.77931  1.0000
  H   H2346     1.0  0.62797  0.24874  0.77354  1.0000
  N   N150      1.0  0.64115  0.26145  0.78248  1.0000
  H   H2347     1.0  0.39432  0.29776  0.64579  1.0000
  C   C1465     1.0  0.61261  0.25295  0.70400  1.0000
  C   C1466     1.0  0.57946  0.28929  0.65777  1.0000
  C   C1467     1.0  0.64980  0.26917  0.76579  1.0000
  H   H2348     1.0  0.33479  0.23402  0.75641  1.0000
  H   H2349     1.0  0.62129  0.26384  0.67091  1.0000
  H   H2350     1.0  0.33768  0.38518  0.75802  1.0000
  H   H2351     1.0  0.47669  0.25751  0.70309  1.0000
  H   H2352     1.0  0.64825  0.23717  0.77672  1.0000
  H   H2353     1.0  0.39186  0.24334  0.66029  1.0000
  H   H2354     1.0  0.52865  0.33817  0.65083  1.0000
  C   C1468     1.0  0.58027  0.27635  0.65026  1.0000
  C   C1469     1.0  0.55001  0.28086  0.65715  1.0000
  H   H2355     1.0  0.36779  0.26510  0.66990  1.0000
  H   H2356     1.0  0.33743  0.35629  0.77487  1.0000
  C   C1470     1.0  0.36104  0.24111  0.66026  1.0000
  S   S586      1.0  0.33326  0.24488  0.80280  1.0000
  C   C1471     1.0  0.65214  0.25733  0.79437  1.0000
  H   H2357     1.0  0.48483  0.23635  0.70057  1.0000
  H   H2358     1.0  0.63852  0.24885  0.67823  1.0000
  H   H2359     1.0  0.59887  0.23953  0.67731  1.0000
  S   S587      1.0  0.36626  0.23672  0.76059  1.0000
  H   H2360     1.0  0.64760  0.23546  0.74495  1.0000
  H   H2361     1.0  0.34717  0.24456  0.66329  1.0000
  C   C1472     1.0  0.36858  0.23813  0.81928  1.0000
  H   H2362     1.0  0.38920  0.23921  0.78924  1.0000
  H   H2363     1.0  0.40097  0.23693  0.80441  1.0000
  C   C1473     1.0  0.65608  0.25658  0.72759  1.0000
  H   H2364     1.0  0.56629  0.26187  0.64454  1.0000
  H   H2365     1.0  0.59228  0.26946  0.64487  1.0000
  C   C1474     1.0  0.32458  0.38621  0.75730  1.0000
  C   C1475     1.0  0.32434  0.35825  0.77364  1.0000
  H   H2366     1.0  0.51297  0.31023  0.64373  1.0000
  H   H2367     1.0  0.54469  0.71562  0.21719  1.0000
  H   H2368     1.0  0.43733  0.62417  0.23838  1.0000
  H   H2369     1.0  0.63221  0.58053  0.18669  1.0000
  C   C1476     1.0  0.56443  0.68725  0.18779  1.0000
  H   H2370     1.0  0.64934  0.70851  0.25072  1.0000
  H   H2371     1.0  0.65011  0.71214  0.19408  1.0000
  H   H2372     1.0  0.33620  0.69235  0.23542  1.0000
  H   H2373     1.0  0.47603  0.70000  0.25840  1.0000
  H   H2374     1.0  0.57658  0.72231  0.22255  1.0000
  Fe  Fe302     1.0  0.61864  0.69132  0.16981  1.0000
  Fe  Fe303     1.0  0.36138  0.61534  0.21567  1.0000
  S   S588      1.0  0.37680  0.62310  0.19027  1.0000
  S   S589      1.0  0.35137  0.59163  0.22408  1.0000
  Fe  Fe304     1.0  0.36427  0.64546  0.22693  1.0000
  S   S590      1.0  0.37971  0.65557  0.20218  1.0000
  S   S591      1.0  0.35613  0.65807  0.24870  1.0000
  Fe  Fe305     1.0  0.36168  0.64886  0.19164  1.0000
  S   S592      1.0  0.34893  0.66434  0.17097  1.0000
  Fe  Fe306     1.0  0.39333  0.62882  0.20349  1.0000
  S   S593      1.0  0.42113  0.61809  0.19861  1.0000
  S   S594      1.0  0.34512  0.64073  0.21629  1.0000
  S   S595      1.0  0.37898  0.61916  0.22895  1.0000
  S   S596      1.0  0.42158  0.69738  0.29441  1.0000
  H   H2375     1.0  0.34255  0.67986  0.22016  1.0000
  H   H2376     1.0  0.46000  0.69103  0.27368  1.0000
  Fe  Fe307     1.0  0.40440  0.70714  0.27663  1.0000
  S   S597      1.0  0.40889  0.69375  0.25601  1.0000
  H   H2377     1.0  0.62740  0.70603  0.21981  1.0000
  H   H2378     1.0  0.54539  0.72718  0.23147  1.0000
  S   S598      1.0  0.62463  0.53020  0.24171  1.0000
  C   C1477     1.0  0.46722  0.72839  0.28605  1.0000
  H   H2379     1.0  0.41735  0.65585  0.26452  1.0000
  S   S599      1.0  0.59121  0.70235  0.17644  1.0000
  Fe  Fe308     1.0  0.64116  0.51122  0.22710  1.0000
  S   S600      1.0  0.60320  0.56686  0.20510  1.0000
  S   S601      1.0  0.63262  0.68076  0.14724  1.0000
  C   C1478     1.0  0.60896  0.62476  0.20364  1.0000
  Fe  Fe309     1.0  0.49354  0.64714  0.21762  1.0000
  S   S602      1.0  0.50022  0.64189  0.24246  1.0000
  S   S603      1.0  0.46560  0.65468  0.21888  1.0000
  Fe  Fe310     1.0  0.52957  0.64837  0.19921  1.0000
  S   S604      1.0  0.53848  0.64380  0.22264  1.0000
  S   S605      1.0  0.54935  0.65184  0.17579  1.0000
  Fe  Fe311     1.0  0.52310  0.62439  0.23200  1.0000
  S   S606      1.0  0.53490  0.60017  0.24706  1.0000
  Fe  Fe312     1.0  0.51501  0.66171  0.23054  1.0000
  S   S607      1.0  0.51117  0.68226  0.24368  1.0000
  S   S608      1.0  0.51534  0.62774  0.20799  1.0000
  S   S609      1.0  0.50725  0.66806  0.20625  1.0000
  S   S610      1.0  0.57280  0.70191  0.25476  1.0000
  Fe  Fe313     1.0  0.64830  0.53850  0.23892  1.0000
  C   C1479     1.0  0.52876  0.68669  0.24693  1.0000
  C   C1480     1.0  0.54488  0.68117  0.23802  1.0000
  C   C1481     1.0  0.55856  0.68559  0.24059  1.0000
  C   C1482     1.0  0.55608  0.69535  0.25216  1.0000
  C   C1483     1.0  0.54000  0.70063  0.26114  1.0000
  C   C1484     1.0  0.52638  0.69646  0.25841  1.0000
  H   H2380     1.0  0.54673  0.67377  0.22900  1.0000
  H   H2381     1.0  0.57098  0.68154  0.23355  1.0000
  S   S611      1.0  0.65423  0.54197  0.26164  1.0000
  H   H2382     1.0  0.64708  0.49349  0.26324  1.0000
  C   C1485     1.0  0.56063  0.66625  0.17576  1.0000
  C   C1486     1.0  0.57570  0.66741  0.16418  1.0000
  H   H2383     1.0  0.51394  0.70073  0.26534  1.0000
  H   H2384     1.0  0.58963  0.65526  0.19764  1.0000
  C   C1487     1.0  0.55504  0.67615  0.18761  1.0000
  H   H2385     1.0  0.58005  0.65979  0.15498  1.0000
  H   H2386     1.0  0.58931  0.62012  0.23461  1.0000
  H   H2387     1.0  0.54342  0.67534  0.19659  1.0000
  H   H2388     1.0  0.56010  0.69462  0.19715  1.0000
  H   H2389     1.0  0.39600  0.64224  0.26175  1.0000
  C   C1488     1.0  0.33953  0.71040  0.18040  1.0000
  C   C1489     1.0  0.57949  0.68843  0.17617  1.0000
  H   H2390     1.0  0.61350  0.61150  0.20257  1.0000
  H   H2391     1.0  0.46110  0.66445  0.25466  1.0000
  C   C1490     1.0  0.40641  0.63370  0.25513  1.0000
  Fe  Fe314     1.0  0.65373  0.69112  0.14869  1.0000
  H   H2392     1.0  0.40810  0.63941  0.24157  1.0000
  C   C1491     1.0  0.58406  0.57517  0.21722  1.0000
  C   C1492     1.0  0.57235  0.58714  0.20907  1.0000
  C   C1493     1.0  0.55736  0.59493  0.21820  1.0000
  C   C1494     1.0  0.55373  0.59042  0.23558  1.0000
  C   C1495     1.0  0.56530  0.57822  0.24378  1.0000
  C   C1496     1.0  0.58055  0.57069  0.23461  1.0000
  H   H2393     1.0  0.57488  0.59046  0.19561  1.0000
  H   H2394     1.0  0.54847  0.60422  0.21178  1.0000
  H   H2395     1.0  0.56253  0.57470  0.25723  1.0000
  H   H2396     1.0  0.58953  0.56145  0.24099  1.0000
  C   C1497     1.0  0.64553  0.71014  0.23885  1.0000
  N   N151      1.0  0.46070  0.69066  0.24843  1.0000
  H   H2397     1.0  0.44261  0.67706  0.26500  1.0000
  H   H2398     1.0  0.34505  0.71709  0.18576  1.0000
  H   H2399     1.0  0.40501  0.57605  0.21802  1.0000
  H   H2400     1.0  0.62476  0.73015  0.25836  1.0000
  H   H2401     1.0  0.38319  0.58938  0.18289  1.0000
  H   H2402     1.0  0.44176  0.70762  0.23621  1.0000
  H   H2403     1.0  0.38662  0.56950  0.21797  1.0000
  C   C1498     1.0  0.41499  0.58507  0.18481  1.0000
  C   C1499     1.0  0.37013  0.66908  0.25030  1.0000
  C   C1500     1.0  0.36725  0.67560  0.26445  1.0000
  C   C1501     1.0  0.37883  0.68364  0.26624  1.0000
  C   C1502     1.0  0.39327  0.68519  0.25384  1.0000
  C   C1503     1.0  0.39597  0.67892  0.23963  1.0000
  C   C1504     1.0  0.38445  0.67092  0.23785  1.0000
  H   H2404     1.0  0.35621  0.67418  0.27417  1.0000
  H   H2405     1.0  0.37671  0.68836  0.27731  1.0000
  H   H2406     1.0  0.40709  0.68015  0.22997  1.0000
  H   H2407     1.0  0.38688  0.66594  0.22696  1.0000
  C   C1505     1.0  0.43391  0.62881  0.20296  1.0000
  C   C1506     1.0  0.42737  0.64448  0.20685  1.0000
  C   C1507     1.0  0.43754  0.65256  0.21089  1.0000
  C   C1508     1.0  0.45426  0.64496  0.21136  1.0000
  C   C1509     1.0  0.46094  0.62940  0.20719  1.0000
  C   C1510     1.0  0.45079  0.62137  0.20294  1.0000
  H   H2408     1.0  0.41449  0.65044  0.20670  1.0000
  H   H2409     1.0  0.43238  0.66472  0.21382  1.0000
  H   H2410     1.0  0.47382  0.62343  0.20751  1.0000
  H   H2411     1.0  0.45598  0.60928  0.19984  1.0000
  C   C1511     1.0  0.34012  0.68518  0.17217  1.0000
  C   C1512     1.0  0.64801  0.49771  0.27407  1.0000
  Fe  Fe315     1.0  0.64802  0.67976  0.18631  1.0000
  Fe  Fe316     1.0  0.56700  0.72187  0.30689  1.0000
  H   H2412     1.0  0.33754  0.49446  0.12347  1.0000
  C   C1513     1.0  0.34703  0.69376  0.17942  1.0000
  H   H2413     1.0  0.40231  0.62187  0.25715  1.0000
  H   H2414     1.0  0.44740  0.61738  0.25558  1.0000
  C   C1514     1.0  0.42698  0.64690  0.25770  1.0000
  H   H2415     1.0  0.35829  0.68767  0.18400  1.0000
  C   C1515     1.0  0.32571  0.69322  0.16601  1.0000
  N   N152      1.0  0.63621  0.58063  0.16081  1.0000
  C   C1516     1.0  0.54491  0.72822  0.21834  1.0000
  H   H2416     1.0  0.44550  0.67713  0.24340  1.0000
  C   C1517     1.0  0.41902  0.62362  0.27906  1.0000
  S   S612      1.0  0.45222  0.72909  0.27502  1.0000
  H   H2417     1.0  0.42132  0.58250  0.17228  1.0000
  C   C1518     1.0  0.34186  0.56872  0.18586  1.0000
  C   C1519     1.0  0.34004  0.56048  0.20261  1.0000
  C   C1520     1.0  0.34269  0.56778  0.21427  1.0000
  C   C1521     1.0  0.34693  0.58345  0.20933  1.0000
  C   C1522     1.0  0.34820  0.59193  0.19270  1.0000
  C   C1523     1.0  0.34596  0.58446  0.18096  1.0000
  Fe  Fe317     1.0  0.56300  0.71749  0.27406  1.0000
  C   C1524     1.0  0.33310  0.69065  0.22426  1.0000
  H   H2418     1.0  0.35130  0.60409  0.18876  1.0000
  H   H2419     1.0  0.34759  0.59082  0.16799  1.0000
  H   H2420     1.0  0.65373  0.57576  0.17633  1.0000
  H   H2421     1.0  0.60534  0.70609  0.25493  1.0000
  H   H2422     1.0  0.46730  0.69004  0.22243  1.0000
  Fe  Fe318     1.0  0.62319  0.54770  0.21681  1.0000
  H   H2423     1.0  0.55808  0.72333  0.18735  1.0000
  C   C1525     1.0  0.63562  0.56287  0.16397  1.0000
  H   H2424     1.0  0.34194  0.56104  0.22707  1.0000
  N   N153      1.0  0.62723  0.71541  0.24076  1.0000
  S   S613      1.0  0.41090  0.73223  0.26821  1.0000
  C   C1526     1.0  0.43528  0.61929  0.25206  1.0000
  C   C1527     1.0  0.58514  0.64683  0.20958  1.0000
  H   H2425     1.0  0.58607  0.72656  0.20073  1.0000
  S   S614      1.0  0.64500  0.63153  0.16688  1.0000
  H   H2426     1.0  0.43892  0.64517  0.26148  1.0000
  H   H2427     1.0  0.64538  0.58236  0.13447  1.0000
  C   C1528     1.0  0.62284  0.71772  0.22460  1.0000
  H   H2428     1.0  0.58719  0.63513  0.18312  1.0000
  N   N154      1.0  0.59055  0.62917  0.20828  1.0000
  H   H2429     1.0  0.42887  0.65299  0.24425  1.0000
  H   H2430     1.0  0.61377  0.63263  0.19143  1.0000
  H   H2431     1.0  0.43212  0.60690  0.25458  1.0000
  H   H2432     1.0  0.42480  0.58387  0.19163  1.0000
  H   H2433     1.0  0.57512  0.70992  0.20941  1.0000
  H   H2434     1.0  0.57132  0.65074  0.21266  1.0000
  C   C1529     1.0  0.45209  0.67667  0.25315  1.0000
  H   H2435     1.0  0.40904  0.63214  0.28613  1.0000
  H   H2436     1.0  0.45451  0.71741  0.24267  1.0000
  C   C1530     1.0  0.58520  0.67834  0.16450  1.0000
  H   H2437     1.0  0.57073  0.62105  0.22813  1.0000
  H   H2438     1.0  0.38836  0.59067  0.20966  1.0000
  S   S615      1.0  0.38163  0.71536  0.29556  1.0000
  H   H2439     1.0  0.47832  0.67783  0.26400  1.0000
  H   H2440     1.0  0.61948  0.60460  0.15719  1.0000
  C   C1531     1.0  0.41281  0.55634  0.19604  1.0000
  H   H2441     1.0  0.42276  0.55409  0.20301  1.0000
  H   H2442     1.0  0.41889  0.55305  0.18375  1.0000
  H   H2443     1.0  0.40443  0.54757  0.20299  1.0000
  H   H2444     1.0  0.39582  0.57339  0.17220  1.0000
  H   H2445     1.0  0.40832  0.59838  0.18295  1.0000
  H   H2446     1.0  0.62323  0.69037  0.24918  1.0000
  C   C1532     1.0  0.58358  0.62670  0.19535  1.0000
  H   H2447     1.0  0.58873  0.60496  0.22394  1.0000
  H   H2448     1.0  0.62660  0.55915  0.17574  1.0000
  C   C1533     1.0  0.46329  0.72679  0.30331  1.0000
  H   H2449     1.0  0.65168  0.65165  0.13382  1.0000
  S   S616      1.0  0.63880  0.70380  0.16956  1.0000
  H   H2450     1.0  0.61468  0.62660  0.21304  1.0000
  H   H2451     1.0  0.61534  0.58931  0.14889  1.0000
  H   H2452     1.0  0.33745  0.54811  0.20638  1.0000
  H   H2453     1.0  0.60999  0.58799  0.17093  1.0000
  H   H2454     1.0  0.53795  0.70802  0.27020  1.0000
  H   H2455     1.0  0.62814  0.49217  0.20714  1.0000
  H   H2456     1.0  0.43051  0.62129  0.28385  1.0000
  H   H2457     1.0  0.33193  0.71116  0.10934  1.0000
  S   S617      1.0  0.63754  0.52789  0.20247  1.0000
  C   C1534     1.0  0.61918  0.70248  0.25316  1.0000
  S   S618      1.0  0.64539  0.55762  0.21551  1.0000
  H   H2458     1.0  0.48018  0.69970  0.22885  1.0000
  C   C1535     1.0  0.46909  0.68981  0.26173  1.0000
  H   H2459     1.0  0.38128  0.56819  0.19148  1.0000
  N   N155      1.0  0.40344  0.57383  0.19406  1.0000
  H   H2460     1.0  0.33480  0.70188  0.21425  1.0000
  S   S619      1.0  0.64210  0.48350  0.23684  1.0000
  H   H2461     1.0  0.48246  0.67757  0.23419  1.0000
  C   C1536     1.0  0.44844  0.70659  0.24607  1.0000
  C   C1537     1.0  0.39556  0.57761  0.21066  1.0000
  Fe  Fe319     1.0  0.64203  0.65862  0.16616  1.0000
  H   H2462     1.0  0.43887  0.70766  0.25770  1.0000
  H   H2463     1.0  0.58797  0.61370  0.19355  1.0000
  N   N156      1.0  0.42192  0.63087  0.26098  1.0000
  H   H2464     1.0  0.62220  0.70034  0.26553  1.0000
  H   H2465     1.0  0.63800  0.49374  0.28473  1.0000
  C   C1538     1.0  0.47317  0.68953  0.23273  1.0000
  H   H2466     1.0  0.48654  0.73112  0.26376  1.0000
  C   C1539     1.0  0.64125  0.58359  0.17476  1.0000
  H   H2467     1.0  0.63174  0.56017  0.15377  1.0000
  C   C1540     1.0  0.61952  0.59112  0.15936  1.0000
  H   H2468     1.0  0.59675  0.67923  0.15544  1.0000
  C   C1541     1.0  0.39040  0.57627  0.18474  1.0000
  C   C1542     1.0  0.58461  0.61838  0.22444  1.0000
  S   S620      1.0  0.55211  0.70731  0.30069  1.0000
  S   S621      1.0  0.62669  0.66836  0.18849  1.0000
  S   S622      1.0  0.34163  0.55866  0.17050  1.0000
  S   S623      1.0  0.40620  0.73254  0.30736  1.0000
  H   H2469     1.0  0.60910  0.72142  0.22568  1.0000
  H   H2470     1.0  0.56969  0.62926  0.19871  1.0000
  H   H2471     1.0  0.41506  0.61156  0.28203  1.0000
  H   H2472     1.0  0.58991  0.64915  0.21941  1.0000
  H   H2473     1.0  0.64515  0.51154  0.27089  1.0000
  Fe  Fe320     1.0  0.42680  0.72309  0.28719  1.0000
  H   H2474     1.0  0.64800  0.55458  0.16513  1.0000
  S   S624      1.0  0.57998  0.72954  0.28038  1.0000
  H   H2475     1.0  0.33519  0.52209  0.10436  1.0000
  H   H2476     1.0  0.50795  0.73129  0.27826  1.0000
  H   H2477     1.0  0.64187  0.59685  0.17275  1.0000
  H   H2478     1.0  0.64396  0.72210  0.11950  1.0000
  H   H2479     1.0  0.65584  0.49403  0.30329  1.0000
  C   C1543     1.0  0.57495  0.72284  0.20997  1.0000
  C   C1544     1.0  0.64847  0.58493  0.14520  1.0000
  H   H2480     1.0  0.32839  0.49903  0.09672  1.0000
  C   C1545     1.0  0.48338  0.72998  0.27710  1.0000
  H   H2481     1.0  0.65202  0.71947  0.22932  1.0000
  C   C1546     1.0  0.49159  0.72873  0.30252  1.0000
  C   C1547     1.0  0.49554  0.73008  0.28529  1.0000
  H   H2482     1.0  0.62842  0.72765  0.21500  1.0000
  H   H2483     1.0  0.65034  0.69802  0.23488  1.0000
  C   C1548     1.0  0.65426  0.72809  0.11276  1.0000
  H   H2484     1.0  0.65660  0.63694  0.19692  1.0000
  C   C1549     1.0  0.62134  0.73130  0.24639  1.0000
  H   H2485     1.0  0.64886  0.59838  0.14216  1.0000
  Fe  Fe321     1.0  0.53266  0.73110  0.29859  1.0000
  H   H2486     1.0  0.32684  0.69649  0.09037  1.0000
  C   C1550     1.0  0.32489  0.71831  0.17457  1.0000
  H   H2487     1.0  0.32541  0.69532  0.12691  1.0000
  N   N157      1.0  0.36200  0.71997  0.41099  1.0000
  H   H2488     1.0  0.47230  0.72596  0.32482  1.0000
  S   S625      1.0  0.39138  0.69316  0.33884  1.0000
  H   H2489     1.0  0.55946  0.68830  0.35485  1.0000
  S   S626      1.0  0.32567  0.72956  0.38168  1.0000
  H   H2490     1.0  0.38062  0.69890  0.40409  1.0000
  C   C1551     1.0  0.35837  0.73103  0.42269  1.0000
  H   H2491     1.0  0.36799  0.68063  0.36771  1.0000
  C   C1552     1.0  0.58867  0.72472  0.33367  1.0000
  H   H2492     1.0  0.37634  0.69682  0.53569  1.0000
  S   S627      1.0  0.50643  0.72935  0.31314  1.0000
  H   H2493     1.0  0.42125  0.67789  0.63416  1.0000
  S   S628      1.0  0.40497  0.71192  0.63094  1.0000
  C   C1553     1.0  0.60692  0.72993  0.34837  1.0000
  H   H2494     1.0  0.38840  0.71349  0.40994  1.0000
  H   H2495     1.0  0.37666  0.69965  0.42564  1.0000
  S   S629      1.0  0.34520  0.72949  0.56952  1.0000
  H   H2496     1.0  0.36719  0.72574  0.59082  1.0000
  H   H2497     1.0  0.60514  0.70547  0.34744  1.0000
  H   H2498     1.0  0.36707  0.72187  0.38456  1.0000
  C   C1554     1.0  0.37312  0.70885  0.53968  1.0000
  C   C1555     1.0  0.37098  0.72531  0.51217  1.0000
  H   H2499     1.0  0.40403  0.71464  0.53072  1.0000
  H   H2500     1.0  0.40085  0.70547  0.51559  1.0000
  Fe  Fe322     1.0  0.64977  0.72869  0.38689  1.0000
  H   H2501     1.0  0.34174  0.69457  0.38416  1.0000
  C   C1556     1.0  0.55003  0.68645  0.34911  1.0000
  S   S630      1.0  0.58096  0.71059  0.32765  1.0000
  H   H2502     1.0  0.37351  0.72763  0.33448  1.0000
  H   H2503     1.0  0.43934  0.71478  0.62602  1.0000
  H   H2504     1.0  0.53592  0.69756  0.37727  1.0000
  C   C1557     1.0  0.37254  0.70321  0.35005  1.0000
  C   C1558     1.0  0.36354  0.69397  0.36413  1.0000
  C   C1559     1.0  0.34869  0.70186  0.37346  1.0000
  N   N158      1.0  0.37926  0.72223  0.52614  1.0000
  C   C1560     1.0  0.36664  0.72042  0.34534  1.0000
  C   C1561     1.0  0.47544  0.72702  0.31150  1.0000
  H   H2505     1.0  0.45019  0.73056  0.61288  1.0000
  Fe  Fe323     1.0  0.39933  0.70770  0.31285  1.0000
  C   C1562     1.0  0.39750  0.71708  0.52039  1.0000
  H   H2506     1.0  0.37345  0.71395  0.50717  1.0000
  H   H2507     1.0  0.33613  0.72042  0.41349  1.0000
  H   H2508     1.0  0.52501  0.68280  0.37605  1.0000
  C   C1563     1.0  0.34306  0.71913  0.36903  1.0000
  C   C1564     1.0  0.47989  0.71636  0.62061  1.0000
  H   H2509     1.0  0.47069  0.68680  0.62830  1.0000
  H   H2510     1.0  0.35719  0.72918  0.51614  1.0000
  H   H2511     1.0  0.50980  0.70480  0.34639  1.0000
  H   H2512     1.0  0.51956  0.68296  0.34893  1.0000
  H   H2513     1.0  0.37830  0.70683  0.55087  1.0000
  C   C1565     1.0  0.53658  0.71554  0.34614  1.0000
  H   H2514     1.0  0.35040  0.70300  0.40609  1.0000
  C   C1566     1.0  0.32773  0.72782  0.46605  1.0000
  H   H2515     1.0  0.34632  0.70367  0.42769  1.0000
  C   C1567     1.0  0.37762  0.70746  0.41277  1.0000
  C   C1568     1.0  0.35203  0.72839  0.35493  1.0000
  H   H2516     1.0  0.54194  0.71773  0.33259  1.0000
  C   C1569     1.0  0.45186  0.71712  0.61909  1.0000
  H   H2517     1.0  0.47860  0.72991  0.61473  1.0000
  H   H2518     1.0  0.48529  0.70941  0.61043  1.0000
  C   C1570     1.0  0.32750  0.72472  0.48310  1.0000
  N   N159      1.0  0.46364  0.71249  0.63028  1.0000
  H   H2519     1.0  0.54552  0.71803  0.35203  1.0000
  C   C1571     1.0  0.34812  0.71137  0.41476  1.0000
  C   C1572     1.0  0.46578  0.69447  0.63790  1.0000
  H   H2520     1.0  0.52468  0.72495  0.34806  1.0000
  C   C1573     1.0  0.52198  0.69577  0.34435  1.0000
  H   H2521     1.0  0.35689  0.72386  0.43584  1.0000
  H   H2522     1.0  0.48910  0.71311  0.62864  1.0000
  H   H2523     1.0  0.61629  0.72527  0.35582  1.0000
  C   C1574     1.0  0.60062  0.71875  0.34358  1.0000
  H   H2524     1.0  0.35932  0.71201  0.54383  1.0000
  H   H2525     1.0  0.51507  0.70453  0.37373  1.0000
  H   H2526     1.0  0.40256  0.72691  0.51020  1.0000
  C   C1575     1.0  0.52717  0.69567  0.37074  1.0000
  N   N160      1.0  0.53393  0.69834  0.35259  1.0000
  H   H2527     1.0  0.52670  0.69768  0.33062  1.0000
  H   H2528     1.0  0.54863  0.67330  0.35385  1.0000
  H   H2529     1.0  0.55550  0.68817  0.33550  1.0000
  H   H2530     1.0  0.45627  0.70987  0.60915  1.0000
  S   S631      1.0  0.32502  0.71734  0.53936  1.0000
  C   C1576     1.0  0.36386  0.72994  0.39371  1.0000
  H   H2531     1.0  0.45088  0.72556  0.31031  1.0000
  C   C1577     1.0  0.45694  0.72207  0.64352  1.0000
  H   H2532     1.0  0.60987  0.73240  0.58265  1.0000
  H   H2533     1.0  0.62239  0.62374  0.76750  1.0000
  H   H2534     1.0  0.33560  0.51831  0.66044  1.0000
  H   H2535     1.0  0.56979  0.69503  0.68155  1.0000
  C   C1578     1.0  0.58059  0.72016  0.80939  1.0000
  Fe  Fe324     1.0  0.33660  0.57917  0.72265  1.0000
  S   S632      1.0  0.35643  0.59482  0.71195  1.0000
  H   H2536     1.0  0.34088  0.65892  0.71288  1.0000
  Fe  Fe325     1.0  0.42677  0.66164  0.71256  1.0000
  S   S633      1.0  0.42796  0.63706  0.73065  1.0000
  S   S634      1.0  0.44003  0.66103  0.68620  1.0000
  Fe  Fe326     1.0  0.40854  0.68086  0.73915  1.0000
  S   S635      1.0  0.40860  0.65783  0.75972  1.0000
  S   S636      1.0  0.39841  0.70754  0.74169  1.0000
  Fe  Fe327     1.0  0.43518  0.64958  0.74668  1.0000
  S   S637      1.0  0.45748  0.63388  0.75730  1.0000
  Fe  Fe328     1.0  0.40139  0.64718  0.74194  1.0000
  S   S638      1.0  0.38177  0.63130  0.75291  1.0000
  S   S639      1.0  0.43583  0.67349  0.72765  1.0000
  S   S640      1.0  0.39945  0.67091  0.72230  1.0000
  C   C1579     1.0  0.53673  0.72790  0.68328  1.0000
  H   H2537     1.0  0.34166  0.56135  0.65414  1.0000
  C   C1580     1.0  0.54008  0.71278  0.71104  1.0000
  H   H2538     1.0  0.34669  0.53009  0.69382  1.0000
  S   S641      1.0  0.33255  0.72256  0.79638  1.0000
  H   H2539     1.0  0.64620  0.66662  0.87250  1.0000
  H   H2540     1.0  0.60919  0.64281  0.75931  1.0000
  H   H2541     1.0  0.60171  0.66676  0.77337  1.0000
  C   C1581     1.0  0.42948  0.67533  0.67156  1.0000
  H   H2542     1.0  0.43527  0.65791  0.65576  1.0000
  Fe  Fe329     1.0  0.52874  0.66254  0.77512  1.0000
  S   S642      1.0  0.53935  0.66477  0.74776  1.0000
  S   S643      1.0  0.50218  0.66062  0.78810  1.0000
  Fe  Fe330     1.0  0.55831  0.67297  0.78064  1.0000
  S   S644      1.0  0.57074  0.67679  0.75358  1.0000
  S   S645      1.0  0.57088  0.67334  0.80059  1.0000
  Fe  Fe331     1.0  0.54500  0.68843  0.74888  1.0000
  S   S646      1.0  0.53504  0.71240  0.73237  1.0000
  Fe  Fe332     1.0  0.56407  0.65265  0.75502  1.0000
  S   S647      1.0  0.58419  0.63469  0.74156  1.0000
  S   S648      1.0  0.53322  0.68694  0.77588  1.0000
  S   S649      1.0  0.55293  0.64812  0.78244  1.0000
  H   H2543     1.0  0.64046  0.68310  0.85548  1.0000
  H   H2544     1.0  0.34590  0.63881  0.70772  1.0000
  H   H2545     1.0  0.55801  0.70894  0.78838  1.0000
  S   S650      1.0  0.63801  0.72397  0.86897  1.0000
  S   S651      1.0  0.62822  0.57585  0.78462  1.0000
  C   C1582     1.0  0.53150  0.72589  0.70057  1.0000
  C   C1583     1.0  0.55890  0.70345  0.68685  1.0000
  H   H2546     1.0  0.51536  0.66832  0.72485  1.0000
  H   H2547     1.0  0.36127  0.54818  0.65797  1.0000
  H   H2548     1.0  0.47019  0.68438  0.73943  1.0000
  C   C1584     1.0  0.61225  0.66048  0.77976  1.0000
  C   C1585     1.0  0.49768  0.68874  0.74563  1.0000
  H   H2549     1.0  0.60888  0.66444  0.79182  1.0000
  H   H2550     1.0  0.42207  0.69538  0.68456  1.0000
  H   H2551     1.0  0.60214  0.62252  0.79520  1.0000
  H   H2552     1.0  0.48587  0.69350  0.75404  1.0000
  C   C1586     1.0  0.55343  0.70117  0.70423  1.0000
  H   H2553     1.0  0.64891  0.50611  0.76898  1.0000
  C   C1587     1.0  0.42195  0.69165  0.67350  1.0000
  C   C1588     1.0  0.64902  0.67855  0.86427  1.0000
  H   H2554     1.0  0.64117  0.53258  0.69550  1.0000
  H   H2555     1.0  0.56008  0.69098  0.71229  1.0000
  H   H2556     1.0  0.49614  0.68073  0.83167  1.0000
  S   S652      1.0  0.55985  0.72206  0.65502  1.0000
  C   C1589     1.0  0.42162  0.59637  0.74990  1.0000
  C   C1590     1.0  0.57483  0.69165  0.80311  1.0000
  C   C1591     1.0  0.58601  0.69007  0.81307  1.0000
  C   C1592     1.0  0.58906  0.70425  0.81600  1.0000
  H   H2557     1.0  0.52554  0.65145  0.82884  1.0000
  H   H2558     1.0  0.43261  0.61412  0.76453  1.0000
  C   C1593     1.0  0.56663  0.70756  0.79612  1.0000
  H   H2559     1.0  0.59231  0.67782  0.81864  1.0000
  H   H2560     1.0  0.64742  0.54781  0.70203  1.0000
  H   H2561     1.0  0.40282  0.57805  0.77476  1.0000
  H   H2562     1.0  0.64584  0.68785  0.87219  1.0000
  C   C1594     1.0  0.59584  0.61751  0.75337  1.0000
  C   C1595     1.0  0.61157  0.60947  0.74564  1.0000
  C   C1596     1.0  0.62156  0.59642  0.75504  1.0000
  C   C1597     1.0  0.61570  0.59123  0.77217  1.0000
  C   C1598     1.0  0.59978  0.59893  0.77977  1.0000
  C   C1599     1.0  0.58993  0.61212  0.77044  1.0000
  H   H2563     1.0  0.61617  0.61355  0.73241  1.0000
  H   H2564     1.0  0.63381  0.59050  0.74907  1.0000
  H   H2565     1.0  0.59513  0.59477  0.79298  1.0000
  H   H2566     1.0  0.57770  0.61798  0.77643  1.0000
  C   C1600     1.0  0.48925  0.70649  0.72079  1.0000
  H   H2567     1.0  0.33512  0.53826  0.64626  1.0000
  S   S653      1.0  0.62373  0.71305  0.83335  1.0000
  H   H2568     1.0  0.32717  0.62073  0.73993  1.0000
  C   C1601     1.0  0.46996  0.64259  0.76453  1.0000
  C   C1602     1.0  0.46305  0.65585  0.77264  1.0000
  C   C1603     1.0  0.47305  0.66132  0.77980  1.0000
  C   C1604     1.0  0.49011  0.65397  0.77838  1.0000
  C   C1605     1.0  0.49718  0.64129  0.76955  1.0000
  C   C1606     1.0  0.48705  0.63539  0.76296  1.0000
  H   H2569     1.0  0.44986  0.66138  0.77405  1.0000
  H   H2570     1.0  0.46749  0.67114  0.78662  1.0000
  H   H2571     1.0  0.51029  0.63552  0.76842  1.0000
  H   H2572     1.0  0.49247  0.62509  0.75677  1.0000
  C   C1607     1.0  0.35109  0.71809  0.78155  1.0000
  H   H2573     1.0  0.63343  0.48760  0.76425  1.0000
  C   C1608     1.0  0.33945  0.64578  0.71778  1.0000
  C   C1609     1.0  0.38037  0.71120  0.75731  1.0000
  C   C1610     1.0  0.37286  0.69821  0.76762  1.0000
  C   C1611     1.0  0.35835  0.70164  0.77989  1.0000
  H   H2574     1.0  0.40873  0.71580  0.66236  1.0000
  C   C1612     1.0  0.61963  0.63751  0.76601  1.0000
  H   H2575     1.0  0.37827  0.68554  0.76623  1.0000
  H   H2576     1.0  0.35278  0.69153  0.78803  1.0000
  C   C1613     1.0  0.37567  0.62046  0.74146  1.0000
  C   C1614     1.0  0.36411  0.61028  0.74978  1.0000
  C   C1615     1.0  0.35852  0.60187  0.74102  1.0000
  C   C1616     1.0  0.36429  0.60376  0.72379  1.0000
  C   C1617     1.0  0.37608  0.61370  0.71553  1.0000
  C   C1618     1.0  0.38178  0.62199  0.72431  1.0000
  H   H2577     1.0  0.35932  0.60899  0.76305  1.0000
  H   H2578     1.0  0.34953  0.59416  0.74755  1.0000
  H   H2579     1.0  0.38068  0.61518  0.70221  1.0000
  H   H2580     1.0  0.39071  0.62977  0.71775  1.0000
  H   H2581     1.0  0.44613  0.58433  0.76693  1.0000
  H   H2582     1.0  0.48713  0.70724  0.70832  1.0000
  C   C1619     1.0  0.65557  0.49616  0.76255  1.0000
  H   H2583     1.0  0.58624  0.72512  0.70602  1.0000
  H   H2584     1.0  0.62343  0.66536  0.77210  1.0000
  H   H2585     1.0  0.34317  0.51345  0.68716  1.0000
  C   C1620     1.0  0.37332  0.72755  0.75929  1.0000
  H   H2586     1.0  0.62632  0.63740  0.80339  1.0000
  H   H2587     1.0  0.48634  0.66610  0.73766  1.0000
  H   H2588     1.0  0.63082  0.64198  0.75779  1.0000
  N   N161      1.0  0.33990  0.53720  0.66995  1.0000
  C   C1621     1.0  0.33841  0.48827  0.72528  1.0000
  Fe  Fe333     1.0  0.32945  0.54397  0.73218  1.0000
  H   H2589     1.0  0.43379  0.56902  0.77102  1.0000
  S   S654      1.0  0.34030  0.51638  0.73371  1.0000
  H   H2590     1.0  0.35473  0.52512  0.65012  1.0000
  H   H2591     1.0  0.34633  0.64033  0.72804  1.0000
  H   H2592     1.0  0.58951  0.64154  0.78604  1.0000
  H   H2593     1.0  0.63473  0.53439  0.71688  1.0000
  H   H2594     1.0  0.36192  0.52110  0.67779  1.0000
  H   H2595     1.0  0.59762  0.70283  0.82378  1.0000
  H   H2596     1.0  0.64092  0.63835  0.78367  1.0000
  H   H2597     1.0  0.32645  0.61994  0.71951  1.0000
  C   C1622     1.0  0.33160  0.50528  0.72481  1.0000
  C   C1623     1.0  0.56933  0.72176  0.79947  1.0000
  C   C1624     1.0  0.35857  0.73104  0.77115  1.0000
  H   H2598     1.0  0.50674  0.69642  0.74449  1.0000
  C   C1625     1.0  0.65713  0.50558  0.71439  1.0000
  C   C1626     1.0  0.34829  0.52495  0.68270  1.0000
  H   H2599     1.0  0.47972  0.67942  0.71939  1.0000
  H   H2600     1.0  0.34683  0.55796  0.67387  1.0000
  H   H2601     1.0  0.40208  0.58843  0.79072  1.0000
  H   H2602     1.0  0.52083  0.68832  0.71741  1.0000
  H   H2603     1.0  0.42089  0.58476  0.74690  1.0000
  C   C1627     1.0  0.34143  0.52939  0.65605  1.0000
  H   H2604     1.0  0.41035  0.62051  0.76745  1.0000
  H   H2605     1.0  0.47735  0.71250  0.72821  1.0000
  C   C1628     1.0  0.40383  0.58990  0.77707  1.0000
  N   N162      1.0  0.41997  0.59440  0.76796  1.0000
  H   H2606     1.0  0.39317  0.59970  0.77310  1.0000
  N   N163      1.0  0.49498  0.68905  0.72921  1.0000
  C   C1629     1.0  0.43381  0.58114  0.77350  1.0000
  H   H2607     1.0  0.43293  0.57928  0.78708  1.0000
  C   C1630     1.0  0.48225  0.67936  0.73148  1.0000
  H   H2608     1.0  0.41962  0.60921  0.78481  1.0000
  H   H2609     1.0  0.43370  0.59968  0.74262  1.0000
  H   H2610     1.0  0.41149  0.60644  0.74524  1.0000
  C   C1631     1.0  0.42068  0.61023  0.77135  1.0000
  S   S655      1.0  0.33481  0.56192  0.70780  1.0000
  C   C1632     1.0  0.55087  0.71717  0.67637  1.0000
  C   C1633     1.0  0.41417  0.69813  0.64683  1.0000
  H   H2611     1.0  0.63183  0.62038  0.79302  1.0000
  C   C1634     1.0  0.60009  0.63634  0.79250  1.0000
  H   H2612     1.0  0.59604  0.64024  0.80463  1.0000
  H   H2613     1.0  0.50276  0.67587  0.75196  1.0000
  H   H2614     1.0  0.50940  0.68195  0.70635  1.0000
  N   N164      1.0  0.61531  0.64216  0.78231  1.0000
  S   S656      1.0  0.33374  0.56019  0.74683  1.0000
  C   C1635     1.0  0.62922  0.63424  0.79098  1.0000
  C   C1636     1.0  0.41452  0.70318  0.66095  1.0000
  C   C1637     1.0  0.34779  0.55179  0.66367  1.0000
  N   N165      1.0  0.52254  0.67719  0.82932  1.0000
  C   C1638     1.0  0.50539  0.67825  0.83955  1.0000
  C   C1639     1.0  0.53449  0.67360  0.84016  1.0000
  C   C1640     1.0  0.52373  0.69322  0.81730  1.0000
  C   C1641     1.0  0.52657  0.66370  0.82022  1.0000
  H   H2615     1.0  0.50182  0.68843  0.84646  1.0000
  H   H2616     1.0  0.50408  0.66639  0.84883  1.0000
  H   H2617     1.0  0.54755  0.67287  0.83273  1.0000
  H   H2618     1.0  0.53184  0.68352  0.84724  1.0000
  H   H2619     1.0  0.53411  0.66151  0.84928  1.0000
  H   H2620     1.0  0.51478  0.69642  0.80899  1.0000
  H   H2621     1.0  0.53647  0.69274  0.80922  1.0000
  H   H2622     1.0  0.52107  0.70365  0.82370  1.0000
  H   H2623     1.0  0.53952  0.66238  0.81259  1.0000
  H   H2624     1.0  0.51801  0.66614  0.81165  1.0000
  H   H2625     1.0  0.49866  0.71406  0.71893  1.0000
  C   C1642     1.0  0.64527  0.53487  0.70579  1.0000
  C   C1643     1.0  0.51083  0.68159  0.71899  1.0000
  Fe  Fe334     1.0  0.64431  0.71879  0.81137  1.0000
  C   C1644     1.0  0.42942  0.67050  0.65727  1.0000
  Fe  Fe335     1.0  0.65424  0.56445  0.77231  1.0000
  H   H2626     1.0  0.64684  0.50424  0.72564  1.0000
  H   H2627     1.0  0.65351  0.50241  0.70429  1.0000
  Fe  Fe336     1.0  0.63138  0.73056  0.84386  1.0000
  H   H2628     1.0  0.44466  0.71945  0.65107  1.0000
  H   H2629     1.0  0.46552  0.71893  0.65217  1.0000
  H   H2630     1.0  0.56444  0.72810  0.70724  1.0000
  C   C1645     1.0  0.64684  0.48563  0.75987  1.0000
  H   H2631     1.0  0.65532  0.52508  0.73486  1.0000
  H   H2632     1.0  0.47452  0.69049  0.64649  1.0000
  C   C1646     1.0  0.42152  0.68179  0.64507  1.0000
  H   H2633     1.0  0.45369  0.69125  0.64529  1.0000
  H   H2634     1.0  0.38118  0.73260  0.71644  1.0000
  H   H2635     1.0  0.34124  0.93000  0.12438  1.0000
  H   H2636     1.0  0.43950  0.77579  0.24131  1.0000
  H   H2637     1.0  0.41071  0.76114  0.28080  1.0000
  S   S657      1.0  0.54689  0.74506  0.30666  1.0000
  H   H2638     1.0  0.65592  0.79830  0.09816  1.0000
  H   H2639     1.0  0.43253  0.75783  0.25513  1.0000
  C   C1647     1.0  0.37173  0.76273  0.25479  1.0000
  H   H2640     1.0  0.63516  0.78690  0.27256  1.0000
  S   S658      1.0  0.34985  0.79306  0.21758  1.0000
  C   C1648     1.0  0.36671  0.76915  0.23953  1.0000
  S   S659      1.0  0.64336  0.79842  0.19969  1.0000
  H   H2641     1.0  0.61571  0.79733  0.26661  1.0000
  H   H2642     1.0  0.61757  0.75471  0.30707  1.0000
  H   H2643     1.0  0.64253  0.79345  0.02754  1.0000
  H   H2644     1.0  0.60754  0.73539  0.24838  1.0000
  S   S660      1.0  0.54246  0.74035  0.27122  1.0000
  H   H2645     1.0  0.33565  0.76561  0.30073  1.0000
  C   C1649     1.0  0.40604  0.78312  0.25261  1.0000
  C   C1650     1.0  0.32828  0.79261  0.18234  1.0000
  H   H2646     1.0  0.34431  0.80724  0.24600  1.0000
  H   H2647     1.0  0.59062  0.76924  0.29871  1.0000
  H   H2648     1.0  0.35336  0.79609  0.27269  1.0000
  H   H2649     1.0  0.65485  0.78822  0.04296  1.0000
  H   H2650     1.0  0.59986  0.76682  0.27780  1.0000
  Fe  Fe337     1.0  0.64124  0.77322  0.19833  1.0000
  C   C1651     1.0  0.55823  0.73562  0.18930  1.0000
  S   S661      1.0  0.61806  0.76426  0.20100  1.0000
  C   C1652     1.0  0.42230  0.79766  0.26046  1.0000
  Fe  Fe338     1.0  0.38997  0.73954  0.28879  1.0000
  H   H2651     1.0  0.62677  0.74146  0.23703  1.0000
  N   N166      1.0  0.41909  0.78115  0.26176  1.0000
  N   N167      1.0  0.55930  0.73444  0.20655  1.0000
  H   H2652     1.0  0.33747  0.79409  0.18862  1.0000
  H   H2653     1.0  0.54674  0.74449  0.18615  1.0000
  C   C1653     1.0  0.33194  0.75730  0.29502  1.0000
  S   S662      1.0  0.56658  0.77590  0.26750  1.0000
  Fe  Fe339     1.0  0.55870  0.75171  0.27961  1.0000
  H   H2654     1.0  0.64325  0.83801  0.11301  1.0000
  H   H2655     1.0  0.63918  0.74889  0.09883  1.0000
  H   H2656     1.0  0.54762  0.76027  0.20589  1.0000
  C   C1654     1.0  0.59790  0.77500  0.28659  1.0000
  H   H2657     1.0  0.33732  0.75961  0.18361  1.0000
  C   C1655     1.0  0.65622  0.83098  0.11350  1.0000
  C   C1656     1.0  0.35676  0.78521  0.23632  1.0000
  H   H2658     1.0  0.33732  0.91147  0.12143  1.0000
  C   C1657     1.0  0.41339  0.77349  0.27946  1.0000
  H   H2659     1.0  0.39405  0.79100  0.25790  1.0000
  H   H2660     1.0  0.44459  0.76806  0.26153  1.0000
  C   C1658     1.0  0.43461  0.77030  0.25458  1.0000
  C   C1659     1.0  0.61064  0.78813  0.30007  1.0000
  H   H2661     1.0  0.63349  0.81189  0.12839  1.0000
  N   N168      1.0  0.61390  0.77723  0.28828  1.0000
  H   H2662     1.0  0.40164  0.78125  0.28533  1.0000
  H   H2663     1.0  0.42658  0.80384  0.24726  1.0000
  H   H2664     1.0  0.62580  0.77707  0.26257  1.0000
  H   H2665     1.0  0.41081  0.80610  0.26583  1.0000
  H   H2666     1.0  0.55955  0.75071  0.22163  1.0000
  C   C1660     1.0  0.33294  0.92525  0.11960  1.0000
  C   C1661     1.0  0.36699  0.77247  0.26673  1.0000
  H   H2667     1.0  0.58988  0.78709  0.28179  1.0000
  C   C1662     1.0  0.64978  0.76019  0.03874  1.0000
  H   H2668     1.0  0.34031  0.76388  0.20195  1.0000
  C   C1663     1.0  0.33071  0.76345  0.19558  1.0000
  H   H2669     1.0  0.42298  0.77153  0.28678  1.0000
  H   H2670     1.0  0.43210  0.79658  0.26725  1.0000
  C   C1664     1.0  0.62406  0.76083  0.29462  1.0000
  C   C1665     1.0  0.62301  0.78495  0.27183  1.0000
  C   C1666     1.0  0.65159  0.74321  0.10102  1.0000
  C   C1667     1.0  0.35197  0.79484  0.24834  1.0000
  S   S663      1.0  0.37311  0.76493  0.28586  1.0000
  H   H2671     1.0  0.65391  0.74708  0.03718  1.0000
  C   C1668     1.0  0.35712  0.78851  0.26348  1.0000
  C   C1669     1.0  0.65529  0.78789  0.02992  1.0000
  H   H2672     1.0  0.37915  0.75022  0.25732  1.0000
  H   H2673     1.0  0.40335  0.77087  0.25333  1.0000
  H   H2674     1.0  0.37037  0.76161  0.23031  1.0000
  H   H2675     1.0  0.62244  0.79029  0.30143  1.0000
  C   C1670     1.0  0.58038  0.77340  0.24857  1.0000
  C   C1671     1.0  0.57941  0.76162  0.24051  1.0000
  C   C1672     1.0  0.59076  0.75923  0.22561  1.0000
  C   C1673     1.0  0.60341  0.76824  0.21903  1.0000
  C   C1674     1.0  0.60456  0.77982  0.22723  1.0000
  C   C1675     1.0  0.59288  0.78261  0.24186  1.0000
  H   H2676     1.0  0.56987  0.75439  0.24574  1.0000
  H   H2677     1.0  0.59007  0.75009  0.21941  1.0000
  H   H2678     1.0  0.61432  0.78680  0.22222  1.0000
  H   H2679     1.0  0.59365  0.79173  0.24806  1.0000
  H   H2680     1.0  0.57004  0.75601  0.20020  1.0000
  H   H2681     1.0  0.40977  0.78897  0.23921  1.0000
  H   H2682     1.0  0.64808  0.79215  0.12919  1.0000
  H   H2683     1.0  0.64902  0.77621  0.00675  1.0000
  Fe  Fe340     1.0  0.32907  0.81542  0.22067  1.0000
  H   H2684     1.0  0.60269  0.80051  0.29590  1.0000
  H   H2685     1.0  0.33240  0.74493  0.30381  1.0000
  C   C1676     1.0  0.55912  0.75110  0.20864  1.0000
  H   H2686     1.0  0.63684  0.76492  0.03666  1.0000
  H   H2687     1.0  0.63622  0.76208  0.29605  1.0000
  H   H2688     1.0  0.64923  0.75995  0.05198  1.0000
  H   H2689     1.0  0.64925  0.80668  0.14027  1.0000
  S   S664      1.0  0.33046  0.83942  0.22562  1.0000
  H   H2690     1.0  0.56919  0.73976  0.18012  1.0000
  C   C1677     1.0  0.64674  0.80564  0.12853  1.0000
  H   H2691     1.0  0.62671  0.75225  0.28609  1.0000
  H   H2692     1.0  0.64138  0.81806  0.09747  1.0000
  H   H2693     1.0  0.53285  0.73661  0.21617  1.0000
  H   H2694     1.0  0.34169  0.75545  0.28362  1.0000
  H   H2695     1.0  0.33530  0.78938  0.17021  1.0000
  C   C1678     1.0  0.65439  0.81161  0.09847  1.0000
  H   H2696     1.0  0.33469  0.93053  0.10595  1.0000
  H   H2697     1.0  0.32442  0.78066  0.26823  1.0000
  H   H2698     1.0  0.65748  0.94640  0.14500  1.0000
  S   S665      1.0  0.65728  0.75902  0.21650  1.0000
  S   S666      1.0  0.63737  0.77490  0.36712  1.0000
  H   H2699     1.0  0.62333  0.82779  0.63919  1.0000
  Fe  Fe341     1.0  0.42879  0.76299  0.61305  1.0000
  C   C1679     1.0  0.36992  0.76656  0.57907  1.0000
  Fe  Fe342     1.0  0.52527  0.77945  0.63842  1.0000
  Fe  Fe343     1.0  0.39622  0.77169  0.63697  1.0000
  H   H2700     1.0  0.37512  0.73543  0.50173  1.0000
  H   H2701     1.0  0.33141  0.82396  0.59683  1.0000
  C   C1680     1.0  0.41881  0.83379  0.63462  1.0000
  H   H2702     1.0  0.32962  0.78863  0.61720  1.0000
  H   H2703     1.0  0.39064  0.80963  0.62956  1.0000
  S   S667      1.0  0.40737  0.78521  0.61160  1.0000
  S   S668      1.0  0.37970  0.78072  0.58256  1.0000
  C   C1681     1.0  0.65397  0.81520  0.39472  1.0000
  H   H2704     1.0  0.60222  0.87253  0.63162  1.0000
  H   H2705     1.0  0.44314  0.80078  0.61840  1.0000
  H   H2706     1.0  0.59533  0.83841  0.63245  1.0000
  C   C1682     1.0  0.47011  0.77462  0.64184  1.0000
  H   H2707     1.0  0.60263  0.78759  0.52015  1.0000
  Fe  Fe344     1.0  0.40576  0.73866  0.62675  1.0000
  H   H2708     1.0  0.37392  0.73700  0.39052  1.0000
  Fe  Fe345     1.0  0.55742  0.77692  0.61197  1.0000
  S   S669      1.0  0.54274  0.79717  0.62569  1.0000
  S   S670      1.0  0.56910  0.78529  0.58475  1.0000
  Fe  Fe346     1.0  0.62752  0.75380  0.36521  1.0000
  C   C1683     1.0  0.60903  0.78312  0.50848  1.0000
  C   C1684     1.0  0.48624  0.77747  0.63429  1.0000
  C   C1685     1.0  0.37989  0.81476  0.63809  1.0000
  S   S671      1.0  0.53891  0.76029  0.62321  1.0000
  C   C1686     1.0  0.35413  0.74420  0.57324  1.0000
  N   N169      1.0  0.34384  0.80659  0.61542  1.0000
  H   H2709     1.0  0.63545  0.78097  0.58601  1.0000
  C   C1687     1.0  0.65569  0.76970  0.55953  1.0000
  H   H2710     1.0  0.60528  0.75495  0.48907  1.0000
  H   H2711     1.0  0.60863  0.77574  0.47998  1.0000
  C   C1688     1.0  0.60106  0.74712  0.34347  1.0000
  H   H2712     1.0  0.60821  0.79407  0.49781  1.0000
  C   C1689     1.0  0.36040  0.81026  0.60677  1.0000
  C   C1690     1.0  0.61019  0.76503  0.49076  1.0000
  C   C1691     1.0  0.37267  0.74981  0.58735  1.0000
  S   S672      1.0  0.38247  0.75858  0.62753  1.0000
  S   S673      1.0  0.62330  0.74316  0.39288  1.0000
  N   N170      1.0  0.60174  0.77001  0.50676  1.0000
  C   C1692     1.0  0.61181  0.86086  0.63396  1.0000
  H   H2713     1.0  0.65172  0.73898  0.57637  1.0000
  C   C1693     1.0  0.63996  0.78432  0.45788  1.0000
  C   C1694     1.0  0.63949  0.76718  0.58767  1.0000
  H   H2714     1.0  0.61733  0.75047  0.52123  1.0000
  C   C1695     1.0  0.64719  0.76999  0.45128  1.0000
  Fe  Fe347     1.0  0.63538  0.76295  0.39428  1.0000
  S   S674      1.0  0.60902  0.76175  0.34838  1.0000
  H   H2715     1.0  0.62985  0.76277  0.58446  1.0000
  C   C1696     1.0  0.58286  0.74189  0.32879  1.0000
  C   C1697     1.0  0.35914  0.77213  0.56791  1.0000
  H   H2716     1.0  0.38094  0.74532  0.59597  1.0000
  C   C1698     1.0  0.37193  0.83154  0.63379  1.0000
  C   C1699     1.0  0.46089  0.77007  0.63306  1.0000
  H   H2717     1.0  0.42309  0.84388  0.62421  1.0000
  N   N171      1.0  0.43119  0.81784  0.63470  1.0000
  H   H2718     1.0  0.34658  0.74053  0.42169  1.0000
  S   S675      1.0  0.32883  0.75636  0.52899  1.0000
  C   C1700     1.0  0.62838  0.79697  0.45025  1.0000
  H   H2719     1.0  0.62274  0.80806  0.45522  1.0000
  C   C1701     1.0  0.37544  0.73766  0.53236  1.0000
  H   H2720     1.0  0.45689  0.80821  0.63654  1.0000
  H   H2721     1.0  0.43907  0.82227  0.60800  1.0000
  H   H2722     1.0  0.64637  0.76543  0.55575  1.0000
  C   C1702     1.0  0.44709  0.81987  0.63685  1.0000
  C   C1703     1.0  0.62391  0.79544  0.43630  1.0000
  C   C1704     1.0  0.63114  0.78136  0.42945  1.0000
  C   C1705     1.0  0.60395  0.75541  0.52070  1.0000
  S   S676      1.0  0.65515  0.77381  0.51896  1.0000
  C   C1706     1.0  0.43402  0.81288  0.61874  1.0000
  H   H2723     1.0  0.64466  0.80863  0.40420  1.0000
  H   H2724     1.0  0.58091  0.85515  0.64118  1.0000
  N   N172      1.0  0.65618  0.76232  0.57718  1.0000
  C   C1707     1.0  0.61635  0.75174  0.56133  1.0000
  C   C1708     1.0  0.61201  0.76854  0.55366  1.0000
  C   C1709     1.0  0.59751  0.77879  0.56100  1.0000
  C   C1710     1.0  0.58756  0.77238  0.57623  1.0000
  C   C1711     1.0  0.59225  0.75572  0.58415  1.0000
  C   C1712     1.0  0.60654  0.74540  0.57664  1.0000
  H   H2725     1.0  0.61965  0.77357  0.54199  1.0000
  H   H2726     1.0  0.59395  0.79172  0.55491  1.0000
  H   H2727     1.0  0.58461  0.75067  0.59586  1.0000
  H   H2728     1.0  0.64848  0.82880  0.39296  1.0000
  C   C1713     1.0  0.46767  0.76854  0.61657  1.0000
  H   H2729     1.0  0.57355  0.74664  0.32132  1.0000
  C   C1714     1.0  0.34194  0.79183  0.61086  1.0000
  H   H2730     1.0  0.37060  0.79967  0.61043  1.0000
  C   C1715     1.0  0.49321  0.77532  0.61801  1.0000
  C   C1716     1.0  0.48395  0.77090  0.60920  1.0000
  S   S677      1.0  0.65299  0.73763  0.35913  1.0000
  S   S678      1.0  0.64446  0.78743  0.47566  1.0000
  H   H2731     1.0  0.50556  0.77756  0.61200  1.0000
  H   H2732     1.0  0.48935  0.76965  0.59648  1.0000
  H   H2733     1.0  0.58165  0.78762  0.49680  1.0000
  C   C1717     1.0  0.58887  0.75302  0.33387  1.0000
  H   H2734     1.0  0.63933  0.76179  0.60111  1.0000
  H   H2735     1.0  0.42226  0.81142  0.61659  1.0000
  S   S679      1.0  0.62479  0.78097  0.41156  1.0000
  H   H2736     1.0  0.63697  0.82635  0.37028  1.0000
  S   S680      1.0  0.41832  0.75035  0.63899  1.0000
  S   S681      1.0  0.41797  0.74948  0.60077  1.0000
  C   C1718     1.0  0.35123  0.76100  0.56502  1.0000
  H   H2737     1.0  0.37640  0.83920  0.62186  1.0000
  H   H2738     1.0  0.62385  0.76045  0.48987  1.0000
  S   S682      1.0  0.45619  0.76400  0.60460  1.0000
  H   H2739     1.0  0.33206  0.83255  0.61344  1.0000
  H   H2740     1.0  0.58398  0.76627  0.33040  1.0000
  H   H2741     1.0  0.65228  0.78356  0.55709  1.0000
  H   H2742     1.0  0.61481  0.80534  0.43069  1.0000
  S   S683      1.0  0.57309  0.76413  0.63075  1.0000
  H   H2743     1.0  0.59732  0.75862  0.53293  1.0000
  C   C1719     1.0  0.64289  0.76858  0.43692  1.0000
  H   H2744     1.0  0.59908  0.74504  0.51957  1.0000
  Fe  Fe348     1.0  0.39532  0.77020  0.60217  1.0000
  H   H2745     1.0  0.36217  0.81250  0.59301  1.0000
  H   H2746     1.0  0.35698  0.78505  0.56141  1.0000
  H   H2747     1.0  0.38014  0.74797  0.52261  1.0000
  C   C1720     1.0  0.58376  0.77654  0.50710  1.0000
  S   S684      1.0  0.65308  0.74276  0.50365  1.0000
  S   S685      1.0  0.63381  0.73824  0.55210  1.0000
  H   H2748     1.0  0.57787  0.76698  0.50578  1.0000
  H   H2749     1.0  0.57699  0.78039  0.51904  1.0000
  H   H2750     1.0  0.34776  0.74175  0.35145  1.0000
  H   H2751     1.0  0.62249  0.77847  0.50870  1.0000
  H   H2752     1.0  0.34302  0.76539  0.55636  1.0000
  Fe  Fe349     1.0  0.65150  0.74761  0.52858  1.0000
  C   C1721     1.0  0.36486  0.73870  0.58440  1.0000
  H   H2753     1.0  0.35175  0.78069  0.61433  1.0000
  H   H2754     1.0  0.35223  0.79243  0.63777  1.0000
  H   H2755     1.0  0.36214  0.82150  0.60968  1.0000
  H   H2756     1.0  0.64852  0.75761  0.43174  1.0000
  H   H2757     1.0  0.62234  0.86418  0.63679  1.0000
  H   H2758     1.0  0.61664  0.85626  0.62220  1.0000
  C   C1722     1.0  0.33073  0.82113  0.61045  1.0000
  H   H2759     1.0  0.65751  0.78913  0.33586  1.0000
  H   H2760     1.0  0.40660  0.83267  0.63321  1.0000
  H   H2761     1.0  0.34322  0.79388  0.59718  1.0000
  H   H2762     1.0  0.63361  0.80599  0.38145  1.0000
  H   H2763     1.0  0.45516  0.73572  0.63816  1.0000
  S   S686      1.0  0.34659  0.85853  0.63845  1.0000
  H   H2764     1.0  0.35209  0.73908  0.39168  1.0000
  H   H2765     1.0  0.65483  0.81783  0.31833  1.0000
  C   C1723     1.0  0.34235  0.80316  0.63361  1.0000
  C   C1724     1.0  0.64299  0.81286  0.37251  1.0000
  Fe  Fe350     1.0  0.55321  0.74954  0.64355  1.0000
  H   H2766     1.0  0.65617  0.76013  0.45710  1.0000
  H   H2767     1.0  0.44850  0.76791  0.63895  1.0000
  H   H2768     1.0  0.45212  0.82979  0.62676  1.0000
  H   H2769     1.0  0.34359  0.81410  0.63745  1.0000
  H   H2770     1.0  0.60415  0.78250  0.31274  1.0000
  H   H2771     1.0  0.36178  0.74207  0.53650  1.0000
  H   H2772     1.0  0.64578  0.80889  0.36051  1.0000
  Fe  Fe351     1.0  0.32732  0.73623  0.55218  1.0000
  H   H2773     1.0  0.38098  0.73570  0.54330  1.0000
  H   H2774     1.0  0.33353  0.73761  0.45751  1.0000
  S   S687      1.0  0.33711  0.73613  0.49058  1.0000
  H   H2775     1.0  0.36854  0.73780  0.42023  1.0000
  H   H2776     1.0  0.33003  0.80026  0.64062  1.0000
  H   H2777     1.0  0.65715  0.84366  0.63424  1.0000
  H   H2778     1.0  0.65696  0.78431  0.39152  1.0000
  C   C1725     1.0  0.64165  0.76801  0.88774  1.0000
  C   C1726     1.0  0.63497  0.95486  0.73680  1.0000
  S   S688      1.0  0.57612  0.79126  0.65505  1.0000
  N   N173      1.0  0.64349  0.94263  0.74943  1.0000
  H   H2779     1.0  0.54825  0.81376  0.67263  1.0000
  H   H2780     1.0  0.64527  0.94013  0.77465  1.0000
  H   H2781     1.0  0.34124  0.83378  0.66854  1.0000
  C   C1727     1.0  0.65111  0.73898  0.88557  1.0000
  S   S689      1.0  0.53888  0.76787  0.65945  1.0000
  H   H2782     1.0  0.41304  0.80264  0.64715  1.0000
  H   H2783     1.0  0.57964  0.75502  0.66653  1.0000
  C   C1728     1.0  0.64655  0.78394  0.77919  1.0000
  C   C1729     1.0  0.36023  0.75437  0.69773  1.0000
  C   C1730     1.0  0.36017  0.81175  0.66455  1.0000
  H   H2784     1.0  0.33883  0.81523  0.70624  1.0000
  H   H2785     1.0  0.55841  0.77230  0.68487  1.0000
  H   H2786     1.0  0.62464  0.92794  0.75774  1.0000
  H   H2787     1.0  0.63813  0.95043  0.72500  1.0000
  S   S690      1.0  0.61362  0.75307  0.83303  1.0000
  H   H2788     1.0  0.46473  0.77606  0.65451  1.0000
  H   H2789     1.0  0.64451  0.91708  0.76248  1.0000
  C   C1731     1.0  0.35364  0.75433  0.72704  1.0000
  C   C1732     1.0  0.64320  0.80014  0.76963  1.0000
  Fe  Fe352     1.0  0.59917  0.83702  0.70846  1.0000
  S   S691      1.0  0.62302  0.82523  0.69328  1.0000
  S   S692      1.0  0.57431  0.83417  0.70580  1.0000
  Fe  Fe353     1.0  0.61796  0.85153  0.72535  1.0000
  S   S693      1.0  0.64301  0.84058  0.71128  1.0000
  S   S694      1.0  0.61700  0.86452  0.74548  1.0000
  Fe  Fe354     1.0  0.63082  0.84921  0.68934  1.0000
  C   C1733     1.0  0.64795  0.78897  0.74519  1.0000
  Fe  Fe355     1.0  0.63255  0.81789  0.71661  1.0000
  H   H2790     1.0  0.35321  0.74372  0.77249  1.0000
  S   S695      1.0  0.60627  0.86190  0.70290  1.0000
  S   S696      1.0  0.60820  0.82796  0.73239  1.0000
  H   H2791     1.0  0.58916  0.76813  0.68289  1.0000
  S   S697      1.0  0.64315  0.85874  0.66285  1.0000
  H   H2792     1.0  0.37935  0.73756  0.75176  1.0000
  N   N174      1.0  0.57482  0.74925  0.69330  1.0000
  H   H2793     1.0  0.59365  0.84553  0.67386  1.0000
  H   H2794     1.0  0.64127  0.80330  0.85723  1.0000
  H   H2795     1.0  0.65465  0.75784  0.77886  1.0000
  H   H2796     1.0  0.55504  0.76522  0.70707  1.0000
  H   H2797     1.0  0.62529  0.95102  0.77012  1.0000
  C   C1734     1.0  0.57876  0.74416  0.67725  1.0000
  H   H2798     1.0  0.60062  0.79379  0.67019  1.0000
  H   H2799     1.0  0.38722  0.74803  0.72271  1.0000
  S   S698      1.0  0.64207  0.78064  0.80086  1.0000
  C   C1735     1.0  0.63001  0.77008  0.87812  1.0000
  C   C1736     1.0  0.62918  0.75677  0.87193  1.0000
  H   H2800     1.0  0.35603  0.78367  0.70541  1.0000
  H   H2801     1.0  0.44559  0.82319  0.64895  1.0000
  Fe  Fe356     1.0  0.60814  0.73592  0.82023  1.0000
  H   H2802     1.0  0.62163  0.78203  0.87541  1.0000
  H   H2803     1.0  0.62011  0.75849  0.86459  1.0000
  C   C1737     1.0  0.42480  0.80485  0.64858  1.0000
  S   S699      1.0  0.64273  0.78520  0.89476  1.0000
  C   C1738     1.0  0.65234  0.75247  0.89130  1.0000
  H   H2804     1.0  0.57123  0.73780  0.71942  1.0000
  C   C1739     1.0  0.61809  0.83305  0.65054  1.0000
  C   C1740     1.0  0.63460  0.87229  0.74440  1.0000
  H   H2805     1.0  0.34108  0.76231  0.72600  1.0000
  H   H2806     1.0  0.61328  0.82315  0.66076  1.0000
  C   C1741     1.0  0.63835  0.92659  0.75298  1.0000
  C   C1742     1.0  0.64378  0.80265  0.75262  1.0000
  H   H2807     1.0  0.35718  0.75733  0.73730  1.0000
  C   C1743     1.0  0.65319  0.80770  0.85338  1.0000
  S   S700      1.0  0.49680  0.78493  0.64498  1.0000
  C   C1744     1.0  0.32759  0.81042  0.70941  1.0000
  C   C1745     1.0  0.57446  0.80267  0.66999  1.0000
  C   C1746     1.0  0.58903  0.80164  0.67514  1.0000
  C   C1747     1.0  0.58882  0.81064  0.68666  1.0000
  C   C1748     1.0  0.57420  0.82136  0.69271  1.0000
  C   C1749     1.0  0.55949  0.82227  0.68778  1.0000
  C   C1750     1.0  0.55957  0.81284  0.67653  1.0000
  C   C1751     1.0  0.37396  0.80481  0.65343  1.0000
  H   H2808     1.0  0.60003  0.80928  0.69081  1.0000
  H   H2809     1.0  0.54805  0.83045  0.69249  1.0000
  H   H2810     1.0  0.58491  0.76223  0.70517  1.0000
  C   C1752     1.0  0.35773  0.83826  0.64465  1.0000
  H   H2811     1.0  0.35554  0.80418  0.67648  1.0000
  N   N175      1.0  0.36602  0.75733  0.71122  1.0000
  S   S701      1.0  0.62840  0.74065  0.79764  1.0000
  C   C1753     1.0  0.65229  0.77284  0.75455  1.0000
  S   S702      1.0  0.58340  0.73807  0.81394  1.0000
  S   S703      1.0  0.33682  0.79320  0.73872  1.0000
  H   H2812     1.0  0.41645  0.83798  0.64644  1.0000
  H   H2813     1.0  0.64434  0.87346  0.71821  1.0000
  H   H2814     1.0  0.62117  0.95707  0.74123  1.0000
  H   H2815     1.0  0.60855  0.85856  0.66640  1.0000
  H   H2816     1.0  0.52107  0.73480  0.70580  1.0000
  H   H2817     1.0  0.54833  0.75515  0.69496  1.0000
  H   H2818     1.0  0.43397  0.79276  0.64933  1.0000
  S   S704      1.0  0.33135  0.77209  0.78678  1.0000
  H   H2819     1.0  0.64185  0.92129  0.74165  1.0000
  Fe  Fe357     1.0  0.55770  0.78350  0.64527  1.0000
  H   H2820     1.0  0.37179  0.77765  0.71730  1.0000
  H   H2821     1.0  0.58823  0.86607  0.66165  1.0000
  H   H2822     1.0  0.36926  0.75666  0.68559  1.0000
  C   C1754     1.0  0.58788  0.75741  0.69364  1.0000
  H   H2823     1.0  0.56892  0.73844  0.67634  1.0000
  N   N176      1.0  0.60485  0.84819  0.64779  1.0000
  H   H2824     1.0  0.62857  0.83572  0.65405  1.0000
  S   S705      1.0  0.65341  0.73421  0.82293  1.0000
  C   C1755     1.0  0.35197  0.82841  0.66007  1.0000
  C   C1756     1.0  0.64609  0.87572  0.72937  1.0000
  Fe  Fe358     1.0  0.63538  0.75562  0.81150  1.0000
  C   C1757     1.0  0.55844  0.76100  0.69516  1.0000
  H   H2825     1.0  0.64063  0.81517  0.74540  1.0000
  H   H2826     1.0  0.37745  0.77742  0.69545  1.0000
  C   C1758     1.0  0.59855  0.85490  0.66306  1.0000
  H   H2827     1.0  0.35872  0.74130  0.70036  1.0000
  C   C1759     1.0  0.63689  0.87559  0.75874  1.0000
  H   H2828     1.0  0.64286  0.96097  0.76267  1.0000
  C   C1760     1.0  0.36797  0.77477  0.70714  1.0000
  C   C1761     1.0  0.38225  0.74590  0.71291  1.0000
  C   C1762     1.0  0.65164  0.77034  0.77156  1.0000
  C   C1763     1.0  0.63896  0.94897  0.76486  1.0000
  S   S706      1.0  0.38341  0.78365  0.65880  1.0000
  N   N177      1.0  0.59337  0.79226  0.78065  1.0000
  C   C1764     1.0  0.58691  0.78093  0.79617  1.0000
  C   C1765     1.0  0.57969  0.80132  0.77195  1.0000
  C   C1766     1.0  0.60660  0.78242  0.76979  1.0000
  C   C1767     1.0  0.60033  0.80435  0.78472  1.0000
  H   H2829     1.0  0.59700  0.77366  0.80290  1.0000
  H   H2830     1.0  0.58143  0.77170  0.79360  1.0000
  H   H2831     1.0  0.57707  0.78785  0.80486  1.0000
  H   H2832     1.0  0.57420  0.79257  0.76864  1.0000
  H   H2833     1.0  0.56946  0.80886  0.77981  1.0000
  H   H2834     1.0  0.58416  0.81000  0.76020  1.0000
  H   H2835     1.0  0.60185  0.77307  0.76656  1.0000
  H   H2836     1.0  0.61708  0.77546  0.77603  1.0000
  H   H2837     1.0  0.61187  0.79052  0.75795  1.0000
  H   H2838     1.0  0.60586  0.81276  0.77326  1.0000
  H   H2839     1.0  0.61037  0.79789  0.79173  1.0000
  H   H2840     1.0  0.59063  0.81230  0.79256  1.0000
  H   H2841     1.0  0.65044  0.82128  0.84773  1.0000
  C   C1768     1.0  0.65059  0.88213  0.75810  1.0000
  H   H2842     1.0  0.62807  0.87297  0.77042  1.0000
  H   H2843     1.0  0.34802  0.76282  0.69611  1.0000
  H   H2844     1.0  0.65545  0.76222  0.74888  1.0000
  H   H2845     1.0  0.60027  0.74867  0.69288  1.0000
  H   H2846     1.0  0.64790  0.79721  0.82881  1.0000
  H   H2847     1.0  0.35242  0.74109  0.73101  1.0000
  C   C1769     1.0  0.63958  0.74111  0.87581  1.0000
  H   H2848     1.0  0.63938  0.81070  0.77549  1.0000
  S   S707      1.0  0.64657  0.79187  0.72456  1.0000
  C   C1770     1.0  0.57421  0.73443  0.70711  1.0000
  H   H2849     1.0  0.56272  0.73403  0.79432  1.0000
  H   H2850     1.0  0.59076  0.73489  0.67552  1.0000
  H   H2851     1.0  0.58523  0.83475  0.65405  1.0000
  H   H2852     1.0  0.42210  0.80839  0.66078  1.0000
  H   H2853     1.0  0.63863  0.96708  0.73381  1.0000
  H   H2854     1.0  0.65228  0.88446  0.76927  1.0000
  H   H2855     1.0  0.39178  0.74754  0.70108  1.0000
  H   H2856     1.0  0.52994  0.73794  0.67527  1.0000
  H   H2857     1.0  0.65705  0.77542  0.85180  1.0000
  H   H2858     1.0  0.65749  0.80621  0.86497  1.0000
  C   C1771     1.0  0.59100  0.84397  0.64364  1.0000
  Fe  Fe359     1.0  0.75554  0.12544  0.98914  1.0000
  H   H2859     1.0  0.79981  0.13308  0.29852  1.0000
  C   C1772     1.0  0.73191  0.19853  0.18569  1.0000
  H   H2860     1.0  0.69822  0.09278  0.15735  1.0000
  S   S708      1.0  0.70885  0.13823  0.17298  1.0000
  H   H2861     1.0  0.71362  0.11969  0.10938  1.0000
  H   H2862     1.0  0.69690  0.12713  0.08825  1.0000
  C   C1773     1.0  0.73199  0.18191  0.18664  1.0000
  H   H2863     1.0  0.73551  0.21570  0.19792  1.0000
  C   C1774     1.0  0.78103  0.09264  0.06819  1.0000
  S   S709      1.0  0.72387  0.09662  0.20039  1.0000
  H   H2864     1.0  0.70335  0.17885  0.22460  1.0000
  S   S710      1.0  0.84587  0.17209  0.30563  1.0000
  H   H2865     1.0  0.76710  0.08759  0.19322  1.0000
  H   H2866     1.0  0.74021  0.17175  0.13579  1.0000
  S   S711      1.0  0.77108  0.22255  0.06473  1.0000
  H   H2867     1.0  0.78395  0.13237  0.06471  1.0000
  C   C1775     1.0  0.70951  0.09454  0.17624  1.0000
  S   S712      1.0  0.82371  0.21523  0.28674  1.0000
  Fe  Fe360     1.0  0.73856  0.11959  0.02583  1.0000
  S   S713      1.0  0.72869  0.12663  0.00231  1.0000
  S   S714      1.0  0.72871  0.10380  0.05063  1.0000
  Fe  Fe361     1.0  0.76219  0.14292  0.01270  1.0000
  H   H2868     1.0  0.82357  0.16318  0.26782  1.0000
  S   S715      1.0  0.78291  0.15198  0.01660  1.0000
  Fe  Fe362     1.0  0.72858  0.15280  0.00273  1.0000
  S   S716      1.0  0.71077  0.17508  0.99173  1.0000
  C   C1776     1.0  0.98774  0.15012  0.25901  1.0000
  S   S717      1.0  0.75473  0.15203  0.98820  1.0000
  S   S718      1.0  0.73588  0.14608  0.02733  1.0000
  S   S719      1.0  0.76554  0.11606  0.01260  1.0000
  Fe  Fe363     1.0  0.76635  0.03186  0.10982  1.0000
  S   S720      1.0  0.73991  0.02875  0.12034  1.0000
  S   S721      1.0  0.77655  0.03903  0.08225  1.0000
  Fe  Fe364     1.0  0.77444  0.02471  0.14389  1.0000
  S   S722      1.0  0.74855  0.02155  0.15707  1.0000
  S   S723      1.0  0.79384  0.01832  0.15931  1.0000
  Fe  Fe365     1.0  0.75075  0.00658  0.13837  1.0000
  C   C1777     1.0  0.67489  0.13215  0.27640  1.0000
  Fe  Fe366     1.0  0.74033  0.04391  0.13787  1.0000
  S   S724      1.0  0.71942  0.06578  0.14283  1.0000
  S   S725      1.0  0.77731  0.00836  0.12635  1.0000
  S   S726      1.0  0.76608  0.04845  0.12617  1.0000
  Fe  Fe367     1.0  0.83109  0.06017  0.23556  1.0000
  S   S727      1.0  0.83463  0.08118  0.21340  1.0000
  S   S728      1.0  0.81711  0.06552  0.26048  1.0000
  S   S729      1.0  0.85603  0.05248  0.19249  1.0000
  Fe  Fe368     1.0  0.86118  0.06685  0.20843  1.0000
  S   S730      1.0  0.88336  0.07940  0.20004  1.0000
  Fe  Fe369     1.0  0.82911  0.06489  0.19980  1.0000
  S   S731      1.0  0.81206  0.07473  0.18156  1.0000
  S   S732      1.0  0.82319  0.04510  0.22260  1.0000
  Fe  Fe370     1.0  0.94646  0.14229  0.21205  1.0000
  S   S733      1.0  0.95620  0.11651  0.22561  1.0000
  S   S734      1.0  0.95131  0.15028  0.18424  1.0000
  Fe  Fe371     1.0  0.92835  0.15424  0.24361  1.0000
  S   S735      1.0  0.93669  0.12950  0.26001  1.0000
  S   S736      1.0  0.91288  0.17767  0.25170  1.0000
  Fe  Fe372     1.0  0.96180  0.12976  0.24234  1.0000
  Fe  Fe373     1.0  0.93029  0.11868  0.24174  1.0000
  S   S737      1.0  0.91328  0.10009  0.25016  1.0000
  S   S738      1.0  0.95377  0.15535  0.22733  1.0000
  S   S739      1.0  0.92019  0.14357  0.22683  1.0000
  C   C1778     1.0  0.78850  0.07717  0.24847  1.0000
  H   H2869     1.0  0.84982  0.01561  0.26426  1.0000
  H   H2870     1.0  0.67402  0.19528  0.26026  1.0000
  H   H2871     1.0  0.97425  0.15252  0.26150  1.0000
  C   C1779     1.0  0.89220  0.08378  0.21445  1.0000
  C   C1780     1.0  0.88439  0.08223  0.23130  1.0000
  C   C1781     1.0  0.89112  0.08706  0.24212  1.0000
  C   C1782     1.0  0.90558  0.09366  0.23620  1.0000
  C   C1783     1.0  0.91354  0.09496  0.21941  1.0000
  C   C1784     1.0  0.90689  0.09003  0.20861  1.0000
  H   H2872     1.0  0.87308  0.07746  0.23598  1.0000
  H   H2873     1.0  0.88498  0.08583  0.25513  1.0000
  H   H2874     1.0  0.92489  0.09968  0.21477  1.0000
  H   H2875     1.0  0.91310  0.09114  0.19563  1.0000
  C   C1785     1.0  0.79690  0.03451  0.16643  1.0000
  C   C1786     1.0  0.80465  0.03038  0.17991  1.0000
  C   C1787     1.0  0.80898  0.04273  0.18479  1.0000
  C   C1788     1.0  0.80555  0.05934  0.17628  1.0000
  C   C1789     1.0  0.79719  0.06361  0.16318  1.0000
  C   C1790     1.0  0.79286  0.05121  0.15826  1.0000
  H   H2876     1.0  0.80749  0.01753  0.18650  1.0000
  H   H2877     1.0  0.81516  0.03935  0.19502  1.0000
  H   H2878     1.0  0.79442  0.07645  0.15657  1.0000
  H   H2879     1.0  0.78683  0.05452  0.14787  1.0000
  C   C1791     1.0  0.74208  0.08546  0.05873  1.0000
  C   C1792     1.0  0.73793  0.07819  0.07569  1.0000
  C   C1793     1.0  0.74847  0.06397  0.08286  1.0000
  C   C1794     1.0  0.76312  0.05659  0.07304  1.0000
  C   C1795     1.0  0.76729  0.06372  0.05599  1.0000
  C   C1796     1.0  0.75683  0.07823  0.04886  1.0000
  H   H2880     1.0  0.72656  0.08358  0.08337  1.0000
  H   H2881     1.0  0.74523  0.05874  0.09603  1.0000
  H   H2882     1.0  0.77862  0.05805  0.04833  1.0000
  H   H2883     1.0  0.76004  0.08360  0.03570  1.0000
  H   H2884     1.0  0.88866  0.20273  0.23390  1.0000
  S   S740      1.0  0.85793  0.04673  0.23149  1.0000
  H   H2885     1.0  0.79871  0.09324  0.27560  1.0000
  C   C1797     1.0  0.86485  0.17313  0.29104  1.0000
  H   H2886     1.0  0.83583  0.99975  0.29114  1.0000
  C   C1798     1.0  0.88555  0.18900  0.27406  1.0000
  C   C1799     1.0  0.89477  0.17533  0.26719  1.0000
  C   C1800     1.0  0.88913  0.16040  0.27237  1.0000
  C   C1801     1.0  0.87421  0.15927  0.28440  1.0000
  H   H2887     1.0  0.72512  0.21002  0.29053  1.0000
  H   H2888     1.0  0.89009  0.20040  0.27045  1.0000
  H   H2889     1.0  0.89630  0.14974  0.26717  1.0000
  H   H2890     1.0  0.87952  0.01401  0.15518  1.0000
  C   C1802     1.0  0.96070  0.19377  0.17791  1.0000
  Fe  Fe374     1.0  0.69153  0.19478  0.08335  1.0000
  H   H2891     1.0  0.97371  0.18748  0.17909  1.0000
  H   H2892     1.0  0.66922  0.12872  0.28989  1.0000
  H   H2893     1.0  0.79336  0.08652  0.07142  1.0000
  H   H2894     1.0  0.80006  0.11394  0.06446  1.0000
  C   C1803     1.0  0.75759  0.20442  0.99421  1.0000
  H   H2895     1.0  0.87328  0.00684  0.14041  1.0000
  C   C1804     1.0  0.78748  0.11981  0.06174  1.0000
  H   H2896     1.0  0.78227  0.09280  0.05485  1.0000
  H   H2897     1.0  0.68160  0.11252  0.13350  1.0000
  C   C1805     1.0  0.73410  0.06737  0.16715  1.0000
  C   C1806     1.0  0.72086  0.07407  0.15893  1.0000
  C   C1807     1.0  0.87053  0.18799  0.28575  1.0000
  C   C1808     1.0  0.79156  0.09178  0.26764  1.0000
  H   H2898     1.0  0.74367  0.05692  0.16365  1.0000
  N   N178      1.0  0.77510  0.10961  0.07146  1.0000
  C   C1809     1.0  0.73638  0.20279  0.19831  1.0000
  C   C1810     1.0  0.67870  0.18862  0.24983  1.0000
  C   C1811     1.0  0.73731  0.16948  0.19976  1.0000
  H   H2899     1.0  0.78541  0.98548  0.20177  1.0000
  H   H2900     1.0  0.72778  0.20819  0.17556  1.0000
  C   C1812     1.0  0.75891  0.11726  0.06655  1.0000
  C   C1813     1.0  0.90263  0.18415  0.17360  1.0000
  C   C1814     1.0  0.90766  0.18372  0.18794  1.0000
  C   C1815     1.0  0.92290  0.17360  0.19098  1.0000
  C   C1816     1.0  0.93316  0.16412  0.17957  1.0000
  C   C1817     1.0  0.92855  0.16528  0.16477  1.0000
  C   C1818     1.0  0.91316  0.17519  0.16186  1.0000
  H   H2901     1.0  0.89956  0.19074  0.19697  1.0000
  H   H2902     1.0  0.92666  0.17309  0.20222  1.0000
  H   H2903     1.0  0.93652  0.15797  0.15592  1.0000
  H   H2904     1.0  0.90925  0.17564  0.15070  1.0000
  C   C1819     1.0  0.77504  0.17071  0.06388  1.0000
  H   H2905     1.0  0.87078  0.22894  0.20829  1.0000
  C   C1820     1.0  0.79219  0.16507  0.03746  1.0000
  C   C1821     1.0  0.77949  0.15933  0.03478  1.0000
  C   C1822     1.0  0.76446  0.15940  0.04665  1.0000
  C   C1823     1.0  0.76230  0.16491  0.06127  1.0000
  H   H2906     1.0  0.71888  0.19629  0.10130  1.0000
  H   H2907     1.0  0.97877  0.18152  0.15119  1.0000
  H   H2908     1.0  0.75459  0.15501  0.04474  1.0000
  H   H2909     1.0  0.75073  0.16479  0.07052  1.0000
  H   H2910     1.0  0.70503  0.10683  0.08372  1.0000
  C   C1824     1.0  0.74123  0.19043  0.21170  1.0000
  S   S741      1.0  0.66695  0.20258  0.07571  1.0000
  H   H2911     1.0  0.68796  0.17722  0.25382  1.0000
  H   H2912     1.0  0.68527  0.09955  0.28920  1.0000
  C   C1825     1.0  0.69496  0.11410  0.09194  1.0000
  H   H2913     1.0  0.75390  0.12999  0.06909  1.0000
  H   H2914     1.0  0.70762  0.20948  0.12586  1.0000
  C   C1826     1.0  0.77626  0.10286  0.26596  1.0000
  C   C1827     1.0  0.77018  0.12796  0.18597  1.0000
  H   H2915     1.0  0.67534  0.14559  0.27351  1.0000
  H   H2916     1.0  0.77221  0.08450  0.07570  1.0000
  H   H2917     1.0  0.83725  0.12467  0.29822  1.0000
  H   H2918     1.0  0.75929  0.13382  0.17999  1.0000
  C   C1828     1.0  0.68487  0.21568  0.02103  1.0000
  H   H2919     1.0  0.75989  0.21614  0.01946  1.0000
  C   C1829     1.0  0.66026  0.19655  0.15523  1.0000
  H   H2920     1.0  0.75733  0.10534  0.17974  1.0000
  C   C1830     1.0  0.82049  0.98955  0.21487  1.0000
  S   S742      1.0  0.77251  0.17717  0.08235  1.0000
  Fe  Fe375     1.0  0.85043  0.03351  0.21614  1.0000
  N   N179      1.0  0.69504  0.10686  0.10975  1.0000
  H   H2921     1.0  0.76848  0.12131  0.09232  1.0000
  C   C1831     1.0  0.83052  0.15412  0.27699  1.0000
  H   H2922     1.0  0.95798  0.17850  0.15543  1.0000
  H   H2923     1.0  0.70309  0.09585  0.27255  1.0000
  H   H2924     1.0  0.73037  0.21918  0.10274  1.0000
  C   C1832     1.0  0.78990  0.17093  0.05186  1.0000
  N   N180      1.0  0.85450  0.01000  0.16259  1.0000
  H   H2925     1.0  0.66135  0.20200  0.14166  1.0000
  H   H2926     1.0  0.81645  0.12816  0.28127  1.0000
  C   C1833     1.0  0.73495  0.07418  0.18002  1.0000
  C   C1834     1.0  0.77291  0.08779  0.24734  1.0000
  C   C1835     1.0  0.70064  0.19034  0.00340  1.0000
  H   H2927     1.0  0.74517  0.06894  0.18638  1.0000
  H   H2928     1.0  0.80071  0.17009  0.29140  1.0000
  H   H2929     1.0  0.81681  0.00911  0.24746  1.0000
  H   H2930     1.0  0.68245  0.10219  0.26849  1.0000
  H   H2931     1.0  0.66725  0.22114  0.23861  1.0000
  C   C1836     1.0  0.76824  0.10032  0.18577  1.0000
  S   S743      1.0  0.86029  0.00590  0.21672  1.0000
  H   H2932     1.0  0.75662  0.17869  0.11905  1.0000
  H   H2933     1.0  0.76458  0.22306  0.20508  1.0000
  H   H2934     1.0  0.85054  0.23193  0.22166  1.0000
  H   H2935     1.0  0.69858  0.19737  0.20912  1.0000
  H   H2936     1.0  0.85157  0.20511  0.11778  1.0000
  S   S744      1.0  0.83268  0.20856  0.09365  1.0000
  Fe  Fe376     1.0  0.68107  0.14845  0.21446  1.0000
  C   C1837     1.0  0.71750  0.20054  0.13194  1.0000
  S   S745      1.0  0.70345  0.21439  0.06425  1.0000
  H   H2937     1.0  0.68724  0.21725  0.30375  1.0000
  H   H2938     1.0  0.68294  0.11439  0.08904  1.0000
  C   C1838     1.0  0.75582  0.20409  0.02292  1.0000
  C   C1839     1.0  0.69196  0.14450  0.13840  1.0000
  H   H2939     1.0  0.72173  0.09889  0.10593  1.0000
  C   C1840     1.0  0.77299  0.10868  0.08941  1.0000
  H   H2940     1.0  0.76004  0.11832  0.05303  1.0000
  H   H2941     1.0  0.74939  0.10969  0.07341  1.0000
  H   H2942     1.0  0.78498  0.10299  0.09353  1.0000
  H   H2943     1.0  0.76380  0.10098  0.09712  1.0000
  H   H2944     1.0  0.80721  0.99709  0.26666  1.0000
  S   S746      1.0  0.66582  0.15621  0.23813  1.0000
  H   H2945     1.0  0.93733  0.21953  0.16646  1.0000
  H   H2946     1.0  0.96669  0.22329  0.16106  1.0000
  S   S747      1.0  0.73118  0.17989  0.27618  1.0000
  H   H2947     1.0  0.80740  0.99464  0.21488  1.0000
  H   H2948     1.0  0.81412  0.03212  0.26046  1.0000
  H   H2949     1.0  0.82218  0.02865  0.27858  1.0000
  C   C1841     1.0  0.71118  0.10691  0.11299  1.0000
  C   C1842     1.0  0.68133  0.11693  0.12003  1.0000
  C   C1843     1.0  0.69267  0.08955  0.11410  1.0000
  H   H2950     1.0  0.71148  0.10199  0.12641  1.0000
  H   H2951     1.0  0.72996  0.21989  0.30405  1.0000
  H   H2952     1.0  0.86073  0.22549  0.12721  1.0000
  C   C1844     1.0  0.81642  0.02281  0.27204  1.0000
  H   H2953     1.0  0.85943  0.02018  0.18069  1.0000
  C   C1845     1.0  0.76536  0.17727  0.30228  1.0000
  C   C1846     1.0  0.79878  0.20995  0.98488  1.0000
  H   H2954     1.0  0.95613  0.20335  0.18562  1.0000
  H   H2955     1.0  0.69199  0.08405  0.12762  1.0000
  S   S748      1.0  0.68068  0.16680  0.19018  1.0000
  H   H2956     1.0  0.76303  0.99174  0.20613  1.0000
  H   H2957     1.0  0.72311  0.21598  0.02331  1.0000
  H   H2958     1.0  0.74319  0.21597  0.11722  1.0000
  C   C1847     1.0  0.94225  0.20944  0.15937  1.0000
  N   N181      1.0  0.88418  0.14004  0.19679  1.0000
  C   C1848     1.0  0.87589  0.12588  0.20496  1.0000
  C   C1849     1.0  0.87988  0.14774  0.18037  1.0000
  C   C1850     1.0  0.90244  0.13403  0.19456  1.0000
  C   C1851     1.0  0.87855  0.15250  0.20731  1.0000
  H   H2959     1.0  0.87920  0.11951  0.21722  1.0000
  H   H2960     1.0  0.87966  0.11636  0.19721  1.0000
  H   H2961     1.0  0.86208  0.12992  0.20712  1.0000
  H   H2962     1.0  0.88592  0.15849  0.17385  1.0000
  H   H2963     1.0  0.88403  0.13866  0.17213  1.0000
  C   C1852     1.0  0.67505  0.15195  0.14274  1.0000
  H   H2964     1.0  0.90910  0.14433  0.18825  1.0000
  H   H2965     1.0  0.90718  0.12434  0.18699  1.0000
  H   H2966     1.0  0.90616  0.12851  0.20673  1.0000
  H   H2967     1.0  0.86483  0.15732  0.20929  1.0000
  H   H2968     1.0  0.88451  0.16338  0.20142  1.0000
  H   H2969     1.0  0.88184  0.14709  0.21971  1.0000
  H   H2970     1.0  0.96513  0.19338  0.13729  1.0000
  H   H2971     1.0  0.69986  0.19752  0.29987  1.0000
  H   H2972     1.0  0.69765  0.11957  0.29551  1.0000
  H   H2973     1.0  0.83856  0.01756  0.18454  1.0000
  H   H2974     1.0  0.81531  0.16732  0.30400  1.0000
  H   H2975     1.0  0.73789  0.15657  0.20026  1.0000
  H   H2976     1.0  0.80404  0.02103  0.27999  1.0000
  H   H2977     1.0  0.74652  0.16404  0.22211  1.0000
  N   N182      1.0  0.82726  0.00694  0.26830  1.0000
  C   C1853     1.0  0.76339  0.19008  0.28824  1.0000
  C   C1854     1.0  0.74211  0.17372  0.21218  1.0000
  C   C1855     1.0  0.70858  0.08765  0.16351  1.0000
  H   H2978     1.0  0.78865  0.12166  0.04809  1.0000
  N   N183      1.0  0.68607  0.19930  0.23426  1.0000
  H   H2979     1.0  0.98828  0.17060  0.26887  1.0000
  H   H2980     1.0  0.68353  0.18447  0.21884  1.0000
  S   S749      1.0  0.81002  0.20200  0.06151  1.0000
  H   H2981     1.0  0.83568  0.02469  0.14889  1.0000
  S   S750      1.0  0.74500  0.19596  0.22839  1.0000
  C   C1856     1.0  0.84736  0.99331  0.21588  1.0000
  H   H2982     1.0  0.66781  0.20238  0.15984  1.0000
  C   C1857     1.0  0.97030  0.21370  0.15345  1.0000
  H   H2983     1.0  0.84428  0.00400  0.14513  1.0000
  N   N184      1.0  0.69170  0.12166  0.27206  1.0000
  C   C1858     1.0  0.74159  0.18687  0.01608  1.0000
  C   C1859     1.0  0.69940  0.20541  0.23722  1.0000
  H   H2984     1.0  0.86546  0.02805  0.14273  1.0000
  H   H2985     1.0  0.70614  0.17519  0.02673  1.0000
  N   N185      1.0  0.81903  0.14708  0.29205  1.0000
  H   H2986     1.0  0.89609  0.22040  0.21992  1.0000
  H   H2987     1.0  0.69448  0.21288  0.24699  1.0000
  N   N186      1.0  0.95972  0.20124  0.16034  1.0000
  H   H2988     1.0  0.95301  0.18420  0.18351  1.0000
  C   C1860     1.0  0.69884  0.12696  0.25414  1.0000
  H   H2989     1.0  0.86996  0.14768  0.28851  1.0000
  H   H2990     1.0  0.69985  0.10490  0.17979  1.0000
  C   C1861     1.0  0.69318  0.18957  0.22113  1.0000
  H   H2991     1.0  0.74812  0.20273  0.03583  1.0000
  H   H2992     1.0  0.67911  0.23067  0.99777  1.0000
  H   H2993     1.0  0.80390  0.16495  0.02842  1.0000
  H   H2994     1.0  0.77979  0.09887  0.17585  1.0000
  H   H2995     1.0  0.96911  0.22036  0.14052  1.0000
  C   C1862     1.0  0.68504  0.21861  0.00412  1.0000
  H   H2996     1.0  0.82502  0.01259  0.21649  1.0000
  Fe  Fe377     1.0  0.67818  0.22340  0.05801  1.0000
  C   C1863     1.0  0.79779  0.07907  0.25873  1.0000
  C   C1864     1.0  0.85942  0.99256  0.17149  1.0000
  H   H2997     1.0  0.74867  0.18843  0.13666  1.0000
  H   H2998     1.0  0.70529  0.21351  0.22574  1.0000
  H   H2999     1.0  0.83914  0.14418  0.27077  1.0000
  Fe  Fe378     1.0  0.65919  0.21931  0.09390  1.0000
  H   H3000     1.0  0.86328  0.21122  0.22202  1.0000
  C   C1865     1.0  0.69256  0.20004  0.02919  1.0000
  C   C1866     1.0  0.72267  0.08781  0.18455  1.0000
  N   N187      1.0  0.76880  0.11119  0.19631  1.0000
  C   C1867     1.0  0.69289  0.20596  0.99533  1.0000
  H   H3001     1.0  0.69930  0.14040  0.25074  1.0000
  C   C1868     1.0  0.83907  0.22358  0.09979  1.0000
  N   N188      1.0  0.73247  0.19512  0.11949  1.0000
  H   H3002     1.0  0.77162  0.11282  0.27265  1.0000
  H   H3003     1.0  0.79986  0.17520  0.05386  1.0000
  H   H3004     1.0  0.79572  0.13633  0.98885  1.0000
  H   H3005     1.0  0.98370  0.20789  0.15320  1.0000
  C   C1869     1.0  0.84842  0.21825  0.11220  1.0000
  H   H3006     1.0  0.84868  0.98837  0.18102  1.0000
  H   H3007     1.0  0.81402  0.12338  0.97903  1.0000
  H   H3008     1.0  0.75348  0.12034  0.21784  1.0000
  H   H3009     1.0  0.86945  0.99107  0.17815  1.0000
  H   H3010     1.0  0.71547  0.11600  0.27879  1.0000
  S   S751      1.0  0.72449  0.17689  0.17199  1.0000
  C   C1870     1.0  0.83044  0.99973  0.21589  1.0000
  N   N189      1.0  0.74664  0.20305  0.01101  1.0000
  H   H3011     1.0  0.85220  0.99834  0.25495  1.0000
  H   H3012     1.0  0.72430  0.21602  0.00208  1.0000
  C   C1871     1.0  0.73161  0.21667  0.01077  1.0000
  H   H3013     1.0  0.68098  0.08888  0.11118  1.0000
  H   H3014     1.0  0.70321  0.08131  0.10725  1.0000
  S   S752      1.0  0.73379  0.13921  0.28939  1.0000
  Fe  Fe379     1.0  0.78498  0.19860  0.07759  1.0000
  Fe  Fe380     1.0  0.88281  0.22169  0.16224  1.0000
  C   C1872     1.0  0.79704  0.22821  0.00849  1.0000
  H   H3015     1.0  0.69788  0.13494  0.14743  1.0000
  S   S753      1.0  0.70903  0.14166  0.21025  1.0000
  C   C1873     1.0  0.70257  0.12351  0.28191  1.0000
  H   H3016     1.0  0.75281  0.22732  0.23336  1.0000
  H   H3017     1.0  0.76555  0.08594  0.23983  1.0000
  H   H3018     1.0  0.78166  0.12740  0.17589  1.0000
  H   H3019     1.0  0.83838  0.16082  0.28012  1.0000
  Fe  Fe381     1.0  0.70701  0.12199  0.19853  1.0000
  H   H3020     1.0  0.76101  0.18761  0.27749  1.0000
  H   H3021     1.0  0.69121  0.12523  0.24633  1.0000
  C   C1874     1.0  0.86353  0.22443  0.22095  1.0000
  Fe  Fe382     1.0  0.74177  0.17487  0.25063  1.0000
  Fe  Fe383     1.0  0.70844  0.15834  0.18504  1.0000
  C   C1875     1.0  0.96569  0.18811  0.15060  1.0000
  H   H3022     1.0  0.73496  0.22909  0.00674  1.0000
  Fe  Fe384     1.0  0.68099  0.14490  0.18044  1.0000
  S   S754      1.0  0.74779  0.11451  0.25344  1.0000
  C   C1876     1.0  0.67297  0.21362  0.22890  1.0000
  H   H3023     1.0  0.71441  0.14397  0.11912  1.0000
  C   C1877     1.0  0.72781  0.18726  0.10853  1.0000
  H   H3024     1.0  0.84520  0.03433  0.16839  1.0000
  Fe  Fe385     1.0  0.81097  0.21495  0.08095  1.0000
  C   C1878     1.0  0.69506  0.20538  0.30932  1.0000
  C   C1879     1.0  0.76544  0.20596  0.28770  1.0000
  H   H3025     1.0  0.79316  0.06728  0.24170  1.0000
  H   H3026     1.0  0.75154  0.10012  0.21712  1.0000
  H   H3027     1.0  0.71211  0.18979  0.14001  1.0000
  C   C1880     1.0  0.70120  0.14926  0.12225  1.0000
  C   C1881     1.0  0.75336  0.11257  0.20938  1.0000
  C   C1882     1.0  0.84052  0.01151  0.15481  1.0000
  H   H3028     1.0  0.76430  0.21576  0.27668  1.0000
  S   S755      1.0  0.70496  0.16840  0.09065  1.0000
  H   H3029     1.0  0.71180  0.11976  0.25052  1.0000
  H   H3030     1.0  0.78352  0.11106  0.21320  1.0000
  H   H3031     1.0  0.71233  0.22956  0.29462  1.0000
  C   C1883     1.0  0.76692  0.10083  0.25582  1.0000
  H   H3032     1.0  0.77066  0.13643  0.19358  1.0000
  C   C1884     1.0  0.79885  0.20195  0.00155  1.0000
  Fe  Fe386     1.0  0.75045  0.15724  0.28370  1.0000
  H   H3033     1.0  0.79532  0.10386  0.19466  1.0000
  C   C1885     1.0  0.79798  0.21101  0.01334  1.0000
  C   C1886     1.0  0.78338  0.10396  0.20412  1.0000
  C   C1887     1.0  0.85367  0.22978  0.11752  1.0000
  S   S756      1.0  0.76249  0.15360  0.25773  1.0000
  C   C1888     1.0  0.73951  0.20968  0.10939  1.0000
  H   H3034     1.0  0.82984  0.00701  0.16416  1.0000
  H   H3035     1.0  0.75986  0.98675  0.17257  1.0000
  C   C1889     1.0  0.74507  0.18294  0.12810  1.0000
  Fe  Fe387     1.0  0.79998  0.22294  0.30466  1.0000
  S   S757      1.0  0.72402  0.15877  0.25336  1.0000
  H   H3036     1.0  0.78346  0.09080  0.21090  1.0000
  H   H3037     1.0  0.68215  0.13026  0.11642  1.0000
  H   H3038     1.0  0.74220  0.11835  0.20388  1.0000
  C   C1890     1.0  0.77417  0.98780  0.19657  1.0000
  C   C1891     1.0  0.66712  0.16331  0.13061  1.0000
  C   C1892     1.0  0.70042  0.18733  0.02037  1.0000
  H   H3039     1.0  0.67813  0.22212  0.21735  1.0000
  H   H3040     1.0  0.76732  0.19406  0.02319  1.0000
  C   C1893     1.0  0.81933  0.00007  0.25910  1.0000
  S   S758      1.0  0.78682  0.20950  0.09790  1.0000
  H   H3041     1.0  0.69238  0.19764  0.04231  1.0000
  C   C1894     1.0  0.80866  0.13848  0.28740  1.0000
  H   H3042     1.0  0.77495  0.99854  0.18573  1.0000
  H   H3043     1.0  0.66628  0.13102  0.26926  1.0000
  C   C1895     1.0  0.84356  0.01001  0.25800  1.0000
  C   C1896     1.0  0.71951  0.21736  0.30037  1.0000
  Fe  Fe388     1.0  0.74381  0.13775  0.26264  1.0000
  H   H3044     1.0  0.79819  0.20466  0.02613  1.0000
  N   N190      1.0  0.87090  0.22611  0.23399  1.0000
  H   H3045     1.0  0.86620  0.15252  0.18156  1.0000
  S   S759      1.0  0.68811  0.16756  0.29045  1.0000
  S   S760      1.0  0.68276  0.20937  0.10325  1.0000
  H   H3046     1.0  0.73886  0.18245  0.09935  1.0000
  H   H3047     1.0  0.86351  0.19870  0.29081  1.0000
  C   C1897     1.0  0.69056  0.10401  0.27576  1.0000
  Fe  Fe389     1.0  0.71550  0.16166  0.27967  1.0000
  H   H3048     1.0  0.79967  0.18865  0.00535  1.0000
  C   C1898     1.0  0.69339  0.16122  0.11037  1.0000
  H   H3049     1.0  0.83676  0.14124  0.30756  1.0000
  H   H3050     1.0  0.70348  0.13672  0.27950  1.0000
  H   H3051     1.0  0.75075  0.20598  0.09981  1.0000
  S   S761      1.0  0.67902  0.12706  0.20525  1.0000
  H   H3052     1.0  0.66800  0.18451  0.24834  1.0000
  C   C1899     1.0  0.84921  0.02103  0.17453  1.0000
  H   H3053     1.0  0.73485  0.18558  0.00721  1.0000
  H   H3054     1.0  0.81771  0.99234  0.29214  1.0000
  H   H3055     1.0  0.76877  0.19397  0.99398  1.0000
  H   H3056     1.0  0.72049  0.20674  0.14030  1.0000
  H   H3057     1.0  0.80091  0.14725  0.27873  1.0000
  H   H3058     1.0  0.70945  0.19495  0.24135  1.0000
  C   C1900     1.0  0.82977  0.99492  0.28400  1.0000
  H   H3059     1.0  0.73330  0.18527  0.02872  1.0000
  H   H3060     1.0  0.86085  0.20657  0.25266  1.0000
  S   S762      1.0  0.76420  0.15705  0.30261  1.0000
  S   S763      1.0  0.88259  0.19463  0.17117  1.0000
  H   H3061     1.0  0.66282  0.20946  0.22636  1.0000
  H   H3062     1.0  0.94105  0.21527  0.14628  1.0000
  H   H3063     1.0  0.86397  0.98386  0.16286  1.0000
  H   H3064     1.0  0.73599  0.98806  0.11667  1.0000
  H   H3065     1.0  0.86597  0.22142  0.26067  1.0000
  H   H3066     1.0  0.93388  0.20043  0.16442  1.0000
  C   C1901     1.0  0.76994  0.20887  0.30101  1.0000
  Fe  Fe390     1.0  0.79601  0.22701  0.04989  1.0000
  C   C1902     1.0  0.80806  0.16066  0.30003  1.0000
  H   H3067     1.0  0.75262  0.17638  0.01631  1.0000
  H   H3068     1.0  0.66892  0.11642  0.11862  1.0000
  H   H3069     1.0  0.72190  0.17658  0.11576  1.0000
  H   H3070     1.0  0.67015  0.17708  0.10530  1.0000
  S   S764      1.0  0.66400  0.14809  0.16341  1.0000
  H   H3071     1.0  0.84209  0.01873  0.24596  1.0000
  C   C1903     1.0  0.86884  0.01493  0.14963  1.0000
  H   H3072     1.0  0.76219  0.21622  0.99004  1.0000
  C   C1904     1.0  0.82881  0.13510  0.30382  1.0000
  C   C1905     1.0  0.67631  0.16803  0.11449  1.0000
  H   H3073     1.0  0.66614  0.18304  0.15665  1.0000
  H   H3074     1.0  0.89425  0.21721  0.24192  1.0000
  S   S765      1.0  0.67506  0.23175  0.03175  1.0000
  C   C1906     1.0  0.88821  0.21622  0.23233  1.0000
  C   C1907     1.0  0.79764  0.22717  0.98004  1.0000
  Fe  Fe391     1.0  0.83219  0.19783  0.30915  1.0000
  H   H3075     1.0  0.69300  0.20830  0.98222  1.0000
  S   S766      1.0  0.98768  0.12228  0.24832  1.0000
  H   H3076     1.0  0.75104  0.20400  0.98479  1.0000
  C   C1908     1.0  0.86092  0.22000  0.25057  1.0000
  H   H3077     1.0  0.82750  0.98847  0.25540  1.0000
  H   H3078     1.0  0.81167  0.15835  0.98375  1.0000
  Fe  Fe392     1.0  0.69224  0.22993  0.08340  1.0000
  S   S767      1.0  0.77446  0.22804  0.29953  1.0000
  H   H3079     1.0  0.84777  0.22715  0.25219  1.0000
  S   S768      1.0  0.89452  0.23287  0.13620  1.0000
  H   H3080     1.0  0.66348  0.16834  0.62995  1.0000
  C   C1909     1.0  0.77056  0.21539  0.38285  1.0000
  C   C1910     1.0  0.86332  0.14763  0.63202  1.0000
  H   H3081     1.0  0.81544  0.11301  0.63481  1.0000
  C   C1911     1.0  0.77320  0.02814  0.63068  1.0000
  H   H3082     1.0  0.72267  0.19539  0.58893  1.0000
  Fe  Fe393     1.0  0.73621  0.11388  0.61326  1.0000
  H   H3083     1.0  0.82054  0.12964  0.31540  1.0000
  S   S769      1.0  0.76208  0.09752  0.61165  1.0000
  Fe  Fe394     1.0  0.71369  0.14644  0.60024  1.0000
  S   S770      1.0  0.69181  0.14146  0.62069  1.0000
  S   S771      1.0  0.71009  0.17108  0.58197  1.0000
  Fe  Fe395     1.0  0.70985  0.13194  0.63748  1.0000
  S   S772      1.0  0.80744  0.20378  0.32656  1.0000
  H   H3084     1.0  0.70295  0.15398  0.34482  1.0000
  S   S773      1.0  0.73129  0.13973  0.61753  1.0000
  S   S774      1.0  0.72044  0.12118  0.59403  1.0000
  N   N191      1.0  0.78670  0.01584  0.63792  1.0000
  H   H3085     1.0  0.71115  0.18532  0.33301  1.0000
  H   H3086     1.0  0.67063  0.21159  0.43925  1.0000
  C   C1912     1.0  0.75251  0.18182  0.57137  1.0000
  C   C1913     1.0  0.75706  0.21860  0.60283  1.0000
  H   H3087     1.0  0.78219  0.22021  0.37887  1.0000
  H   H3088     1.0  0.77067  0.17051  0.32675  1.0000
  C   C1914     1.0  0.85138  0.13873  0.64230  1.0000
  H   H3089     1.0  0.72785  0.21775  0.55474  1.0000
  Fe  Fe396     1.0  0.69955  0.11567  0.61591  1.0000
  H   H3090     1.0  0.80596  0.02118  0.61620  1.0000
  H   H3091     1.0  0.68957  0.22097  0.37725  1.0000
  H   H3092     1.0  0.76503  0.20882  0.55242  1.0000
  C   C1915     1.0  0.68397  0.16688  0.31185  1.0000
  C   C1916     1.0  0.76918  0.18040  0.31586  1.0000
  H   H3093     1.0  0.73517  0.22288  0.36867  1.0000
  H   H3094     1.0  0.66244  0.16940  0.41970  1.0000
  C   C1917     1.0  0.73447  0.20442  0.55630  1.0000
  C   C1918     1.0  0.81194  0.10081  0.64132  1.0000
  H   H3095     1.0  0.77939  0.22613  0.34969  1.0000
  H   H3096     1.0  0.82546  0.22621  0.63656  1.0000
  C   C1919     1.0  0.78013  0.07341  0.63244  1.0000
  H   H3097     1.0  0.72659  0.21592  0.58451  1.0000
  H   H3098     1.0  0.73751  0.21859  0.38973  1.0000
  H   H3099     1.0  0.74384  0.21944  0.60788  1.0000
  C   C1920     1.0  0.69319  0.15956  0.33788  1.0000
  S   S775      1.0  0.80167  0.17917  0.64122  1.0000
  H   H3100     1.0  0.76499  0.20587  0.57397  1.0000
  H   H3101     1.0  0.73951  0.19842  0.59569  1.0000
  C   C1921     1.0  0.70150  0.23268  0.38860  1.0000
  C   C1922     1.0  0.79115  0.21677  0.58969  1.0000
  C   C1923     1.0  0.87714  0.14783  0.63774  1.0000
  N   N192      1.0  0.70877  0.20840  0.31477  1.0000
  H   H3102     1.0  0.70888  0.15415  0.31477  1.0000
  H   H3103     1.0  0.75974  0.17781  0.58136  1.0000
  C   C1924     1.0  0.66271  0.11059  0.63363  1.0000
  C   C1925     1.0  0.78565  0.20384  0.60252  1.0000
  C   C1926     1.0  0.66806  0.17408  0.31987  1.0000
  H   H3104     1.0  0.77545  0.02911  0.61704  1.0000
  N   N193      1.0  0.75929  0.22375  0.37121  1.0000
  C   C1927     1.0  0.75682  0.20985  0.56482  1.0000
  H   H3105     1.0  0.74334  0.17371  0.57482  1.0000
  S   S776      1.0  0.81086  0.22831  0.35648  1.0000
  H   H3106     1.0  0.72484  0.19690  0.55935  1.0000
  C   C1928     1.0  0.74413  0.21676  0.37698  1.0000
  S   S777      1.0  0.66141  0.20814  0.38420  1.0000
  S   S778      1.0  0.67374  0.16863  0.36658  1.0000
  H   H3107     1.0  0.65916  0.15957  0.57558  1.0000
  S   S779      1.0  0.66086  0.22165  0.51537  1.0000
  N   N194      1.0  0.74413  0.19963  0.56946  1.0000
  S   S780      1.0  0.71579  0.10580  0.63430  1.0000
  S   S781      1.0  0.76114  0.18792  0.62349  1.0000
  H   H3108     1.0  0.69364  0.21215  0.33867  1.0000
  H   H3109     1.0  0.77185  0.20742  0.35432  1.0000
  C   C1929     1.0  0.69656  0.15968  0.32086  1.0000
  S   S782      1.0  0.84311  0.21587  0.31545  1.0000
  H   H3110     1.0  0.79461  0.19303  0.60706  1.0000
  H   H3111     1.0  0.82669  0.22977  0.52383  1.0000
  C   C1930     1.0  0.66483  0.17438  0.33678  1.0000
  C   C1931     1.0  0.70166  0.21860  0.32751  1.0000
  Fe  Fe397     1.0  0.77747  0.17349  0.64160  1.0000
  C   C1932     1.0  0.67740  0.16713  0.34580  1.0000
  H   H3112     1.0  0.76457  0.21739  0.39566  1.0000
  H   H3113     1.0  0.80436  0.21596  0.58457  1.0000
  H   H3114     1.0  0.88629  0.15484  0.62978  1.0000
  H   H3115     1.0  0.76126  0.17921  0.55964  1.0000
  H   H3116     1.0  0.77215  0.04083  0.63256  1.0000
  H   H3117     1.0  0.70183  0.19437  0.63586  1.0000
  S   S783      1.0  0.67918  0.10268  0.61855  1.0000
  H   H3118     1.0  0.74262  0.20255  0.54409  1.0000
  C   C1933     1.0  0.73274  0.20248  0.58537  1.0000
  H   H3119     1.0  0.78911  0.07100  0.62122  1.0000
  H   H3120     1.0  0.80261  0.03337  0.63133  1.0000
  C   C1934     1.0  0.78759  0.99919  0.63530  1.0000
  H   H3121     1.0  0.70503  0.22144  0.39763  1.0000
  H   H3122     1.0  0.75087  0.22327  0.56434  1.0000
  C   C1935     1.0  0.80281  0.02081  0.62978  1.0000
  S   S784      1.0  0.65898  0.21868  0.47174  1.0000
  H   H3123     1.0  0.74717  0.20314  0.37741  1.0000
  H   H3124     1.0  0.78969  0.99928  0.62186  1.0000
  H   H3125     1.0  0.68665  0.19879  0.31995  1.0000
  Fe  Fe398     1.0  0.81741  0.22384  0.33050  1.0000
  H   H3126     1.0  0.69371  0.23075  0.32264  1.0000
  C   C1936     1.0  0.76590  0.08623  0.63129  1.0000
  H   H3127     1.0  0.77436  0.20172  0.38354  1.0000
  C   C1937     1.0  0.76856  0.20467  0.60894  1.0000
  H   H3128     1.0  0.73009  0.17629  0.63051  1.0000
  C   C1938     1.0  0.66186  0.18459  0.56303  1.0000
  C   C1939     1.0  0.66677  0.16868  0.57268  1.0000
  C   C1940     1.0  0.68167  0.16439  0.57834  1.0000
  C   C1941     1.0  0.69166  0.17605  0.57451  1.0000
  C   C1942     1.0  0.68677  0.19195  0.56482  1.0000
  C   C1943     1.0  0.67192  0.19620  0.55905  1.0000
  Fe  Fe399     1.0  0.65817  0.22936  0.36240  1.0000
  H   H3129     1.0  0.68551  0.15199  0.58553  1.0000
  H   H3130     1.0  0.69437  0.20107  0.56185  1.0000
  H   H3131     1.0  0.66817  0.20852  0.55170  1.0000
  H   H3132     1.0  0.77502  0.19838  0.32550  1.0000
  C   C1944     1.0  0.71882  0.19228  0.32194  1.0000
  H   H3133     1.0  0.81692  0.09240  0.63238  1.0000
  H   H3134     1.0  0.65812  0.15552  0.61005  1.0000
  H   H3135     1.0  0.86190  0.15439  0.61961  1.0000
  H   H3136     1.0  0.71156  0.22141  0.33179  1.0000
  C   C1945     1.0  0.76788  0.22095  0.35437  1.0000
  H   H3137     1.0  0.65828  0.17970  0.31297  1.0000
  C   C1946     1.0  0.76254  0.23141  0.58998  1.0000
  S   S785      1.0  0.83459  0.13802  0.63467  1.0000
  H   H3138     1.0  0.66029  0.18554  0.60207  1.0000
  H   H3139     1.0  0.81324  0.01187  0.63514  1.0000
  C   C1947     1.0  0.77958  0.23048  0.58325  1.0000
  H   H3140     1.0  0.72681  0.20316  0.63772  1.0000
  H   H3141     1.0  0.72410  0.18410  0.31278  1.0000
  C   C1948     1.0  0.77166  0.19614  0.31515  1.0000
  H   H3142     1.0  0.75973  0.22690  0.34526  1.0000
  H   H3143     1.0  0.72950  0.19403  0.32588  1.0000
  H   H3144     1.0  0.79806  0.98978  0.64010  1.0000
  H   H3145     1.0  0.79907  0.15578  0.31128  1.0000
  H   H3146     1.0  0.76089  0.02471  0.63651  1.0000
  H   H3147     1.0  0.77595  0.99460  0.64186  1.0000
  C   C1949     1.0  0.69252  0.23245  0.37722  1.0000
  H   H3148     1.0  0.68690  0.23297  0.56083  1.0000
  S   S786      1.0  0.93355  0.17470  0.81128  1.0000
  S   S787      1.0  0.89547  0.18105  0.80568  1.0000
  C   C1950     1.0  0.75674  0.07942  0.66138  1.0000
  S   S788      1.0  0.89757  0.17717  0.85141  1.0000
  Fe  Fe400     1.0  0.92153  0.17283  0.79169  1.0000
  S   S789      1.0  0.92999  0.15165  0.77828  1.0000
  S   S790      1.0  0.82080  0.19336  0.92622  1.0000
  C   C1951     1.0  0.71637  0.14357  0.79347  1.0000
  Fe  Fe401     1.0  0.80016  0.19106  0.91606  1.0000
  S   S791      1.0  0.79808  0.16642  0.91309  1.0000
  H   H3149     1.0  0.67613  0.98924  0.76286  1.0000
  H   H3150     1.0  0.70759  0.18318  0.67992  1.0000
  C   C1952     1.0  0.81173  0.10528  0.66802  1.0000
  S   S792      1.0  0.72457  0.03596  0.76534  1.0000
  Fe  Fe402     1.0  0.70062  0.06496  0.79653  1.0000
  S   S793      1.0  0.71857  0.07311  0.77311  1.0000
  S   S794      1.0  0.68848  0.08461  0.81199  1.0000
  Fe  Fe403     1.0  0.70656  0.06064  0.76121  1.0000
  S   S795      1.0  0.70229  0.07549  0.73604  1.0000
  Fe  Fe404     1.0  0.73466  0.04793  0.77958  1.0000
  S   S796      1.0  0.76138  0.04664  0.77895  1.0000
  S   S797      1.0  0.68707  0.05411  0.78423  1.0000
  Fe  Fe405     1.0  0.74221  0.15343  0.86535  1.0000
  S   S798      1.0  0.72158  0.15421  0.88799  1.0000
  S   S799      1.0  0.75771  0.17262  0.85907  1.0000
  Fe  Fe406     1.0  0.73116  0.12721  0.85538  1.0000
  S   S800      1.0  0.70950  0.12604  0.87728  1.0000
  S   S801      1.0  0.73850  0.11088  0.83655  1.0000
  Fe  Fe407     1.0  0.70566  0.15389  0.87125  1.0000
  Fe  Fe408     1.0  0.72756  0.12647  0.89194  1.0000
  S   S802      1.0  0.72588  0.15517  0.84814  1.0000
  S   S803      1.0  0.74972  0.12552  0.87052  1.0000
  Fe  Fe409     1.0  0.79598  0.03412  0.68432  1.0000
  H   H3151     1.0  0.82779  0.17797  0.67022  1.0000
  S   S804      1.0  0.77206  0.05289  0.68201  1.0000
  Fe  Fe410     1.0  0.81471  0.00996  0.70963  1.0000
  C   C1953     1.0  0.85102  0.01986  0.71911  1.0000
  Fe  Fe411     1.0  0.83293  0.03161  0.67998  1.0000
  S   S805      1.0  0.85260  0.04722  0.67137  1.0000
  Fe  Fe412     1.0  0.81984  0.00281  0.67579  1.0000
  S   S806      1.0  0.81098  0.03757  0.70031  1.0000
  S   S807      1.0  0.79701  0.00697  0.69608  1.0000
  Fe  Fe413     1.0  0.88530  0.09802  0.71465  1.0000
  S   S808      1.0  0.89650  0.13963  0.66057  1.0000
  S   S809      1.0  0.86739  0.08049  0.72215  1.0000
  Fe  Fe414     1.0  0.88899  0.12970  0.72225  1.0000
  S   S810      1.0  0.91109  0.13253  0.70128  1.0000
  S   S811      1.0  0.87905  0.14926  0.73761  1.0000
  Fe  Fe415     1.0  0.89720  0.12527  0.68668  1.0000
  Fe  Fe416     1.0  0.91976  0.10510  0.71035  1.0000
  S   S812      1.0  0.87404  0.12517  0.70678  1.0000
  S   S813      1.0  0.89820  0.10254  0.73231  1.0000
  C   C1954     1.0  0.69508  0.98999  0.79285  1.0000
  C   C1955     1.0  0.77267  0.02982  0.75352  1.0000
  S   S814      1.0  0.72650  0.11020  0.91773  1.0000
  H   H3152     1.0  0.75841  0.11982  0.91040  1.0000
  S   S815      1.0  0.83777  0.00395  0.69024  1.0000
  H   H3153     1.0  0.76245  0.12436  0.66048  1.0000
  H   H3154     1.0  0.99078  0.18021  0.78716  1.0000
  H   H3155     1.0  0.84510  0.18814  0.66267  1.0000
  N   N195      1.0  0.71651  0.20991  0.84691  1.0000
  C   C1956     1.0  0.86742  0.12969  0.66385  1.0000
  H   H3156     1.0  0.66641  0.07478  0.70167  1.0000
  H   H3157     1.0  0.83923  0.02908  0.72220  1.0000
  H   H3158     1.0  0.97346  0.15627  0.76791  1.0000
  S   S816      1.0  0.79275  0.19339  0.68468  1.0000
  S   S817      1.0  0.76560  0.12723  0.69202  1.0000
  H   H3159     1.0  0.82501  0.15785  0.69692  1.0000
  N   N196      1.0  0.73815  0.17008  0.93476  1.0000
  C   C1957     1.0  0.74825  0.12726  0.68493  1.0000
  Fe  Fe417     1.0  0.81032  0.15142  0.64767  1.0000
  Fe  Fe418     1.0  0.71296  0.21087  0.76443  1.0000
  H   H3160     1.0  0.72842  0.19123  0.91701  1.0000
  C   C1958     1.0  0.85592  0.05787  0.68486  1.0000
  C   C1959     1.0  0.87066  0.06380  0.68092  1.0000
  C   C1960     1.0  0.87399  0.07156  0.69184  1.0000
  C   C1961     1.0  0.86257  0.07345  0.70680  1.0000
  C   C1962     1.0  0.84750  0.06822  0.71035  1.0000
  C   C1963     1.0  0.84416  0.06054  0.69941  1.0000
  H   H3161     1.0  0.91120  0.21853  0.87350  1.0000
  H   H3162     1.0  0.88564  0.07558  0.68894  1.0000
  H   H3163     1.0  0.83852  0.06983  0.72180  1.0000
  H   H3164     1.0  0.83257  0.05651  0.70242  1.0000
  Fe  Fe419     1.0  0.70600  0.02998  0.78936  1.0000
  C   C1964     1.0  0.77577  0.03261  0.76765  1.0000
  C   C1965     1.0  0.79092  0.02475  0.77242  1.0000
  C   C1966     1.0  0.80295  0.01405  0.76315  1.0000
  C   C1967     1.0  0.80018  0.01183  0.74864  1.0000
  H   H3165     1.0  0.74760  0.08186  0.67250  1.0000
  H   H3166     1.0  0.74945  0.18083  0.90983  1.0000
  C   C1968     1.0  0.95013  0.12490  0.71609  1.0000
  C   C1969     1.0  0.71126  0.22723  0.84925  1.0000
  C   C1970     1.0  0.68321  0.08996  0.73826  1.0000
  C   C1971     1.0  0.68193  0.10602  0.72816  1.0000
  C   C1972     1.0  0.81724  0.14408  0.94875  1.0000
  H   H3167     1.0  0.90201  0.22848  0.85583  1.0000
  C   C1973     1.0  0.66911  0.08540  0.74969  1.0000
  H   H3168     1.0  0.69284  0.10973  0.71948  1.0000
  H   H3169     1.0  0.95315  0.14780  0.71977  1.0000
  H   H3170     1.0  0.66992  0.07293  0.75732  1.0000
  C   C1974     1.0  0.70231  0.09187  0.81895  1.0000
  C   C1975     1.0  0.71954  0.08600  0.81459  1.0000
  C   C1976     1.0  0.73040  0.09195  0.82013  1.0000
  C   C1977     1.0  0.72417  0.10382  0.83008  1.0000
  C   C1978     1.0  0.70692  0.10980  0.83441  1.0000
  C   C1979     1.0  0.69603  0.10383  0.82884  1.0000
  H   H3171     1.0  0.72454  0.07674  0.80704  1.0000
  H   H3172     1.0  0.74372  0.08722  0.81673  1.0000
  H   H3173     1.0  0.70197  0.11901  0.84201  1.0000
  H   H3174     1.0  0.68269  0.10841  0.83229  1.0000
  C   C1980     1.0  0.78624  0.16825  0.89856  1.0000
  C   C1981     1.0  0.78245  0.15402  0.89664  1.0000
  C   C1982     1.0  0.77320  0.15532  0.88490  1.0000
  C   C1983     1.0  0.76825  0.17079  0.87463  1.0000
  C   C1984     1.0  0.77195  0.18501  0.87660  1.0000
  C   C1985     1.0  0.78062  0.18379  0.88877  1.0000
  H   H3175     1.0  0.78674  0.14195  0.90419  1.0000
  H   H3176     1.0  0.77038  0.14427  0.88342  1.0000
  H   H3177     1.0  0.76797  0.19704  0.86881  1.0000
  H   H3178     1.0  0.78306  0.19489  0.89040  1.0000
  H   H3179     1.0  0.80750  0.19008  0.86088  1.0000
  H   H3180     1.0  0.71997  0.10709  0.95306  1.0000
  H   H3181     1.0  0.91194  0.16155  0.71572  1.0000
  C   C1986     1.0  0.91557  0.15085  0.76732  1.0000
  C   C1987     1.0  0.92024  0.13997  0.75642  1.0000
  C   C1988     1.0  0.90888  0.13903  0.74771  1.0000
  C   C1989     1.0  0.89291  0.14927  0.74952  1.0000
  C   C1990     1.0  0.88830  0.16035  0.76021  1.0000
  C   C1991     1.0  0.89959  0.16113  0.76909  1.0000
  H   H3182     1.0  0.93273  0.13251  0.75443  1.0000
  H   H3183     1.0  0.91256  0.13052  0.73942  1.0000
  H   H3184     1.0  0.87602  0.16842  0.76156  1.0000
  H   H3185     1.0  0.89592  0.16979  0.77718  1.0000
  H   H3186     1.0  0.87332  0.99173  0.72683  1.0000
  C   C1992     1.0  0.88231  0.19139  0.86208  1.0000
  C   C1993     1.0  0.87383  0.18556  0.87831  1.0000
  C   C1994     1.0  0.86127  0.19653  0.88696  1.0000
  H   H3187     1.0  0.73074  0.13049  0.70795  1.0000
  H   H3188     1.0  0.87684  0.17248  0.88416  1.0000
  H   H3189     1.0  0.85468  0.19193  0.89943  1.0000
  S   S818      1.0  0.71761  0.04039  0.80400  1.0000
  Fe  Fe420     1.0  0.82006  0.21791  0.90787  1.0000
  H   H3190     1.0  0.74368  0.11978  0.79961  1.0000
  C   C1995     1.0  0.68589  0.08213  0.67145  1.0000
  S   S819      1.0  0.94642  0.09464  0.71342  1.0000
  H   H3191     1.0  0.93704  0.10392  0.76836  1.0000
  C   C1996     1.0  0.75347  0.11789  0.92369  1.0000
  H   H3192     1.0  0.81871  0.06844  0.65668  1.0000
  S   S820      1.0  0.80128  0.21424  0.89611  1.0000
  H   H3193     1.0  0.73058  0.14690  0.93945  1.0000
  C   C1997     1.0  0.73802  0.11335  0.93045  1.0000
  H   H3194     1.0  0.80833  0.20492  0.64981  1.0000
  H   H3195     1.0  0.93687  0.12908  0.71711  1.0000
  H   H3196     1.0  0.74639  0.13983  0.79953  1.0000
  S   S821      1.0  0.65902  0.21308  0.80638  1.0000
  H   H3197     1.0  0.78443  0.15700  0.95739  1.0000
  S   S822      1.0  0.90787  0.09787  0.69358  1.0000
  H   H3198     1.0  0.73614  0.11055  0.97152  1.0000
  H   H3199     1.0  0.98135  0.09088  0.71131  1.0000
  C   C1998     1.0  0.66656  0.11745  0.72948  1.0000
  S   S823      1.0  0.92380  0.19823  0.77624  1.0000
  H   H3200     1.0  0.79978  0.07907  0.66827  1.0000
  H   H3201     1.0  0.84743  0.00848  0.71858  1.0000
  H   H3202     1.0  0.74513  0.19384  0.92442  1.0000
  H   H3203     1.0  0.76092  0.03575  0.74989  1.0000
  H   H3204     1.0  0.85487  0.04104  0.73558  1.0000
  C   C1999     1.0  0.87839  0.20832  0.85463  1.0000
  C   C2000     1.0  0.83869  0.15598  0.69578  1.0000
  H   H3205     1.0  0.72881  0.11661  0.78012  1.0000
  C   C2001     1.0  0.73186  0.11070  0.94774  1.0000
  H   H3206     1.0  0.77153  0.01080  0.66265  1.0000
  C   C2002     1.0  0.77054  0.06616  0.66249  1.0000
  H   H3207     1.0  0.75945  0.17102  0.94304  1.0000
  S   S824      1.0  0.79935  0.19793  0.97083  1.0000
  C   C2003     1.0  0.73240  0.15805  0.92927  1.0000
  H   H3208     1.0  0.67985  0.11315  0.75914  1.0000
  C   C2004     1.0  0.75018  0.12619  0.66850  1.0000
  H   H3209     1.0  0.69895  0.22929  0.85804  1.0000
  H   H3210     1.0  0.95467  0.20918  0.84858  1.0000
  H   H3211     1.0  0.84122  0.10266  0.64531  1.0000
  H   H3212     1.0  0.67858  0.07961  0.71300  1.0000
  N   N197      1.0  0.98931  0.17291  0.76558  1.0000
  S   S825      1.0  0.67070  0.18205  0.68506  1.0000
  H   H3213     1.0  0.69095  0.12661  0.76241  1.0000
  H   H3214     1.0  0.69213  0.19774  0.65651  1.0000
  C   C2005     1.0  0.74036  0.18466  0.92091  1.0000
  C   C2006     1.0  0.84130  0.17623  0.66977  1.0000
  N   N198      1.0  0.72910  0.07327  0.87997  1.0000
  C   C2007     1.0  0.72668  0.06002  0.89516  1.0000
  C   C2008     1.0  0.73915  0.08389  0.88203  1.0000
  C   C2009     1.0  0.71268  0.08354  0.87723  1.0000
  C   C2010     1.0  0.73786  0.06571  0.86546  1.0000
  H   H3215     1.0  0.71900  0.05186  0.89412  1.0000
  H   H3216     1.0  0.72024  0.06541  0.90633  1.0000
  H   H3217     1.0  0.73883  0.05198  0.89757  1.0000
  H   H3218     1.0  0.74145  0.09383  0.87066  1.0000
  C   C2011     1.0  0.81360  0.07756  0.66489  1.0000
  H   H3219     1.0  0.75154  0.07655  0.88440  1.0000
  H   H3220     1.0  0.71411  0.09385  0.86605  1.0000
  H   H3221     1.0  0.70561  0.08930  0.88802  1.0000
  H   H3222     1.0  0.70485  0.07606  0.87523  1.0000
  H   H3223     1.0  0.73999  0.07544  0.85384  1.0000
  H   H3224     1.0  0.73052  0.05781  0.86333  1.0000
  H   H3225     1.0  0.75028  0.05780  0.86709  1.0000
  C   C2012     1.0  0.75663  0.11677  0.95152  1.0000
  C   C2013     1.0  0.67924  0.07568  0.70146  1.0000
  H   H3226     1.0  0.91535  0.19650  0.73164  1.0000
  H   H3227     1.0  0.67861  0.14187  0.78523  1.0000
  C   C2014     1.0  0.70050  0.18844  0.64932  1.0000
  C   C2015     1.0  0.95797  0.10876  0.71382  1.0000
  C   C2016     1.0  0.81992  0.22432  0.64975  1.0000
  H   H3228     1.0  0.71658  0.15192  0.80133  1.0000
  H   H3229     1.0  0.70616  0.14984  0.78663  1.0000
  C   C2017     1.0  0.68265  0.17728  0.83971  1.0000
  H   H3230     1.0  0.71305  0.13196  0.80202  1.0000
  S   S826      1.0  0.69701  0.16373  0.75142  1.0000
  H   H3231     1.0  0.97555  0.16792  0.79091  1.0000
  C   C2018     1.0  0.68167  0.16023  0.71188  1.0000
  N   N199      1.0  0.73261  0.13991  0.78184  1.0000
  C   C2019     1.0  0.73178  0.12855  0.77196  1.0000
  C   C2020     1.0  0.72022  0.13038  0.67241  1.0000
  N   N200      1.0  0.75507  0.07728  0.72129  1.0000
  C   C2021     1.0  0.76740  0.08177  0.70582  1.0000
  C   C2022     1.0  0.74910  0.06281  0.72065  1.0000
  C   C2023     1.0  0.74080  0.09156  0.72298  1.0000
  C   C2024     1.0  0.76296  0.07298  0.73571  1.0000
  H   H3232     1.0  0.77252  0.09232  0.70611  1.0000
  H   H3233     1.0  0.76172  0.08564  0.69471  1.0000
  H   H3234     1.0  0.77807  0.07108  0.70387  1.0000
  H   H3235     1.0  0.73960  0.05923  0.73204  1.0000
  H   H3236     1.0  0.74325  0.06558  0.70978  1.0000
  H   H3237     1.0  0.75954  0.05175  0.71947  1.0000
  H   H3238     1.0  0.73143  0.08875  0.73474  1.0000
  H   H3239     1.0  0.73423  0.09478  0.71256  1.0000
  H   H3240     1.0  0.74494  0.10285  0.72295  1.0000
  H   H3241     1.0  0.75414  0.06911  0.74759  1.0000
  H   H3242     1.0  0.76725  0.08373  0.73682  1.0000
  H   H3243     1.0  0.77402  0.06248  0.73466  1.0000
  N   N201      1.0  0.68572  0.08757  0.68647  1.0000
  H   H3244     1.0  0.81451  0.00777  0.76708  1.0000
  H   H3245     1.0  0.73778  0.12723  0.64949  1.0000
  H   H3246     1.0  0.73283  0.21639  0.82311  1.0000
  H   H3247     1.0  0.66176  0.10439  0.68644  1.0000
  H   H3248     1.0  0.68661  0.00864  0.77251  1.0000
  H   H3249     1.0  0.70796  0.09734  0.67551  1.0000
  C   C2025     1.0  0.89716  0.23236  0.73235  1.0000
  C   C2026     1.0  0.85153  0.00956  0.74817  1.0000
  H   H3250     1.0  0.84268  0.08152  0.64448  1.0000
  H   H3251     1.0  0.82228  0.18665  0.69781  1.0000
  C   C2027     1.0  0.68787  0.99569  0.77891  1.0000
  H   H3252     1.0  0.81847  0.17886  0.87713  1.0000
  H   H3253     1.0  0.70512  0.19944  0.87204  1.0000
  H   H3254     1.0  0.95008  0.10290  0.74814  1.0000
  H   H3255     1.0  0.86594  0.16476  0.69798  1.0000
  C   C2028     1.0  0.97861  0.08720  0.75891  1.0000
  S   S827      1.0  0.76876  0.11865  0.96437  1.0000
  Fe  Fe421     1.0  0.89845  0.20673  0.79147  1.0000
  H   H3256     1.0  0.65852  0.13962  0.79821  1.0000
  H   H3257     1.0  0.80125  0.21675  0.69718  1.0000
  N   N202      1.0  0.83412  0.18749  0.85357  1.0000
  C   C2029     1.0  0.84925  0.17517  0.85744  1.0000
  C   C2030     1.0  0.83447  0.19039  0.83565  1.0000
  C   C2031     1.0  0.83364  0.20334  0.85769  1.0000
  C   C2032     1.0  0.81914  0.18110  0.86353  1.0000
  H   H3258     1.0  0.84950  0.17282  0.87084  1.0000
  H   H3259     1.0  0.86082  0.17952  0.85004  1.0000
  H   H3260     1.0  0.84996  0.16300  0.85463  1.0000
  H   H3261     1.0  0.82325  0.19967  0.83227  1.0000
  H   H3262     1.0  0.84568  0.19521  0.82780  1.0000
  H   H3263     1.0  0.83483  0.17868  0.83210  1.0000
  H   H3264     1.0  0.82232  0.21293  0.85511  1.0000
  H   H3265     1.0  0.84472  0.20859  0.85038  1.0000
  H   H3266     1.0  0.83349  0.20160  0.87111  1.0000
  H   H3267     1.0  0.81902  0.16909  0.86087  1.0000
  H   H3268     1.0  0.97655  0.11512  0.76845  1.0000
  C   C2033     1.0  0.78506  0.01976  0.74375  1.0000
  H   H3269     1.0  0.67618  0.12250  0.79988  1.0000
  H   H3270     1.0  0.97690  0.19052  0.74709  1.0000
  C   C2034     1.0  0.74585  0.13192  0.79138  1.0000
  S   S828      1.0  0.70121  0.18988  0.78074  1.0000
  C   C2035     1.0  0.81852  0.15475  0.97169  1.0000
  H   H3271     1.0  0.75836  0.12942  0.78302  1.0000
  C   C2036     1.0  0.95938  0.13548  0.71765  1.0000
  S   S829      1.0  0.78687  0.14580  0.64574  1.0000
  S   S830      1.0  0.87612  0.22311  0.78164  1.0000
  H   H3272     1.0  0.74273  0.20986  0.84058  1.0000
  H   H3273     1.0  0.87420  0.02894  0.74072  1.0000
  H   H3274     1.0  0.96155  0.19020  0.82132  1.0000
  H   H3275     1.0  0.73731  0.19473  0.83331  1.0000
  C   C2037     1.0  0.87927  0.13881  0.65362  1.0000
  H   H3276     1.0  0.94144  0.22252  0.82415  1.0000
  H   H3277     1.0  0.69270  0.16639  0.83960  1.0000
  H   H3278     1.0  0.88402  0.00802  0.71467  1.0000
  H   H3279     1.0  0.98283  0.18650  0.83772  1.0000
  H   H3280     1.0  0.72669  0.20047  0.86890  1.0000
  C   C2038     1.0  0.67484  0.10431  0.68641  1.0000
  C   C2039     1.0  0.97519  0.10335  0.71303  1.0000
  C   C2040     1.0  0.76285  0.11933  0.93423  1.0000
  C   C2041     1.0  0.96083  0.09001  0.78576  1.0000
  Fe  Fe422     1.0  0.79204  0.17666  0.66879  1.0000
  H   H3281     1.0  0.69032  0.14318  0.73306  1.0000
  S   S831      1.0  0.80321  0.14931  0.67525  1.0000
  H   H3282     1.0  0.73703  0.16454  0.77760  1.0000
  C   C2042     1.0  0.68778  0.15604  0.72649  1.0000
  H   H3283     1.0  0.93015  0.16811  0.70203  1.0000
  H   H3284     1.0  0.88457  0.00020  0.73632  1.0000
  Fe  Fe423     1.0  0.90743  0.18556  0.82380  1.0000
  C   C2043     1.0  0.69033  0.16856  0.73260  1.0000
  H   H3285     1.0  0.79625  0.17271  0.95315  1.0000
  C   C2044     1.0  0.68712  0.18514  0.72382  1.0000
  C   C2045     1.0  0.68146  0.18923  0.70902  1.0000
  C   C2046     1.0  0.67852  0.17681  0.70317  1.0000
  H   H3286     1.0  0.67308  0.08214  0.67064  1.0000
  H   H3287     1.0  0.77217  0.23232  0.69401  1.0000
  H   H3288     1.0  0.68886  0.19493  0.72842  1.0000
  H   H3289     1.0  0.74161  0.15356  0.91854  1.0000
  S   S832      1.0  0.68101  0.17202  0.87332  1.0000
  C   C2047     1.0  0.67791  0.18657  0.82479  1.0000
  C   C2048     1.0  0.73643  0.15560  0.77056  1.0000
  Fe  Fe424     1.0  0.69508  0.18826  0.75747  1.0000
  C   C2049     1.0  0.89309  0.19194  0.71748  1.0000
  H   H3290     1.0  0.97163  0.08994  0.79073  1.0000
  H   H3291     1.0  0.77498  0.12238  0.92900  1.0000
  H   H3292     1.0  0.79783  0.10787  0.67137  1.0000
  Fe  Fe425     1.0  0.78240  0.22700  0.91508  1.0000
  H   H3293     1.0  0.67962  0.15067  0.70712  1.0000
  C   C2050     1.0  0.74099  0.11269  0.95822  1.0000
  H   H3294     1.0  0.86338  0.23252  0.85776  1.0000
  H   H3295     1.0  0.74860  0.15332  0.76161  1.0000
  H   H3296     1.0  0.72675  0.16192  0.76307  1.0000
  C   C2051     1.0  0.77292  0.21961  0.72653  1.0000
  S   S833      1.0  0.77984  0.20346  0.93421  1.0000
  H   H3297     1.0  0.87286  0.03702  0.71931  1.0000
  H   H3298     1.0  0.69401  0.17799  0.65194  1.0000
  H   H3299     1.0  0.68418  0.18263  0.81334  1.0000
  H   H3300     1.0  0.91092  0.17342  0.69507  1.0000
  H   H3301     1.0  0.85782  0.02493  0.70639  1.0000
  N   N203      1.0  0.80793  0.14841  0.96484  1.0000
  H   H3302     1.0  0.86922  0.12233  0.67593  1.0000
  H   H3303     1.0  0.93297  0.18200  0.72277  1.0000
  H   H3304     1.0  0.81846  0.07184  0.67646  1.0000
  C   C2052     1.0  0.97161  0.20875  0.80130  1.0000
  H   H3305     1.0  0.82869  0.13424  0.95016  1.0000
  H   H3306     1.0  0.66640  0.15041  0.76053  1.0000
  C   C2053     1.0  0.97121  0.19731  0.81658  1.0000
  H   H3307     1.0  0.76735  0.21391  0.73955  1.0000
  H   H3308     1.0  0.76370  0.15678  0.92968  1.0000
  H   H3309     1.0  0.67869  0.11708  0.64529  1.0000
  S   S834      1.0  0.73682  0.21500  0.76725  1.0000
  N   N204      1.0  0.91145  0.18757  0.71211  1.0000
  C   C2054     1.0  0.91724  0.20121  0.69871  1.0000
  H   H3310     1.0  0.91412  0.21301  0.70316  1.0000
  H   H3311     1.0  0.70598  0.13292  0.69692  1.0000
  C   C2055     1.0  0.67436  0.18216  0.85471  1.0000
  C   C2056     1.0  0.89509  0.22814  0.74974  1.0000
  C   C2057     1.0  0.80610  0.21903  0.68389  1.0000
  C   C2058     1.0  0.87649  0.00342  0.72718  1.0000
  H   H3312     1.0  0.84114  0.15185  0.70857  1.0000
  H   H3313     1.0  0.70325  0.21462  0.82746  1.0000
  N   N205      1.0  0.84472  0.17137  0.68668  1.0000
  H   H3314     1.0  0.84747  0.99816  0.74831  1.0000
  C   C2059     1.0  0.73155  0.22858  0.78089  1.0000
  H   H3315     1.0  0.85361  0.22848  0.76036  1.0000
  H   H3316     1.0  0.78441  0.22323  0.72685  1.0000
  C   C2060     1.0  0.67012  0.13299  0.79093  1.0000
  H   H3317     1.0  0.81637  0.10024  0.67976  1.0000
  H   H3318     1.0  0.82239  0.16613  0.96310  1.0000
  H   H3319     1.0  0.70313  0.09215  0.69782  1.0000
  H   H3320     1.0  0.67454  0.10889  0.69746  1.0000
  Fe  Fe426     1.0  0.67756  0.20941  0.78265  1.0000
  H   H3321     1.0  0.71151  0.07587  0.68641  1.0000
  C   C2061     1.0  0.79288  0.16143  0.96226  1.0000
  H   H3322     1.0  0.68857  0.10730  0.77722  1.0000
  H   H3323     1.0  0.88688  0.19419  0.70698  1.0000
  H   H3324     1.0  0.90557  0.22632  0.75527  1.0000
  C   C2062     1.0  0.81031  0.21217  0.65728  1.0000
  Fe  Fe427     1.0  0.77894  0.14589  0.67293  1.0000
  C   C2063     1.0  0.68192  0.98465  0.77349  1.0000
  C   C2064     1.0  0.96540  0.11453  0.76446  1.0000
  N   N206      1.0  0.86128  0.01607  0.73158  1.0000
  C   C2065     1.0  0.72472  0.19669  0.65108  1.0000
  C   C2066     1.0  0.86572  0.22977  0.75257  1.0000
  C   C2067     1.0  0.94884  0.09701  0.76161  1.0000
  H   H3325     1.0  0.72199  0.13429  0.76450  1.0000
  H   H3326     1.0  0.88462  0.21293  0.84205  1.0000
  C   C2068     1.0  0.86602  0.03139  0.73181  1.0000
  H   H3327     1.0  0.81551  0.11741  0.66219  1.0000
  H   H3328     1.0  0.73973  0.22327  0.73200  1.0000
  C   C2069     1.0  0.73305  0.20765  0.83545  1.0000
  N   N207      1.0  0.81855  0.09364  0.65663  1.0000
  H   H3329     1.0  0.72667  0.16814  0.67563  1.0000
  H   H3330     1.0  0.69108  0.09057  0.65991  1.0000
  C   C2070     1.0  0.91911  0.18513  0.72638  1.0000
  C   C2071     1.0  0.71453  0.17416  0.67190  1.0000
  C   C2072     1.0  0.86285  0.16842  0.68547  1.0000
  H   H3331     1.0  0.72031  0.16363  0.92535  1.0000
  S   S835      1.0  0.70262  0.13483  0.66392  1.0000
  N   N208      1.0  0.96342  0.09719  0.76768  1.0000
  H   H3332     1.0  0.84493  0.14558  0.68924  1.0000
  H   H3333     1.0  0.86786  0.17969  0.67837  1.0000
  S   S836      1.0  0.70936  0.20740  0.74076  1.0000
  H   H3334     1.0  0.71333  0.18173  0.94584  1.0000
  H   H3335     1.0  0.72965  0.18437  0.95381  1.0000
  H   H3336     1.0  0.88896  0.20342  0.72252  1.0000
  H   H3337     1.0  0.93663  0.19506  0.84120  1.0000
  H   H3338     1.0  0.98106  0.09247  0.74529  1.0000
  H   H3339     1.0  0.84233  0.08644  0.66361  1.0000
  C   C2073     1.0  0.75421  0.16205  0.93979  1.0000
  C   C2074     1.0  0.71604  0.23002  0.79197  1.0000
  H   H3340     1.0  0.91122  0.20387  0.68798  1.0000
  C   C2075     1.0  0.73234  0.12929  0.69532  1.0000
  Fe  Fe428     1.0  0.93376  0.20090  0.79694  1.0000
  H   H3341     1.0  0.96692  0.12054  0.75100  1.0000
  H   H3342     1.0  0.83910  0.18188  0.70821  1.0000
  C   C2076     1.0  0.70284  0.08822  0.68655  1.0000
  C   C2077     1.0  0.97655  0.12998  0.71702  1.0000
  S   S837      1.0  0.68972  0.23063  0.76785  1.0000
  H   H3343     1.0  0.84429  0.12269  0.66617  1.0000
  C   C2078     1.0  0.72564  0.17550  0.94910  1.0000
  C   C2079     1.0  0.71832  0.13077  0.68907  1.0000
  H   H3344     1.0  0.91522  0.17477  0.73657  1.0000
  H   H3345     1.0  0.97900  0.19919  0.76312  1.0000
  H   H3346     1.0  0.78286  0.01795  0.73258  1.0000
  S   S838      1.0  0.90843  0.21203  0.81070  1.0000
  C   C2080     1.0  0.85334  0.12984  0.65829  1.0000
  H   H3347     1.0  0.72358  0.16470  0.95969  1.0000
  C   C2081     1.0  0.80358  0.20937  0.67442  1.0000
  H   H3348     1.0  0.88825  0.18186  0.72745  1.0000
  H   H3349     1.0  0.69366  0.06938  0.67123  1.0000
  H   H3350     1.0  0.72168  0.15983  0.64561  1.0000
  H   H3351     1.0  0.79328  0.02684  0.78340  1.0000
  S   S839      1.0  0.81768  0.02995  0.66307  1.0000
  Fe  Fe429     1.0  0.80040  0.20770  0.94319  1.0000
  H   H3352     1.0  0.83949  0.19691  0.68874  1.0000
  H   H3353     1.0  0.74385  0.12544  0.76310  1.0000
  C   C2082     1.0  0.66102  0.19597  0.85483  1.0000
  C   C2083     1.0  0.92576  0.20181  0.84914  1.0000
  H   H3354     1.0  0.67894  0.20209  0.70236  1.0000
  S   S840      1.0  0.95596  0.21306  0.78986  1.0000
  H   H3355     1.0  0.93098  0.19815  0.69401  1.0000
  H   H3356     1.0  0.85885  0.00639  0.75796  1.0000
  N   N209      1.0  0.71685  0.18242  0.65407  1.0000
  S   S841      1.0  0.81600  0.99969  0.73636  1.0000
  C   C2084     1.0  0.98465  0.21736  0.79493  1.0000
  H   H3357     1.0  0.72049  0.23046  0.85415  1.0000
  C   C2085     1.0  0.85758  0.21351  0.87961  1.0000
  H   H3358     1.0  0.73277  0.09011  0.89265  1.0000
  C   C2086     1.0  0.91350  0.22628  0.86063  1.0000
  S   S842      1.0  0.67023  0.20607  0.76074  1.0000
  H   H3359     1.0  0.72143  0.18518  0.86176  1.0000
  C   C2087     1.0  0.78324  0.01518  0.65595  1.0000
  C   C2088     1.0  0.83604  0.18482  0.69575  1.0000
  C   C2089     1.0  0.83697  0.09095  0.65230  1.0000
  S   S843      1.0  0.76705  0.17307  0.66876  1.0000
  S   S844      1.0  0.84202  0.22760  0.89011  1.0000
  H   H3360     1.0  0.97745  0.07412  0.76073  1.0000
  Fe  Fe430     1.0  0.68483  0.22545  0.74567  1.0000
  H   H3361     1.0  0.69155  0.20814  0.84807  1.0000
  H   H3362     1.0  0.87974  0.06205  0.66956  1.0000
  C   C2090     1.0  0.91635  0.17201  0.70593  1.0000
  C   C2091     1.0  0.87932  0.22701  0.75987  1.0000
  H   H3363     1.0  0.95434  0.12235  0.77120  1.0000
  H   H3364     1.0  0.70718  0.16437  0.67492  1.0000
  H   H3365     1.0  0.74412  0.09989  0.64521  1.0000
  C   C2092     1.0  0.98446  0.11392  0.71463  1.0000
  C   C2093     1.0  0.70421  0.20637  0.83984  1.0000
  H   H3366     1.0  0.79350  0.00650  0.66163  1.0000
  H   H3367     1.0  0.79336  0.05359  0.64879  1.0000
  H   H3368     1.0  0.91472  0.20349  0.84392  1.0000
  C   C2094     1.0  0.98334  0.19515  0.82578  1.0000
  C   C2095     1.0  0.98617  0.15848  0.76146  1.0000
  H   H3369     1.0  0.92354  0.19349  0.86172  1.0000
  H   H3370     1.0  0.66571  0.12996  0.72210  1.0000
  H   H3371     1.0  0.80944  0.13942  0.94324  1.0000
  H   H3372     1.0  0.82107  0.15513  0.93948  1.0000
  H   H3373     1.0  0.75275  0.15160  0.95082  1.0000
  C   C2096     1.0  0.73618  0.12766  0.66229  1.0000
  N   N210      1.0  0.92833  0.21801  0.84981  1.0000
  H   H3374     1.0  0.84815  0.16655  0.66243  1.0000
  H   H3375     1.0  0.70771  0.19330  0.83819  1.0000
  C   C2097     1.0  0.68219  0.11810  0.76880  1.0000
  H   H3376     1.0  0.86973  0.15819  0.67892  1.0000
  C   C2098     1.0  0.74599  0.22876  0.71920  1.0000
  C   C2099     1.0  0.71745  0.19831  0.86316  1.0000
  C   C2100     1.0  0.86631  0.21940  0.86352  1.0000
  C   C2101     1.0  0.66485  0.20069  0.82486  1.0000
  S   S845      1.0  0.70244  0.00326  0.80060  1.0000
  H   H3377     1.0  0.94950  0.09736  0.79271  1.0000
  C   C2102     1.0  0.66601  0.11779  0.64488  1.0000
  H   H3378     1.0  0.67935  0.11360  0.67527  1.0000
  C   C2103     1.0  0.81531  0.23138  0.67635  1.0000
  H   H3379     1.0  0.94735  0.08410  0.76315  1.0000
  H   H3380     1.0  0.70784  0.22198  0.79298  1.0000
  H   H3381     1.0  0.95921  0.07695  0.78865  1.0000
  H   H3382     1.0  0.98511  0.22618  0.78307  1.0000
  C   C2104     1.0  0.94326  0.21522  0.85661  1.0000
  H   H3383     1.0  0.68737  0.06299  0.70220  1.0000
  H   H3384     1.0  0.73709  0.19256  0.65454  1.0000
  H   H3385     1.0  0.71688  0.20601  0.65848  1.0000
  H   H3386     1.0  0.73991  0.16512  0.64757  1.0000
  H   H3387     1.0  0.83997  0.01888  0.75177  1.0000
  H   H3388     1.0  0.77677  0.20976  0.71915  1.0000
  C   C2105     1.0  0.97673  0.18797  0.76060  1.0000
  H   H3389     1.0  0.78191  0.02762  0.65850  1.0000
  H   H3390     1.0  0.94196  0.20703  0.86930  1.0000
  H   H3391     1.0  0.94552  0.22717  0.85744  1.0000
  H   H3392     1.0  0.96390  0.18665  0.76759  1.0000
  C   C2106     1.0  0.93077  0.22867  0.83285  1.0000
  C   C2107     1.0  0.98820  0.16967  0.78369  1.0000
  H   H3393     1.0  0.98985  0.08685  0.76329  1.0000
  H   H3394     1.0  0.78584  0.16543  0.97404  1.0000
  N   N211      1.0  0.66646  0.12684  0.77807  1.0000
  H   H3395     1.0  0.91954  0.23152  0.82752  1.0000
  C   C2108     1.0  0.78251  0.06348  0.64805  1.0000
  C   C2109     1.0  0.75458  0.08954  0.64586  1.0000
  C   C2110     1.0  0.65844  0.14108  0.76646  1.0000
  H   H3396     1.0  0.82999  0.14529  0.97393  1.0000
  H   H3397     1.0  0.79501  0.12832  0.97183  1.0000
  H   H3398     1.0  0.66098  0.10401  0.79459  1.0000
  H   H3399     1.0  0.98714  0.16039  0.74783  1.0000
  S   S846      1.0  0.98754  0.14296  0.72050  1.0000
  H   H3400     1.0  0.74921  0.21911  0.71168  1.0000
  C   C2111     1.0  0.72761  0.17039  0.64400  1.0000
  C   C2112     1.0  0.80297  0.13344  0.97666  1.0000
  H   H3401     1.0  0.79807  0.10299  0.64409  1.0000
  S   S847      1.0  0.80114  0.23270  0.92561  1.0000
  H   H3402     1.0  0.82698  0.32128  0.24151  1.0000
  Fe  Fe431     1.0  0.71876  0.40816  0.29403  1.0000
  H   H3403     1.0  0.66922  0.35421  0.24429  1.0000
  S   S848      1.0  0.73935  0.38804  0.28469  1.0000
  H   H3404     1.0  0.96388  0.25669  0.12557  1.0000
  C   C2113     1.0  0.96086  0.25601  0.13884  1.0000
  S   S849      1.0  0.71230  0.46977  0.28815  1.0000
  H   H3405     1.0  0.82631  0.33413  0.19623  1.0000
  Fe  Fe432     1.0  0.68234  0.42549  0.29692  1.0000
  H   H3406     1.0  0.74683  0.23671  0.19765  1.0000
  H   H3407     1.0  0.79608  0.24956  0.98797  1.0000
  S   S850      1.0  0.70567  0.43174  0.27943  1.0000
  H   H3408     1.0  0.74126  0.25034  0.06495  1.0000
  H   H3409     1.0  0.73187  0.27052  0.06908  1.0000
  S   S851      1.0  0.75421  0.25369  0.09261  1.0000
  H   H3410     1.0  0.69672  0.25812  0.28468  1.0000
  H   H3411     1.0  0.81217  0.24547  0.12133  1.0000
  H   H3412     1.0  0.70908  0.43193  0.22384  1.0000
  Fe  Fe433     1.0  0.86993  0.25455  0.17241  1.0000
  S   S852      1.0  0.88033  0.26893  0.14714  1.0000
  S   S853      1.0  0.85514  0.26459  0.19510  1.0000
  Fe  Fe434     1.0  0.74061  0.32900  0.23591  1.0000
  S   S854      1.0  0.74159  0.31488  0.26189  1.0000
  S   S855      1.0  0.72429  0.35469  0.23444  1.0000
  Fe  Fe435     1.0  0.76391  0.30018  0.22107  1.0000
  S   S856      1.0  0.76656  0.28396  0.24608  1.0000
  S   S857      1.0  0.77767  0.29024  0.19807  1.0000
  Fe  Fe436     1.0  0.73907  0.29327  0.25360  1.0000
  S   S858      1.0  0.72284  0.27641  0.27136  1.0000
  Fe  Fe437     1.0  0.76888  0.30731  0.25168  1.0000
  S   S859      1.0  0.78643  0.31090  0.26501  1.0000
  S   S860      1.0  0.73593  0.30792  0.22811  1.0000
  S   S861      1.0  0.76826  0.32294  0.22610  1.0000
  Fe  Fe438     1.0  0.71176  0.26416  0.17676  1.0000
  S   S862      1.0  0.70341  0.24088  0.19231  1.0000
  S   S863      1.0  0.73956  0.26067  0.16707  1.0000
  Fe  Fe439     1.0  0.67637  0.28493  0.18038  1.0000
  H   H3413     1.0  0.85804  0.25163  0.23326  1.0000
  C   C2114     1.0  0.66145  0.38713  0.27768  1.0000
  Fe  Fe440     1.0  0.68685  0.25766  0.20901  1.0000
  S   S864      1.0  0.68254  0.24887  0.23679  1.0000
  Fe  Fe441     1.0  0.68300  0.24910  0.17822  1.0000
  H   H3414     1.0  0.75949  0.27822  0.05972  1.0000
  S   S865      1.0  0.69640  0.28063  0.19445  1.0000
  S   S866      1.0  0.69264  0.27103  0.16112  1.0000
  C   C2115     1.0  0.71162  0.26898  0.26160  1.0000
  C   C2116     1.0  0.69945  0.26004  0.27127  1.0000
  S   S867      1.0  0.70485  0.24558  0.09072  1.0000
  C   C2117     1.0  0.69379  0.25664  0.24622  1.0000
  C   C2118     1.0  0.70597  0.26554  0.23659  1.0000
  C   C2119     1.0  0.71485  0.27172  0.24426  1.0000
  H   H3415     1.0  0.68030  0.46696  0.28513  1.0000
  C   C2120     1.0  0.66070  0.32524  0.17709  1.0000
  H   H3416     1.0  0.70875  0.26746  0.22324  1.0000
  H   H3417     1.0  0.72436  0.27836  0.23676  1.0000
  C   C2121     1.0  0.81924  0.26707  0.26287  1.0000
  C   C2122     1.0  0.80550  0.28025  0.26101  1.0000
  C   C2123     1.0  0.80387  0.29461  0.26664  1.0000
  C   C2124     1.0  0.81621  0.29596  0.27378  1.0000
  H   H3418     1.0  0.77573  0.27243  0.14361  1.0000
  H   H3419     1.0  0.79612  0.27913  0.25544  1.0000
  H   H3420     1.0  0.81492  0.30701  0.27825  1.0000
  C   C2125     1.0  0.83524  0.24058  0.09251  1.0000
  C   C2126     1.0  0.96939  0.25597  0.16377  1.0000
  C   C2127     1.0  0.69787  0.24082  0.14026  1.0000
  H   H3421     1.0  0.76477  0.23777  0.14917  1.0000
  C   C2128     1.0  0.66678  0.35353  0.18289  1.0000
  H   H3422     1.0  0.70263  0.32989  0.24655  1.0000
  H   H3423     1.0  0.79812  0.28291  0.12095  1.0000
  H   H3424     1.0  0.77447  0.29678  0.29998  1.0000
  H   H3425     1.0  0.83949  0.28369  0.28131  1.0000
  C   C2129     1.0  0.94104  0.25338  0.16522  1.0000
  C   C2130     1.0  0.95326  0.25433  0.17298  1.0000
  H   H3426     1.0  0.92874  0.25201  0.17248  1.0000
  C   C2131     1.0  0.79677  0.23626  0.99183  1.0000
  C   C2132     1.0  0.83358  0.27058  0.19584  1.0000
  C   C2133     1.0  0.82254  0.27224  0.21105  1.0000
  C   C2134     1.0  0.80539  0.27820  0.21178  1.0000
  C   C2135     1.0  0.79914  0.28237  0.19734  1.0000
  C   C2136     1.0  0.81013  0.28028  0.18218  1.0000
  C   C2137     1.0  0.82735  0.27443  0.18141  1.0000
  H   H3427     1.0  0.82726  0.26904  0.22230  1.0000
  H   H3428     1.0  0.79708  0.27963  0.22352  1.0000
  H   H3429     1.0  0.80540  0.28369  0.17094  1.0000
  H   H3430     1.0  0.83585  0.27337  0.16957  1.0000
  C   C2138     1.0  0.75073  0.25534  0.11331  1.0000
  C   C2139     1.0  0.73756  0.26773  0.11901  1.0000
  C   C2140     1.0  0.73418  0.26934  0.13551  1.0000
  C   C2141     1.0  0.74403  0.25864  0.14637  1.0000
  C   C2142     1.0  0.75734  0.24628  0.14069  1.0000
  C   C2143     1.0  0.76067  0.24459  0.12414  1.0000
  H   H3431     1.0  0.72984  0.27605  0.11068  1.0000
  H   H3432     1.0  0.72408  0.27907  0.13974  1.0000
  H   H3433     1.0  0.67622  0.40799  0.24705  1.0000
  C   C2144     1.0  0.68176  0.23767  0.14607  1.0000
  S   S868      1.0  0.93037  0.25177  0.13780  1.0000
  C   C2145     1.0  0.74688  0.24033  0.22799  1.0000
  H   H3434     1.0  0.70480  0.41350  0.23896  1.0000
  C   C2146     1.0  0.83015  0.28288  0.27537  1.0000
  H   H3435     1.0  0.75866  0.24730  0.03696  1.0000
  C   C2147     1.0  0.73477  0.37902  0.27078  1.0000
  C   C2148     1.0  0.71968  0.38489  0.26543  1.0000
  C   C2149     1.0  0.71647  0.37749  0.25416  1.0000
  C   C2150     1.0  0.72827  0.36415  0.24837  1.0000
  C   C2151     1.0  0.74324  0.35826  0.25388  1.0000
  C   C2152     1.0  0.74649  0.36570  0.26501  1.0000
  H   H3436     1.0  0.71052  0.39508  0.26998  1.0000
  H   H3437     1.0  0.70478  0.38189  0.25012  1.0000
  H   H3438     1.0  0.75248  0.34809  0.24939  1.0000
  H   H3439     1.0  0.75818  0.36115  0.26907  1.0000
  C   C2153     1.0  0.75269  0.26038  0.03192  1.0000
  H   H3440     1.0  0.87627  0.24556  0.24187  1.0000
  H   H3441     1.0  0.68621  0.45246  0.21187  1.0000
  H   H3442     1.0  0.75598  0.26941  0.19254  1.0000
  H   H3443     1.0  0.68943  0.35884  0.23493  1.0000
  H   H3444     1.0  0.69281  0.34179  0.17689  1.0000
  C   C2154     1.0  0.74872  0.26416  0.20495  1.0000
  S   S869      1.0  0.66812  0.24098  0.07532  1.0000
  H   H3445     1.0  0.75320  0.35707  0.30767  1.0000
  H   H3446     1.0  0.76995  0.28325  0.27985  1.0000
  H   H3447     1.0  0.81035  0.31189  0.21022  1.0000
  S   S870      1.0  0.65839  0.43140  0.28828  1.0000
  H   H3448     1.0  0.66450  0.27096  0.14152  1.0000
  H   H3449     1.0  0.76006  0.26574  0.28713  1.0000
  H   H3450     1.0  0.87831  0.24893  0.21970  1.0000
  H   H3451     1.0  0.77082  0.23496  0.11979  1.0000
  Fe  Fe442     1.0  0.90348  0.24835  0.14817  1.0000
  C   C2155     1.0  0.66762  0.47253  0.28258  1.0000
  S   S871      1.0  0.66545  0.26341  0.19655  1.0000
  Fe  Fe443     1.0  0.77536  0.23393  0.08336  1.0000
  C   C2156     1.0  0.67338  0.41733  0.23569  1.0000
  H   H3452     1.0  0.84858  0.31676  0.23098  1.0000
  S   S872      1.0  0.85531  0.26166  0.11748  1.0000
  N   N212      1.0  0.74773  0.27055  0.04463  1.0000
  H   H3453     1.0  0.76204  0.26526  0.02099  1.0000
  H   H3454     1.0  0.78085  0.25426  0.15920  1.0000
  N   N213      1.0  0.80175  0.26038  0.13974  1.0000
  C   C2157     1.0  0.78547  0.26532  0.15085  1.0000
  C   C2158     1.0  0.80004  0.24979  0.12951  1.0000
  C   C2159     1.0  0.81429  0.25095  0.14979  1.0000
  C   C2160     1.0  0.80724  0.27547  0.12876  1.0000
  N   N214      1.0  0.76112  0.27708  0.30628  1.0000
  H   H3455     1.0  0.70459  0.41544  0.21761  1.0000
  H   H3456     1.0  0.78625  0.27332  0.15879  1.0000
  H   H3457     1.0  0.79106  0.25662  0.12135  1.0000
  S   S873      1.0  0.89367  0.23522  0.17425  1.0000
  H   H3458     1.0  0.81070  0.23939  0.15814  1.0000
  H   H3459     1.0  0.67600  0.41046  0.22563  1.0000
  S   S874      1.0  0.85834  0.23972  0.16268  1.0000
  H   H3460     1.0  0.77254  0.25512  0.22265  1.0000
  C   C2161     1.0  0.76826  0.27219  0.29010  1.0000
  H   H3461     1.0  0.66165  0.33075  0.23857  1.0000
  C   C2162     1.0  0.75909  0.23633  0.20008  1.0000
  H   H3462     1.0  0.69498  0.34590  0.20383  1.0000
  C   C2163     1.0  0.69550  0.24457  0.11181  1.0000
  H   H3463     1.0  0.68179  0.43618  0.20520  1.0000
  H   H3464     1.0  0.68645  0.44912  0.24148  1.0000
  H   H3465     1.0  0.70527  0.24012  0.14897  1.0000
  H   H3466     1.0  0.67654  0.31801  0.22519  1.0000
  C   C2164     1.0  0.97312  0.25683  0.14663  1.0000
  S   S875      1.0  0.84726  0.25107  0.27446  1.0000
  H   H3467     1.0  0.80889  0.28365  0.13604  1.0000
  C   C2165     1.0  0.69060  0.25382  0.26359  1.0000
  H   H3468     1.0  0.78160  0.25226  0.20190  1.0000
  H   H3469     1.0  0.66714  0.33902  0.21661  1.0000
  H   H3470     1.0  0.73613  0.28312  0.30227  1.0000
  C   C2166     1.0  0.77365  0.24713  0.21391  1.0000
  H   H3471     1.0  0.72844  0.28806  0.03335  1.0000
  C   C2167     1.0  0.67242  0.23836  0.13473  1.0000
  C   C2168     1.0  0.87093  0.24384  0.23210  1.0000
  S   S876      1.0  0.80838  0.24333  0.30953  1.0000
  H   H3472     1.0  0.82673  0.24714  0.14171  1.0000
  H   H3473     1.0  0.67453  0.36274  0.22235  1.0000
  C   C2169     1.0  0.94480  0.25415  0.14808  1.0000
  C   C2170     1.0  0.67708  0.32644  0.17565  1.0000
  S   S877      1.0  0.98445  0.25648  0.17435  1.0000
  H   H3474     1.0  0.73613  0.26459  0.20324  1.0000
  H   H3475     1.0  0.82091  0.34135  0.21526  1.0000
  S   S878      1.0  0.67044  0.37061  0.18777  1.0000
  C   C2171     1.0  0.74479  0.28869  0.30568  1.0000
  H   H3476     1.0  0.83762  0.30020  0.24072  1.0000
  C   C2172     1.0  0.67947  0.35391  0.23301  1.0000
  C   C2173     1.0  0.84355  0.30366  0.20784  1.0000
  H   H3477     1.0  0.83977  0.30406  0.19625  1.0000
  H   H3478     1.0  0.85609  0.30678  0.20414  1.0000
  H   H3479     1.0  0.84506  0.29051  0.21499  1.0000
  H   H3480     1.0  0.76710  0.24062  0.18781  1.0000
  H   H3481     1.0  0.66561  0.44853  0.21785  1.0000
  H   H3482     1.0  0.73601  0.29572  0.04681  1.0000
  N   N215      1.0  0.83119  0.31508  0.21775  1.0000
  H   H3483     1.0  0.71744  0.24603  0.11864  1.0000
  H   H3484     1.0  0.71002  0.34130  0.21627  1.0000
  Fe  Fe444     1.0  0.70716  0.44388  0.29908  1.0000
  C   C2174     1.0  0.83156  0.26841  0.27001  1.0000
  C   C2175     1.0  0.73981  0.28776  0.03749  1.0000
  H   H3485     1.0  0.74507  0.24801  0.23719  1.0000
  H   H3486     1.0  0.67565  0.39696  0.28850  1.0000
  C   C2176     1.0  0.66496  0.39968  0.28303  1.0000
  H   H3487     1.0  0.76895  0.25806  0.05545  1.0000
  C   C2177     1.0  0.67934  0.43911  0.24466  1.0000
  H   H3488     1.0  0.79563  0.23842  0.13735  1.0000
  S   S879      1.0  0.79587  0.24002  0.02295  1.0000
  C   C2178     1.0  0.76270  0.27081  0.04998  1.0000
  H   H3489     1.0  0.77211  0.27602  0.03938  1.0000
  H   H3490     1.0  0.78038  0.23436  0.21891  1.0000
  C   C2179     1.0  0.70122  0.42248  0.22767  1.0000
  H   H3491     1.0  0.74852  0.29359  0.02654  1.0000
  H   H3492     1.0  0.72425  0.26290  0.05565  1.0000
  C   C2180     1.0  0.69937  0.33711  0.21480  1.0000
  C   C2181     1.0  0.73575  0.26331  0.05911  1.0000
  C   C2182     1.0  0.83018  0.33244  0.20811  1.0000
  N   N216      1.0  0.68585  0.33687  0.22992  1.0000
  C   C2183     1.0  0.67219  0.33086  0.22749  1.0000
  H   H3493     1.0  0.70419  0.32458  0.21177  1.0000
  H   H3494     1.0  0.68238  0.43038  0.25627  1.0000
  H   H3495     1.0  0.74620  0.30042  0.29622  1.0000
  H   H3496     1.0  0.68242  0.32530  0.25599  1.0000
  H   H3497     1.0  0.67180  0.24272  0.10897  1.0000
  C   C2184     1.0  0.68013  0.34074  0.17828  1.0000
  H   H3498     1.0  0.84244  0.33608  0.20491  1.0000
  H   H3499     1.0  0.82018  0.25573  0.25904  1.0000
  N   N217      1.0  0.68325  0.43034  0.23095  1.0000
  H   H3500     1.0  0.74178  0.26001  0.02742  1.0000
  H   H3501     1.0  0.81493  0.29795  0.22911  1.0000
  S   S880      1.0  0.67276  0.23404  0.16738  1.0000
  C   C2185     1.0  0.83634  0.31330  0.23340  1.0000
  H   H3502     1.0  0.80501  0.31926  0.22920  1.0000
  H   H3503     1.0  0.74730  0.27270  0.21322  1.0000
  C   C2186     1.0  0.67918  0.24207  0.11765  1.0000
  C   C2187     1.0  0.81464  0.31089  0.22170  1.0000
  H   H3504     1.0  0.69723  0.31265  0.24254  1.0000
  Fe  Fe445     1.0  0.83311  0.23358  0.29400  1.0000
  H   H3505     1.0  0.68740  0.31652  0.17219  1.0000
  C   C2188     1.0  0.70475  0.24428  0.12310  1.0000
  C   C2189     1.0  0.67908  0.44238  0.21579  1.0000
  C   C2190     1.0  0.69232  0.32565  0.24437  1.0000
  Fe  Fe446     1.0  0.87062  0.25220  0.13740  1.0000
  C   C2191     1.0  0.84984  0.24677  0.11027  1.0000
  H   H3506     1.0  0.81946  0.27221  0.12017  1.0000
  N   N218      1.0  0.75709  0.24699  0.21175  1.0000
  H   H3507     1.0  0.98542  0.25820  0.13936  1.0000
  H   H3508     1.0  0.73433  0.23994  0.22676  1.0000
  H   H3509     1.0  0.83784  0.26521  0.09188  1.0000
  H   H3510     1.0  0.66585  0.44508  0.24763  1.0000
  H   H3511     1.0  0.81607  0.25854  0.15759  1.0000
  H   H3512     1.0  0.95022  0.25375  0.18623  1.0000
  C   C2192     1.0  0.84072  0.25211  0.09766  1.0000
  H   H3513     1.0  0.66657  0.46735  0.27239  1.0000
  H   H3514     1.0  0.82827  0.24480  0.08276  1.0000
  H   H3515     1.0  0.65841  0.46814  0.29387  1.0000
  H   H3516     1.0  0.78068  0.26353  0.28995  1.0000
  S   S881      1.0  0.79942  0.24032  0.06773  1.0000
  H   H3517     1.0  0.65989  0.23626  0.13908  1.0000
  H   H3518     1.0  0.66939  0.37478  0.27917  1.0000
  H   H3519     1.0  0.68112  0.24701  0.27111  1.0000
  H   H3520     1.0  0.66432  0.29274  0.13742  1.0000
  H   H3521     1.0  0.65974  0.42278  0.23832  1.0000
  S   S882      1.0  0.69525  0.40069  0.30963  1.0000
  H   H3522     1.0  0.78510  0.27704  0.30996  1.0000
  C   C2193     1.0  0.77255  0.28535  0.30974  1.0000
  H   H3523     1.0  0.68371  0.42727  0.62389  1.0000
  H   H3524     1.0  0.79153  0.25034  0.53113  1.0000
  Fe  Fe447     1.0  0.74232  0.29766  0.55135  1.0000
  S   S883      1.0  0.76805  0.28786  0.53767  1.0000
  S   S884      1.0  0.73542  0.32358  0.55641  1.0000
  Fe  Fe448     1.0  0.73006  0.26683  0.55243  1.0000
  S   S885      1.0  0.75486  0.25499  0.53871  1.0000
  S   S886      1.0  0.71133  0.25042  0.56085  1.0000
  Fe  Fe449     1.0  0.76519  0.26353  0.55549  1.0000
  S   S887      1.0  0.78643  0.24588  0.56619  1.0000
  Fe  Fe450     1.0  0.75508  0.28033  0.52227  1.0000
  S   S888      1.0  0.76558  0.28370  0.49458  1.0000
  S   S889      1.0  0.74035  0.27388  0.57046  1.0000
  S   S890      1.0  0.72937  0.29173  0.53470  1.0000
  Fe  Fe451     1.0  0.76763  0.39394  0.61802  1.0000
  C   C2194     1.0  0.72195  0.45548  0.58917  1.0000
  Fe  Fe452     1.0  0.76562  0.35999  0.61339  1.0000
  N   N219      1.0  0.69401  0.25644  0.47426  1.0000
  S   S891      1.0  0.77684  0.33857  0.60017  1.0000
  C   C2195     1.0  0.68607  0.24412  0.55105  1.0000
  C   C2196     1.0  0.74521  0.34837  0.31600  1.0000
  H   H3525     1.0  0.72912  0.33264  0.48393  1.0000
  S   S892      1.0  0.77561  0.41852  0.60594  1.0000
  S   S893      1.0  0.75400  0.38643  0.60311  1.0000
  S   S894      1.0  0.78145  0.36752  0.62608  1.0000
  H   H3526     1.0  0.70371  0.27778  0.53335  1.0000
  H   H3527     1.0  0.81681  0.23747  0.54243  1.0000
  H   H3528     1.0  0.67219  0.27429  0.48267  1.0000
  C   C2197     1.0  0.68765  0.24700  0.36573  1.0000
  C   C2198     1.0  0.72005  0.42762  0.58978  1.0000
  H   H3529     1.0  0.80599  0.28181  0.52089  1.0000
  Fe  Fe453     1.0  0.73444  0.38413  0.62668  1.0000
  H   H3530     1.0  0.76165  0.48051  0.33543  1.0000
  C   C2199     1.0  0.68487  0.27381  0.47451  1.0000
  H   H3531     1.0  0.70945  0.46715  0.32368  1.0000
  C   C2200     1.0  0.73227  0.43234  0.60992  1.0000
  H   H3532     1.0  0.68246  0.28446  0.51649  1.0000
  Fe  Fe454     1.0  0.70856  0.31028  0.38929  1.0000
  S   S895      1.0  0.72765  0.31699  0.39830  1.0000
  S   S896      1.0  0.69035  0.32752  0.37423  1.0000
  Fe  Fe455     1.0  0.72106  0.27296  0.40089  1.0000
  S   S897      1.0  0.74147  0.27621  0.41078  1.0000
  H   H3533     1.0  0.72004  0.43404  0.61888  1.0000
  Fe  Fe456     1.0  0.72195  0.29671  0.42103  1.0000
  S   S898      1.0  0.71432  0.29894  0.44799  1.0000
  Fe  Fe457     1.0  0.74545  0.29603  0.38727  1.0000
  S   S899      1.0  0.76843  0.29933  0.36721  1.0000
  S   S900      1.0  0.70118  0.29185  0.41275  1.0000
  S   S901      1.0  0.72675  0.29086  0.37667  1.0000
  C   C2201     1.0  0.78113  0.27991  0.36430  1.0000
  C   C2202     1.0  0.79015  0.27792  0.34835  1.0000
  H   H3534     1.0  0.78981  0.28853  0.33796  1.0000
  C   C2203     1.0  0.69257  0.38256  0.36021  1.0000
  C   C2204     1.0  0.68593  0.37593  0.35086  1.0000
  C   C2205     1.0  0.68498  0.35911  0.35550  1.0000
  C   C2206     1.0  0.69093  0.34871  0.36936  1.0000
  C   C2207     1.0  0.69751  0.35529  0.37879  1.0000
  C   C2208     1.0  0.69815  0.37225  0.37432  1.0000
  H   H3535     1.0  0.67981  0.35406  0.34822  1.0000
  H   H3536     1.0  0.70187  0.34740  0.38968  1.0000
  H   H3537     1.0  0.70315  0.37733  0.38172  1.0000
  C   C2209     1.0  0.67268  0.26244  0.52900  1.0000
  S   S902      1.0  0.69394  0.40363  0.35446  1.0000
  C   C2210     1.0  0.71628  0.33317  0.51627  1.0000
  C   C2211     1.0  0.70100  0.26194  0.37681  1.0000
  H   H3538     1.0  0.66767  0.24079  0.40943  1.0000
  H   H3539     1.0  0.68121  0.38379  0.34026  1.0000
  C   C2212     1.0  0.70997  0.47983  0.31706  1.0000
  C   C2213     1.0  0.78210  0.26629  0.37778  1.0000
  H   H3540     1.0  0.75505  0.44245  0.58300  1.0000
  H   H3541     1.0  0.74029  0.43935  0.61234  1.0000
  C   C2214     1.0  0.70570  0.24746  0.38844  1.0000
  H   H3542     1.0  0.72940  0.46337  0.59113  1.0000
  C   C2215     1.0  0.73349  0.35303  0.51102  1.0000
  H   H3543     1.0  0.74592  0.43917  0.56785  1.0000
  H   H3544     1.0  0.69154  0.28043  0.47925  1.0000
  H   H3545     1.0  0.71684  0.32931  0.52969  1.0000
  C   C2216     1.0  0.82603  0.25987  0.50277  1.0000
  H   H3546     1.0  0.71435  0.32238  0.51265  1.0000
  N   N220      1.0  0.81565  0.25602  0.51970  1.0000
  C   C2217     1.0  0.73171  0.36769  0.33400  1.0000
  H   H3547     1.0  0.83655  0.24203  0.53070  1.0000
  C   C2218     1.0  0.77666  0.43166  0.61820  1.0000
  H   H3548     1.0  0.65980  0.40373  0.31907  1.0000
  H   H3549     1.0  0.79681  0.30184  0.61641  1.0000
  S   S903      1.0  0.67525  0.24741  0.35229  1.0000
  H   H3550     1.0  0.81535  0.28608  0.61940  1.0000
  C   C2219     1.0  0.77564  0.44876  0.61125  1.0000
  H   H3551     1.0  0.72599  0.41409  0.59222  1.0000
  H   H3552     1.0  0.68232  0.25409  0.45597  1.0000
  C   C2220     1.0  0.73039  0.34339  0.48816  1.0000
  C   C2221     1.0  0.73045  0.33861  0.34403  1.0000
  H   H3553     1.0  0.75351  0.24184  0.58515  1.0000
  H   H3554     1.0  0.81968  0.27133  0.49501  1.0000
  H   H3555     1.0  0.68435  0.24673  0.50007  1.0000
  C   C2222     1.0  0.75133  0.28760  0.48169  1.0000
  C   C2223     1.0  0.75728  0.28802  0.46460  1.0000
  C   C2224     1.0  0.74609  0.29134  0.45408  1.0000
  C   C2225     1.0  0.72889  0.29454  0.46060  1.0000
  C   C2226     1.0  0.72297  0.29421  0.47766  1.0000
  C   C2227     1.0  0.73412  0.29060  0.48819  1.0000
  H   H3556     1.0  0.77057  0.28571  0.45946  1.0000
  H   H3557     1.0  0.75078  0.29159  0.44093  1.0000
  H   H3558     1.0  0.70968  0.29672  0.48280  1.0000
  H   H3559     1.0  0.72936  0.29016  0.50132  1.0000
  N   N221      1.0  0.80771  0.30318  0.63575  1.0000
  N   N222      1.0  0.73160  0.33864  0.50583  1.0000
  S   S904      1.0  0.71661  0.24762  0.40300  1.0000
  H   H3560     1.0  0.78655  0.32354  0.63299  1.0000
  H   H3561     1.0  0.66577  0.23950  0.54366  1.0000
  C   C2228     1.0  0.79196  0.25072  0.37533  1.0000
  H   H3562     1.0  0.82860  0.24953  0.49624  1.0000
  S   S905      1.0  0.70794  0.39650  0.62525  1.0000
  Fe  Fe458     1.0  0.69786  0.41470  0.32697  1.0000
  C   C2229     1.0  0.80034  0.24849  0.35929  1.0000
  C   C2230     1.0  0.74672  0.32740  0.56901  1.0000
  C   C2231     1.0  0.76112  0.31606  0.57293  1.0000
  C   C2232     1.0  0.77024  0.31962  0.58249  1.0000
  C   C2233     1.0  0.76491  0.33440  0.58842  1.0000
  C   C2234     1.0  0.75038  0.34564  0.58469  1.0000
  C   C2235     1.0  0.74141  0.34220  0.57490  1.0000
  H   H3563     1.0  0.76531  0.30459  0.56852  1.0000
  H   H3564     1.0  0.78144  0.31086  0.58533  1.0000
  H   H3565     1.0  0.74615  0.35705  0.58920  1.0000
  H   H3566     1.0  0.73027  0.35100  0.57197  1.0000
  H   H3567     1.0  0.74173  0.34761  0.47991  1.0000
  H   H3568     1.0  0.71758  0.24366  0.46186  1.0000
  H   H3569     1.0  0.66462  0.27642  0.38821  1.0000
  C   C2236     1.0  0.69676  0.25496  0.54826  1.0000
  C   C2237     1.0  0.69558  0.26936  0.53560  1.0000
  C   C2238     1.0  0.68350  0.27315  0.52606  1.0000
  H   H3570     1.0  0.74521  0.31376  0.50423  1.0000
  H   H3571     1.0  0.70752  0.42893  0.59831  1.0000
  H   H3572     1.0  0.75208  0.33549  0.31498  1.0000
  H   H3573     1.0  0.73865  0.29215  0.31788  1.0000
  H   H3574     1.0  0.71813  0.26270  0.46666  1.0000
  C   C2239     1.0  0.67412  0.24779  0.54134  1.0000
  H   H3575     1.0  0.79289  0.24033  0.38590  1.0000
  C   C2240     1.0  0.68426  0.24789  0.46874  1.0000
  H   H3576     1.0  0.67607  0.25688  0.41186  1.0000
  H   H3577     1.0  0.71986  0.37059  0.32969  1.0000
  H   H3578     1.0  0.80661  0.26080  0.33354  1.0000
  H   H3579     1.0  0.67171  0.24779  0.47718  1.0000
  C   C2241     1.0  0.75639  0.34699  0.33952  1.0000
  H   H3580     1.0  0.77394  0.45372  0.59861  1.0000
  H   H3581     1.0  0.71861  0.34075  0.33988  1.0000
  H   H3582     1.0  0.79244  0.26503  0.51153  1.0000
  C   C2242     1.0  0.79932  0.32084  0.63537  1.0000
  N   N223      1.0  0.74094  0.35041  0.33339  1.0000
  H   H3583     1.0  0.75353  0.42193  0.58334  1.0000
  H   H3584     1.0  0.72266  0.36369  0.50964  1.0000
  H   H3585     1.0  0.75044  0.25548  0.31715  1.0000
  C   C2243     1.0  0.74625  0.32488  0.50792  1.0000
  H   H3586     1.0  0.80480  0.26752  0.54073  1.0000
  C   C2244     1.0  0.75886  0.26208  0.31955  1.0000
  H   H3587     1.0  0.74499  0.35742  0.50354  1.0000
  H   H3588     1.0  0.70499  0.34332  0.51515  1.0000
  H   H3589     1.0  0.73914  0.37696  0.32583  1.0000
  C   C2245     1.0  0.66474  0.25152  0.41550  1.0000
  H   H3590     1.0  0.74982  0.24438  0.38348  1.0000
  H   H3591     1.0  0.72026  0.45996  0.57611  1.0000
  H   H3592     1.0  0.71939  0.35366  0.48608  1.0000
  H   H3593     1.0  0.75849  0.47658  0.31700  1.0000
  C   C2246     1.0  0.69648  0.24758  0.49116  1.0000
  C   C2247     1.0  0.74687  0.43525  0.58113  1.0000
  H   H3594     1.0  0.68345  0.28110  0.46183  1.0000
  H   H3595     1.0  0.68843  0.27296  0.35645  1.0000
  C   C2248     1.0  0.68777  0.42418  0.63549  1.0000
  H   H3596     1.0  0.70307  0.25413  0.49610  1.0000
  H   H3597     1.0  0.77097  0.25306  0.32022  1.0000
  H   H3598     1.0  0.81679  0.30727  0.60923  1.0000
  H   H3599     1.0  0.80636  0.32939  0.62537  1.0000
  H   H3600     1.0  0.70906  0.26349  0.44985  1.0000
  C   C2249     1.0  0.77903  0.42533  0.63447  1.0000
  H   H3601     1.0  0.76767  0.28904  0.32196  1.0000
  S   S906      1.0  0.72248  0.42068  0.31218  1.0000
  H   H3602     1.0  0.77555  0.26783  0.39018  1.0000
  H   H3603     1.0  0.75803  0.32848  0.50014  1.0000
  C   C2250     1.0  0.69222  0.26165  0.36531  1.0000
  H   H3604     1.0  0.66253  0.24650  0.42920  1.0000
  H   H3605     1.0  0.74761  0.32102  0.52110  1.0000
  H   H3606     1.0  0.71823  0.43127  0.57678  1.0000
  C   C2251     1.0  0.79957  0.26219  0.34582  1.0000
  H   H3607     1.0  0.74462  0.24830  0.36367  1.0000
  H   H3608     1.0  0.72844  0.36986  0.34687  1.0000
  H   H3609     1.0  0.73438  0.34969  0.52436  1.0000
  C   C2252     1.0  0.77719  0.45943  0.62041  1.0000
  H   H3610     1.0  0.73706  0.32544  0.34402  1.0000
  S   S907      1.0  0.74734  0.39299  0.64103  1.0000
  H   H3611     1.0  0.83825  0.26194  0.50310  1.0000
  H   H3612     1.0  0.70376  0.27350  0.37685  1.0000
  H   H3613     1.0  0.70940  0.45772  0.59755  1.0000
  H   H3614     1.0  0.76358  0.33397  0.33941  1.0000
  H   H3615     1.0  0.75347  0.26531  0.33194  1.0000
  C   C2253     1.0  0.69942  0.40947  0.63947  1.0000
  S   S908      1.0  0.74465  0.35704  0.63572  1.0000
  H   H3616     1.0  0.77660  0.47254  0.61487  1.0000
  H   H3617     1.0  0.73833  0.41894  0.61284  1.0000
  H   H3618     1.0  0.72700  0.33987  0.35722  1.0000
  C   C2254     1.0  0.71042  0.25652  0.46265  1.0000
  S   S909      1.0  0.68279  0.43909  0.31568  1.0000
  N   N224      1.0  0.73028  0.43768  0.59249  1.0000
  C   C2255     1.0  0.82434  0.24065  0.52955  1.0000
  C   C2256     1.0  0.79954  0.25356  0.51856  1.0000
  C   C2257     1.0  0.81263  0.27002  0.52792  1.0000
  C   C2258     1.0  0.78028  0.45296  0.63642  1.0000
  H   H3619     1.0  0.75359  0.34846  0.35261  1.0000
  H   H3620     1.0  0.83116  0.28687  0.63961  1.0000
  H   H3621     1.0  0.76469  0.35560  0.33178  1.0000
  C   C2259     1.0  0.82448  0.30012  0.63919  1.0000
  C   C2260     1.0  0.75460  0.24185  0.37073  1.0000
  C   C2261     1.0  0.80926  0.29938  0.61949  1.0000
  H   H3622     1.0  0.83237  0.30811  0.62953  1.0000
  H   H3623     1.0  0.82450  0.27220  0.52907  1.0000
  H   H3624     1.0  0.76543  0.24787  0.36485  1.0000
  H   H3625     1.0  0.80129  0.24330  0.51218  1.0000
  H   H3626     1.0  0.77995  0.41216  0.63990  1.0000
  H   H3627     1.0  0.70382  0.23462  0.49135  1.0000
  H   H3628     1.0  0.66187  0.41303  0.34337  1.0000
  H   H3629     1.0  0.69057  0.23465  0.46869  1.0000
  H   H3630     1.0  0.73383  0.35119  0.31087  1.0000
  C   C2262     1.0  0.78110  0.43591  0.64344  1.0000
  H   H3631     1.0  0.67270  0.44662  0.64320  1.0000
  C   C2263     1.0  0.70440  0.40538  0.65463  1.0000
  S   S910      1.0  0.67858  0.44476  0.67503  1.0000
  C   C2264     1.0  0.79775  0.29236  0.64899  1.0000
  N   N225      1.0  0.67502  0.42527  0.78385  1.0000
  Fe  Fe459     1.0  0.68406  0.40807  0.73123  1.0000
  H   H3632     1.0  0.85176  0.25614  0.76874  1.0000
  H   H3633     1.0  0.67984  0.44859  0.78443  1.0000
  H   H3634     1.0  0.79281  0.36126  0.65826  1.0000
  H   H3635     1.0  0.79753  0.23347  0.96722  1.0000
  H   H3636     1.0  0.68399  0.35684  0.65793  1.0000
  S   S911      1.0  0.70665  0.34590  0.81031  1.0000
  H   H3637     1.0  0.82248  0.46065  0.67047  1.0000
  Fe  Fe460     1.0  0.75425  0.30549  0.78414  1.0000
  S   S912      1.0  0.75308  0.32093  0.80183  1.0000
  S   S913      1.0  0.76989  0.31175  0.75858  1.0000
  Fe  Fe461     1.0  0.73038  0.28547  0.80865  1.0000
  S   S914      1.0  0.72699  0.29926  0.82860  1.0000
  Fe  Fe462     1.0  0.72564  0.32208  0.80792  1.0000
  Fe  Fe463     1.0  0.75475  0.29669  0.82067  1.0000
  S   S915      1.0  0.77332  0.29083  0.83681  1.0000
  S   S916      1.0  0.72661  0.30856  0.78859  1.0000
  S   S917      1.0  0.75834  0.28103  0.80238  1.0000
  H   H3638     1.0  0.76040  0.25267  0.69658  1.0000
  Fe  Fe464     1.0  0.82447  0.25570  0.70796  1.0000
  S   S918      1.0  0.84197  0.27006  0.71015  1.0000
  S   S919      1.0  0.80329  0.24833  0.72851  1.0000
  H   H3639     1.0  0.69848  0.42019  0.79099  1.0000
  Fe  Fe465     1.0  0.86160  0.25264  0.69586  1.0000
  S   S920      1.0  0.88615  0.24087  0.70336  1.0000
  C   C2265     1.0  0.78444  0.32525  0.68473  1.0000
  C   C2266     1.0  0.74245  0.23848  0.78031  1.0000
  H   H3640     1.0  0.72756  0.44354  0.68981  1.0000
  H   H3641     1.0  0.74073  0.36868  0.72687  1.0000
  S   S921      1.0  0.75889  0.24340  0.90786  1.0000
  H   H3642     1.0  0.78056  0.24511  0.70182  1.0000
  H   H3643     1.0  0.80298  0.30412  0.69313  1.0000
  C   C2267     1.0  0.78153  0.34136  0.67484  1.0000
  C   C2268     1.0  0.72179  0.25195  0.80113  1.0000
  C   C2269     1.0  0.77746  0.29449  0.74942  1.0000
  C   C2270     1.0  0.77239  0.27944  0.75724  1.0000
  C   C2271     1.0  0.77993  0.26525  0.75055  1.0000
  C   C2272     1.0  0.79247  0.26621  0.73604  1.0000
  C   C2273     1.0  0.79699  0.28142  0.72793  1.0000
  C   C2274     1.0  0.78947  0.29557  0.73455  1.0000
  H   H3644     1.0  0.76285  0.27866  0.76854  1.0000
  H   H3645     1.0  0.77641  0.25348  0.75687  1.0000
  H   H3646     1.0  0.80656  0.28225  0.71669  1.0000
  H   H3647     1.0  0.79343  0.30718  0.72842  1.0000
  C   C2275     1.0  0.68525  0.36748  0.68439  1.0000
  H   H3648     1.0  0.68007  0.36657  0.79432  1.0000
  C   C2276     1.0  0.66267  0.38955  0.67599  1.0000
  S   S922      1.0  0.68168  0.43550  0.72068  1.0000
  Fe  Fe466     1.0  0.75964  0.36606  0.64785  1.0000
  C   C2277     1.0  0.73753  0.25024  0.79039  1.0000
  H   H3649     1.0  0.93339  0.24076  0.83277  1.0000
  C   C2278     1.0  0.76317  0.25587  0.88777  1.0000
  C   C2279     1.0  0.77868  0.26027  0.88126  1.0000
  C   C2280     1.0  0.78175  0.27084  0.86550  1.0000
  C   C2281     1.0  0.76951  0.27665  0.85598  1.0000
  C   C2282     1.0  0.75419  0.27178  0.86225  1.0000
  C   C2283     1.0  0.75092  0.26165  0.87826  1.0000
  H   H3650     1.0  0.78819  0.25585  0.88855  1.0000
  H   H3651     1.0  0.79363  0.27454  0.86070  1.0000
  H   H3652     1.0  0.74477  0.27598  0.85490  1.0000
  C   C2284     1.0  0.76888  0.24140  0.70218  1.0000
  S   S923      1.0  0.85931  0.26903  0.67071  1.0000
  S   S924      1.0  0.81873  0.27249  0.68419  1.0000
  H   H3653     1.0  0.69879  0.47182  0.66337  1.0000
  Fe  Fe467     1.0  0.84014  0.25504  0.67207  1.0000
  C   C2285     1.0  0.81428  0.32382  0.67632  1.0000
  C   C2286     1.0  0.81135  0.33999  0.66657  1.0000
  H   H3654     1.0  0.82593  0.28805  0.74059  1.0000
  H   H3655     1.0  0.80833  0.27607  0.78573  1.0000
  N   N226      1.0  0.72367  0.46203  0.66757  1.0000
  H   H3656     1.0  0.74822  0.30711  0.86979  1.0000
  C   C2287     1.0  0.73737  0.34028  0.86786  1.0000
  H   H3657     1.0  0.73896  0.25814  0.88322  1.0000
  H   H3658     1.0  0.82675  0.28275  0.78514  1.0000
  H   H3659     1.0  0.74143  0.44591  0.65239  1.0000
  C   C2288     1.0  0.75620  0.24679  0.72961  1.0000
  H   H3660     1.0  0.80806  0.26188  0.76427  1.0000
  H   H3661     1.0  0.66391  0.24842  0.79053  1.0000
  H   H3662     1.0  0.71142  0.45720  0.65108  1.0000
  H   H3663     1.0  0.82627  0.24667  0.76905  1.0000
  H   H3664     1.0  0.76558  0.34417  0.70869  1.0000
  C   C2289     1.0  0.72345  0.47604  0.67467  1.0000
  H   H3665     1.0  0.72482  0.34023  0.87623  1.0000
  S   S925      1.0  0.65846  0.41069  0.74759  1.0000
  H   H3666     1.0  0.74711  0.25790  0.72470  1.0000
  S   S926      1.0  0.78329  0.46569  0.64804  1.0000
  C   C2290     1.0  0.69183  0.36815  0.78585  1.0000
  H   H3667     1.0  0.91491  0.23858  0.86146  1.0000
  H   H3668     1.0  0.72174  0.34252  0.74751  1.0000
  H   H3669     1.0  0.68079  0.36878  0.69758  1.0000
  H   H3670     1.0  0.69344  0.43337  0.76235  1.0000
  N   N227      1.0  0.82832  0.27216  0.76455  1.0000
  H   H3671     1.0  0.75892  0.32532  0.83339  1.0000
  C   C2291     1.0  0.68647  0.43101  0.66156  1.0000
  H   H3672     1.0  0.72611  0.31295  0.87063  1.0000
  C   C2292     1.0  0.68276  0.42706  0.76594  1.0000
  C   C2293     1.0  0.84677  0.26804  0.76055  1.0000
  S   S927      1.0  0.84447  0.23692  0.69588  1.0000
  C   C2294     1.0  0.82194  0.25915  0.76136  1.0000
  H   H3673     1.0  0.73363  0.35436  0.78310  1.0000
  H   H3674     1.0  0.69212  0.35438  0.68438  1.0000
  H   H3675     1.0  0.68197  0.41285  0.80725  1.0000
  H   H3676     1.0  0.82619  0.25815  0.74807  1.0000
  H   H3677     1.0  0.75457  0.23722  0.77195  1.0000
  H   H3678     1.0  0.85180  0.26664  0.74742  1.0000
  H   H3679     1.0  0.82375  0.30284  0.65140  1.0000
  H   H3680     1.0  0.78516  0.29403  0.64658  1.0000
  H   H3681     1.0  0.66734  0.37352  0.65167  1.0000
  H   H3682     1.0  0.66532  0.34768  0.68499  1.0000
  C   C2295     1.0  0.72728  0.33920  0.84448  1.0000
  H   H3683     1.0  0.84257  0.46507  0.65975  1.0000
  C   C2296     1.0  0.74065  0.45651  0.65796  1.0000
  N   N228      1.0  0.67120  0.37200  0.67590  1.0000
  H   H3684     1.0  0.73833  0.35351  0.86252  1.0000
  H   H3685     1.0  0.69436  0.37565  0.67815  1.0000
  H   H3686     1.0  0.74470  0.46679  0.64763  1.0000
  H   H3687     1.0  0.74682  0.33449  0.87569  1.0000
  H   H3688     1.0  0.82175  0.34575  0.65959  1.0000
  S   S928      1.0  0.83487  0.31295  0.67677  1.0000
  C   C2297     1.0  0.72200  0.36110  0.77950  1.0000
  H   H3689     1.0  0.72233  0.36548  0.72308  1.0000
  C   C2298     1.0  0.73553  0.33830  0.74395  1.0000
  H   H3690     1.0  0.76557  0.34445  0.72955  1.0000
  C   C2299     1.0  0.72217  0.37200  0.76387  1.0000
  C   C2300     1.0  0.73857  0.31375  0.86233  1.0000
  C   C2301     1.0  0.69201  0.37857  0.76992  1.0000
  S   S929      1.0  0.76104  0.35222  0.67400  1.0000
  C   C2302     1.0  0.73558  0.33483  0.71691  1.0000
  H   H3691     1.0  0.72172  0.33773  0.71961  1.0000
  H   H3692     1.0  0.74079  0.36603  0.70675  1.0000
  C   C2303     1.0  0.68156  0.43512  0.64638  1.0000
  H   H3693     1.0  0.74116  0.34344  0.75118  1.0000
  H   H3694     1.0  0.70166  0.41288  0.67748  1.0000
  C   C2304     1.0  0.86774  0.23416  0.73521  1.0000
  C   C2305     1.0  0.70721  0.38060  0.75895  1.0000
  C   C2306     1.0  0.69778  0.41606  0.66578  1.0000
  N   N229      1.0  0.74000  0.33120  0.85464  1.0000
  H   H3695     1.0  0.71500  0.47805  0.64603  1.0000
  C   C2307     1.0  0.76034  0.33924  0.72201  1.0000
  H   H3696     1.0  0.81686  0.23891  0.68380  1.0000
  H   H3697     1.0  0.74591  0.25792  0.78986  1.0000
  C   C2308     1.0  0.71173  0.46754  0.65648  1.0000
  H   H3698     1.0  0.73397  0.37371  0.75557  1.0000
  S   S930      1.0  0.71523  0.26609  0.81428  1.0000
  H   H3699     1.0  0.75003  0.45238  0.66591  1.0000
  H   H3700     1.0  0.74038  0.30663  0.85270  1.0000
  C   C2309     1.0  0.70683  0.35925  0.79058  1.0000
  C   C2310     1.0  0.67269  0.47000  0.74631  1.0000
  H   H3701     1.0  0.76679  0.32464  0.85089  1.0000
  C   C2311     1.0  0.79499  0.34872  0.66573  1.0000
  H   H3702     1.0  0.66054  0.27945  0.71043  1.0000
  C   C2312     1.0  0.71886  0.44805  0.68115  1.0000
  H   H3703     1.0  0.77406  0.31950  0.69179  1.0000
  C   C2313     1.0  0.73618  0.36172  0.72039  1.0000
  H   H3704     1.0  0.74009  0.33853  0.70321  1.0000
  H   H3705     1.0  0.71319  0.39387  0.65787  1.0000
  H   H3706     1.0  0.73863  0.32449  0.74821  1.0000
  H   H3707     1.0  0.82658  0.26092  0.79058  1.0000
  H   H3708     1.0  0.72897  0.33263  0.83437  1.0000
  H   H3709     1.0  0.85205  0.27786  0.76224  1.0000
  Fe  Fe468     1.0  0.83808  0.28517  0.68500  1.0000
  H   H3710     1.0  0.71441  0.33909  0.85206  1.0000
  S   S931      1.0  0.70807  0.39380  0.73905  1.0000
  N   N230      1.0  0.74190  0.34353  0.72583  1.0000
  C   C2314     1.0  0.80081  0.31646  0.68539  1.0000
  C   C2315     1.0  0.68739  0.41463  0.79364  1.0000
  H   H3711     1.0  0.76514  0.32553  0.72466  1.0000
  S   S932      1.0  0.67647  0.40315  0.71022  1.0000
  H   H3712     1.0  0.73989  0.32107  0.72056  1.0000
  H   H3713     1.0  0.68042  0.38485  0.76612  1.0000
  H   H3714     1.0  0.69489  0.47799  0.74541  1.0000
  H   H3715     1.0  0.68754  0.41475  0.76242  1.0000
  C   C2316     1.0  0.82223  0.27302  0.78228  1.0000
  C   C2317     1.0  0.71110  0.24180  0.80190  1.0000
  H   H3716     1.0  0.67945  0.46011  0.73990  1.0000
  H   H3717     1.0  0.72797  0.35237  0.83837  1.0000
  H   H3718     1.0  0.66425  0.40492  0.78481  1.0000
  H   H3719     1.0  0.82742  0.29847  0.75556  1.0000
  C   C2318     1.0  0.82229  0.28846  0.75404  1.0000
  C   C2319     1.0  0.75681  0.33148  0.84389  1.0000
  H   H3720     1.0  0.75864  0.34442  0.83838  1.0000
  C   C2320     1.0  0.65930  0.36103  0.68472  1.0000
  H   H3721     1.0  0.65824  0.39165  0.68890  1.0000
  H   H3722     1.0  0.79599  0.29525  0.66135  1.0000
  H   H3723     1.0  0.75031  0.24168  0.74269  1.0000
  H   H3724     1.0  0.80846  0.29232  0.75734  1.0000
  H   H3725     1.0  0.78350  0.43079  0.65582  1.0000
  H   H3726     1.0  0.71882  0.43730  0.67619  1.0000
  H   H3727     1.0  0.68677  0.37789  0.65155  1.0000
  C   C2321     1.0  0.83127  0.46866  0.66934  1.0000
  H   H3728     1.0  0.67112  0.39823  0.66896  1.0000
  H   H3729     1.0  0.69195  0.40203  0.79066  1.0000
  S   S933      1.0  0.67745  0.24749  0.72562  1.0000
  H   H3730     1.0  0.67358  0.43450  0.75823  1.0000
  Fe  Fe469     1.0  0.67142  0.43096  0.70138  1.0000
  H   H3731     1.0  0.83510  0.46556  0.68145  1.0000
  H   H3732     1.0  0.79809  0.32420  0.64736  1.0000
  H   H3733     1.0  0.73666  0.23938  0.71391  1.0000
  H   H3734     1.0  0.71003  0.23627  0.83730  1.0000
  C   C2322     1.0  0.66942  0.44191  0.78800  1.0000
  S   S934      1.0  0.83567  0.24801  0.65061  1.0000
  H   H3735     1.0  0.70604  0.45180  0.68857  1.0000
  H   H3736     1.0  0.69890  0.24313  0.81015  1.0000
  H   H3737     1.0  0.71090  0.48056  0.68212  1.0000
  C   C2323     1.0  0.68144  0.48023  0.74937  1.0000
  H   H3738     1.0  0.66115  0.26036  0.76076  1.0000
  H   H3739     1.0  0.85720  0.23619  0.72966  1.0000
  H   H3740     1.0  0.73250  0.47247  0.68292  1.0000
  C   C2324     1.0  0.67759  0.36996  0.65852  1.0000
  H   H3741     1.0  0.80399  0.27893  0.64990  1.0000
  H   H3742     1.0  0.66409  0.44104  0.80154  1.0000
  C   C2325     1.0  0.88344  0.23562  0.72509  1.0000
  N   N231      1.0  0.76099  0.23414  0.71938  1.0000
  H   H3743     1.0  0.76727  0.25108  0.72995  1.0000
  H   H3744     1.0  0.90932  0.23350  0.72455  1.0000
  H   H3745     1.0  0.65954  0.44995  0.78133  1.0000
  C   C2326     1.0  0.66050  0.41751  0.78774  1.0000
  H   H3746     1.0  0.80878  0.48285  0.64979  1.0000
  C   C2327     1.0  0.82261  0.23378  0.65937  1.0000
  C   C2328     1.0  0.69098  0.61149  0.20995  1.0000
  C   C2329     1.0  0.67008  0.60412  0.20089  1.0000
  H   H3747     1.0  0.73263  0.69543  0.16185  1.0000
  H   H3748     1.0  0.71995  0.64835  0.08993  1.0000
  H   H3749     1.0  0.88922  0.71796  0.07202  1.0000
  S   S935      1.0  0.66490  0.51861  0.22585  1.0000
  Fe  Fe470     1.0  0.79099  0.68515  0.06183  1.0000
  C   C2330     1.0  0.94317  0.73115  0.20036  1.0000
  Fe  Fe471     1.0  0.71881  0.57293  0.28070  1.0000
  S   S936      1.0  0.73371  0.54691  0.28614  1.0000
  S   S937      1.0  0.70984  0.58046  0.25660  1.0000
  H   H3750     1.0  0.77856  0.53195  0.17193  1.0000
  C   C2331     1.0  0.66619  0.63206  0.20465  1.0000
  H   H3751     1.0  0.93731  0.71539  0.08007  1.0000
  Fe  Fe472     1.0  0.82685  0.68461  0.06149  1.0000
  C   C2332     1.0  0.77114  0.54791  0.13300  1.0000
  S   S938      1.0  0.84307  0.68330  0.07906  1.0000
  S   S939      1.0  0.79782  0.67383  0.03962  1.0000
  Fe  Fe473     1.0  0.81865  0.65691  0.05107  1.0000
  S   S940      1.0  0.82647  0.62984  0.05021  1.0000
  S   S941      1.0  0.83677  0.67356  0.03871  1.0000
  H   H3752     1.0  0.76584  0.57419  0.14647  1.0000
  H   H3753     1.0  0.78992  0.62295  0.26783  1.0000
  Fe  Fe474     1.0  0.88551  0.70499  0.15262  1.0000
  S   S942      1.0  0.85234  0.71322  0.28460  1.0000
  S   S943      1.0  0.88018  0.68151  0.17060  1.0000
  C   C2333     1.0  0.74064  0.71856  0.07868  1.0000
  H   H3754     1.0  0.72412  0.59322  0.21984  1.0000
  H   H3755     1.0  0.79957  0.60520  0.28154  1.0000
  C   C2334     1.0  0.75495  0.58130  0.20291  1.0000
  S   S944      1.0  0.89598  0.70645  0.12542  1.0000
  C   C2335     1.0  0.84955  0.68645  0.21345  1.0000
  Fe  Fe475     1.0  0.73380  0.60002  0.15241  1.0000
  S   S945      1.0  0.71755  0.62404  0.14258  1.0000
  S   S946      1.0  0.72683  0.58565  0.17871  1.0000
  Fe  Fe476     1.0  0.76033  0.60167  0.12073  1.0000
  S   S947      1.0  0.74664  0.62595  0.10764  1.0000
  S   S948      1.0  0.78461  0.58591  0.11042  1.0000
  Fe  Fe477     1.0  0.74123  0.63326  0.13205  1.0000
  S   S949      1.0  0.74278  0.65830  0.13393  1.0000
  Fe  Fe478     1.0  0.72407  0.61495  0.11895  1.0000
  S   S950      1.0  0.70347  0.62067  0.10550  1.0000
  S   S951      1.0  0.75705  0.61006  0.14423  1.0000
  S   S952      1.0  0.73815  0.58988  0.12963  1.0000
  Fe  Fe479     1.0  0.79880  0.62061  0.21838  1.0000
  S   S953      1.0  0.77492  0.62873  0.23587  1.0000
  S   S954      1.0  0.81387  0.59439  0.22237  1.0000
  Fe  Fe480     1.0  0.79804  0.65525  0.19653  1.0000
  S   S955      1.0  0.77407  0.66645  0.21231  1.0000
  S   S956      1.0  0.80922  0.67126  0.17256  1.0000
  Fe  Fe481     1.0  0.78527  0.65071  0.23391  1.0000
  S   S957      1.0  0.78147  0.65923  0.25753  1.0000
  Fe  Fe482     1.0  0.76590  0.64353  0.21289  1.0000
  S   S958      1.0  0.74050  0.64345  0.21031  1.0000
  S   S959      1.0  0.81004  0.64152  0.21817  1.0000
  S   S960      1.0  0.78891  0.63343  0.19536  1.0000
  Fe  Fe483     1.0  0.83452  0.70429  0.27585  1.0000
  S   S961      1.0  0.84325  0.68362  0.26199  1.0000
  C   C2336     1.0  0.94218  0.72314  0.17572  1.0000
  H   H3756     1.0  0.82879  0.69766  0.19267  1.0000
  C   C2337     1.0  0.79875  0.66588  0.25864  1.0000
  C   C2338     1.0  0.81499  0.65812  0.25198  1.0000
  C   C2339     1.0  0.82869  0.66351  0.25313  1.0000
  C   C2340     1.0  0.82613  0.67677  0.26078  1.0000
  C   C2341     1.0  0.80990  0.68460  0.26733  1.0000
  C   C2342     1.0  0.79624  0.67900  0.26647  1.0000
  H   H3757     1.0  0.81704  0.64773  0.24628  1.0000
  H   H3758     1.0  0.84123  0.65739  0.24808  1.0000
  H   H3759     1.0  0.80776  0.69510  0.27290  1.0000
  H   H3760     1.0  0.78369  0.68508  0.27157  1.0000
  C   C2343     1.0  0.74066  0.65660  0.15518  1.0000
  C   C2344     1.0  0.72823  0.64909  0.16667  1.0000
  C   C2345     1.0  0.72764  0.64592  0.18374  1.0000
  C   C2346     1.0  0.73976  0.64986  0.18926  1.0000
  C   C2347     1.0  0.75181  0.65797  0.17781  1.0000
  C   C2348     1.0  0.75211  0.66155  0.16074  1.0000
  H   H3761     1.0  0.71915  0.64561  0.16241  1.0000
  H   H3762     1.0  0.71815  0.63995  0.19261  1.0000
  H   H3763     1.0  0.76105  0.66127  0.18208  1.0000
  H   H3764     1.0  0.76162  0.66749  0.15185  1.0000
  C   C2349     1.0  0.68547  0.62250  0.12121  1.0000
  C   C2350     1.0  0.84419  0.63081  0.98773  1.0000
  C   C2351     1.0  0.71896  0.70036  0.16538  1.0000
  C   C2352     1.0  0.78868  0.61033  0.27553  1.0000
  H   H3765     1.0  0.79291  0.73001  0.02069  1.0000
  C   C2353     1.0  0.67345  0.63737  0.12038  1.0000
  C   C2354     1.0  0.77195  0.62179  0.29915  1.0000
  Fe  Fe484     1.0  0.75157  0.55787  0.29224  1.0000
  H   H3766     1.0  0.67437  0.64715  0.10924  1.0000
  C   C2355     1.0  0.86143  0.67743  0.16975  1.0000
  C   C2356     1.0  0.85224  0.68769  0.15807  1.0000
  C   C2357     1.0  0.83628  0.68560  0.15887  1.0000
  C   C2358     1.0  0.82957  0.67310  0.17121  1.0000
  C   C2359     1.0  0.83908  0.66243  0.18243  1.0000
  C   C2360     1.0  0.85496  0.66462  0.18174  1.0000
  H   H3767     1.0  0.85726  0.69746  0.14862  1.0000
  H   H3768     1.0  0.82903  0.69392  0.15013  1.0000
  H   H3769     1.0  0.83429  0.65242  0.19158  1.0000
  H   H3770     1.0  0.86214  0.65652  0.19066  1.0000
  C   C2361     1.0  0.81485  0.61773  0.06705  1.0000
  C   C2362     1.0  0.80107  0.62534  0.07769  1.0000
  C   C2363     1.0  0.79198  0.61558  0.09122  1.0000
  C   C2364     1.0  0.79642  0.59818  0.09395  1.0000
  C   C2365     1.0  0.81023  0.59056  0.08333  1.0000
  C   C2366     1.0  0.81942  0.60033  0.06987  1.0000
  H   H3771     1.0  0.79728  0.63874  0.07545  1.0000
  H   H3772     1.0  0.78162  0.62156  0.09957  1.0000
  H   H3773     1.0  0.81373  0.57711  0.08541  1.0000
  H   H3774     1.0  0.83007  0.59439  0.06168  1.0000
  C   C2367     1.0  0.84785  0.69924  0.08524  1.0000
  C   C2368     1.0  0.84381  0.71606  0.07745  1.0000
  C   C2369     1.0  0.85054  0.71542  0.20831  1.0000
  C   C2370     1.0  0.97813  0.72577  0.12823  1.0000
  C   C2371     1.0  0.86064  0.70674  0.10364  1.0000
  C   C2372     1.0  0.85631  0.69467  0.09831  1.0000
  C   C2373     1.0  0.71918  0.72260  0.14080  1.0000
  H   H3775     1.0  0.70420  0.69387  0.07773  1.0000
  H   H3776     1.0  0.86699  0.70302  0.11383  1.0000
  S   S962      1.0  0.86564  0.72823  0.14926  1.0000
  C   C2374     1.0  0.66223  0.70948  0.19697  1.0000
  H   H3777     1.0  0.81963  0.65155  0.01743  1.0000
  H   H3778     1.0  0.69239  0.56744  0.15339  1.0000
  H   H3779     1.0  0.77534  0.59558  0.21057  1.0000
  H   H3780     1.0  0.75891  0.63094  0.27225  1.0000
  H   H3781     1.0  0.92486  0.71303  0.05031  1.0000
  H   H3782     1.0  0.74381  0.51223  0.30189  1.0000
  H   H3783     1.0  0.86235  0.71365  0.19871  1.0000
  H   H3784     1.0  0.71390  0.72886  0.12954  1.0000
  H   H3785     1.0  0.67814  0.62770  0.17347  1.0000
  C   C2375     1.0  0.78889  0.56003  0.26761  1.0000
  C   C2376     1.0  0.77985  0.53252  0.15850  1.0000
  C   C2377     1.0  0.81399  0.56714  0.24832  1.0000
  C   C2378     1.0  0.80431  0.58104  0.23964  1.0000
  C   C2379     1.0  0.78697  0.58420  0.24479  1.0000
  C   C2380     1.0  0.77931  0.57361  0.25860  1.0000
  H   H3786     1.0  0.66370  0.59977  0.21401  1.0000
  H   H3787     1.0  0.82744  0.56460  0.24430  1.0000
  H   H3788     1.0  0.77946  0.59464  0.23797  1.0000
  H   H3789     1.0  0.76597  0.57582  0.26211  1.0000
  S   S963      1.0  0.82080  0.72983  0.26571  1.0000
  C   C2381     1.0  0.67776  0.56087  0.24408  1.0000
  C   C2382     1.0  0.69004  0.56947  0.24315  1.0000
  C   C2383     1.0  0.69501  0.56915  0.25760  1.0000
  C   C2384     1.0  0.68794  0.55993  0.27287  1.0000
  C   C2385     1.0  0.67558  0.55155  0.27384  1.0000
  C   C2386     1.0  0.91966  0.72418  0.05592  1.0000
  H   H3790     1.0  0.69572  0.57627  0.23126  1.0000
  H   H3791     1.0  0.69175  0.55948  0.28405  1.0000
  H   H3792     1.0  0.90455  0.69868  0.07233  1.0000
  H   H3793     1.0  0.86135  0.68400  0.20402  1.0000
  C   C2387     1.0  0.69018  0.55546  0.17932  1.0000
  C   C2388     1.0  0.69474  0.55442  0.19416  1.0000
  C   C2389     1.0  0.70593  0.56382  0.19419  1.0000
  C   C2390     1.0  0.71207  0.57454  0.17949  1.0000
  C   C2391     1.0  0.70671  0.57617  0.16504  1.0000
  C   C2392     1.0  0.69607  0.56644  0.16482  1.0000
  H   H3794     1.0  0.69009  0.54598  0.20544  1.0000
  H   H3795     1.0  0.70994  0.56260  0.20549  1.0000
  H   H3796     1.0  0.71086  0.58488  0.15395  1.0000
  H   H3797     1.0  0.82730  0.66405  0.29630  1.0000
  N   N232      1.0  0.77274  0.61099  0.28800  1.0000
  C   C2393     1.0  0.75138  0.54779  0.15940  1.0000
  H   H3798     1.0  0.78157  0.71191  0.07969  1.0000
  H   H3799     1.0  0.78424  0.54815  0.12608  1.0000
  S   S964      1.0  0.65908  0.67706  0.20800  1.0000
  C   C2394     1.0  0.75730  0.71026  0.07822  1.0000
  H   H3800     1.0  0.75973  0.49807  0.29107  1.0000
  H   H3801     1.0  0.78685  0.56302  0.14576  1.0000
  H   H3802     1.0  0.72969  0.60948  0.22531  1.0000
  H   H3803     1.0  0.71444  0.65350  0.11832  1.0000
  C   C2395     1.0  0.66069  0.63996  0.13434  1.0000
  C   C2396     1.0  0.82466  0.70646  0.22201  1.0000
  H   H3804     1.0  0.79323  0.53210  0.15230  1.0000
  H   H3805     1.0  0.74739  0.53670  0.15865  1.0000
  H   H3806     1.0  0.75924  0.61021  0.22089  1.0000
  H   H3807     1.0  0.75454  0.58942  0.19031  1.0000
  C   C2397     1.0  0.68520  0.68993  0.20783  1.0000
  C   C2398     1.0  0.80151  0.68517  0.99369  1.0000
  S   S965      1.0  0.67458  0.70085  0.12871  1.0000
  C   C2399     1.0  0.79798  0.67766  0.98277  1.0000
  S   S966      1.0  0.90401  0.71744  0.15582  1.0000
  H   H3808     1.0  0.82825  0.71952  0.18941  1.0000
  H   H3809     1.0  0.92971  0.73122  0.05297  1.0000
  H   H3810     1.0  0.72867  0.69175  0.13555  1.0000
  C   C2400     1.0  0.85698  0.72351  0.09563  1.0000
  H   H3811     1.0  0.94120  0.71028  0.18282  1.0000
  H   H3812     1.0  0.73201  0.60965  0.20377  1.0000
  H   H3813     1.0  0.93275  0.69719  0.07702  1.0000
  N   N233      1.0  0.84015  0.70378  0.20915  1.0000
  H   H3814     1.0  0.76136  0.61154  0.19924  1.0000
  C   C2401     1.0  0.67137  0.61236  0.14952  1.0000
  H   H3815     1.0  0.75904  0.61037  0.27061  1.0000
  H   H3816     1.0  0.85292  0.68375  0.22574  1.0000
  S   S967      1.0  0.81644  0.70114  0.30040  1.0000
  H   H3817     1.0  0.89512  0.70621  0.09106  1.0000
  H   H3818     1.0  0.70055  0.60065  0.20611  1.0000
  H   H3819     1.0  0.75963  0.59400  0.30728  1.0000
  N   N234      1.0  0.84044  0.64199  0.99935  1.0000
  C   C2402     1.0  0.82908  0.65630  0.30875  1.0000
  C   C2403     1.0  0.71119  0.48428  0.29984  1.0000
  H   H3820     1.0  0.76781  0.53687  0.13130  1.0000
  H   H3821     1.0  0.69632  0.61202  0.17725  1.0000
  Fe  Fe485     1.0  0.91262  0.72139  0.12813  1.0000
  H   H3822     1.0  0.69608  0.72276  0.10859  1.0000
  H   H3823     1.0  0.74922  0.54794  0.17280  1.0000
  N   N235      1.0  0.67858  0.61759  0.19933  1.0000
  H   H3824     1.0  0.97444  0.70764  0.11704  1.0000
  C   C2404     1.0  0.69343  0.71408  0.15583  1.0000
  C   C2405     1.0  0.76881  0.71844  0.07958  1.0000
  C   C2406     1.0  0.82302  0.64289  0.00884  1.0000
  H   H3825     1.0  0.66375  0.51123  0.28875  1.0000
  C   C2407     1.0  0.68426  0.60991  0.13564  1.0000
  H   H3826     1.0  0.77289  0.63469  0.29202  1.0000
  H   H3827     1.0  0.95670  0.73122  0.19580  1.0000
  C   C2408     1.0  0.68714  0.62270  0.18181  1.0000
  H   H3828     1.0  0.71133  0.52546  0.29343  1.0000
  H   H3829     1.0  0.87013  0.63879  0.29716  1.0000
  Fe  Fe486     1.0  0.87758  0.73083  0.12203  1.0000
  H   H3830     1.0  0.69322  0.66345  0.11718  1.0000
  C   C2409     1.0  0.71126  0.51274  0.30006  1.0000
  C   C2410     1.0  0.75866  0.61793  0.27946  1.0000
  H   H3831     1.0  0.77670  0.52104  0.15756  1.0000
  C   C2411     1.0  0.92718  0.70869  0.08198  1.0000
  C   C2412     1.0  0.90003  0.71013  0.07746  1.0000
  S   S968      1.0  0.77913  0.54747  0.28551  1.0000
  C   C2413     1.0  0.71168  0.50080  0.29143  1.0000
  C   C2414     1.0  0.66960  0.69320  0.20388  1.0000
  H   H3832     1.0  0.81691  0.71920  0.21888  1.0000
  H   H3833     1.0  0.69754  0.62137  0.20920  1.0000
  H   H3834     1.0  0.78970  0.60231  0.26687  1.0000
  C   C2415     1.0  0.67034  0.72252  0.19416  1.0000
  H   H3835     1.0  0.83733  0.71971  0.06736  1.0000
  N   N236      1.0  0.76899  0.54770  0.15080  1.0000
  C   C2416     1.0  0.77368  0.56256  0.15228  1.0000
  H   H3836     1.0  0.77231  0.58547  0.28980  1.0000
  C   C2417     1.0  0.76217  0.60261  0.21139  1.0000
  H   H3837     1.0  0.78224  0.61690  0.30600  1.0000
  C   C2418     1.0  0.68620  0.71919  0.19753  1.0000
  H   H3838     1.0  0.84216  0.67729  0.21407  1.0000
  H   H3839     1.0  0.72982  0.68356  0.10011  1.0000
  H   H3840     1.0  0.67389  0.56120  0.23296  1.0000
  H   H3841     1.0  0.76775  0.57342  0.20244  1.0000
  C   C2419     1.0  0.84850  0.72814  0.08256  1.0000
  H   H3842     1.0  0.82105  0.63051  0.01668  1.0000
  S   S969      1.0  0.80679  0.70430  0.05039  1.0000
  C   C2420     1.0  0.73329  0.60138  0.21611  1.0000
  H   H3843     1.0  0.67908  0.59311  0.19675  1.0000
  H   H3844     1.0  0.81406  0.64731  0.00047  1.0000
  N   N237      1.0  0.91338  0.71937  0.07408  1.0000
  S   S970      1.0  0.66430  0.66782  0.16566  1.0000
  H   H3845     1.0  0.71234  0.50442  0.27815  1.0000
  H   H3846     1.0  0.81380  0.54615  0.26929  1.0000
  S   S971      1.0  0.76391  0.69025  0.07430  1.0000
  C   C2421     1.0  0.75140  0.58022  0.23211  1.0000
  S   S972      1.0  0.81014  0.66651  0.07441  1.0000
  H   H3847     1.0  0.68737  0.68728  0.09419  1.0000
  Fe  Fe487     1.0  0.81514  0.69143  0.02875  1.0000
  H   H3848     1.0  0.69873  0.65813  0.08905  1.0000
  H   H3849     1.0  0.73171  0.71222  0.07768  1.0000
  S   S973      1.0  0.81770  0.70494  0.00155  1.0000
  H   H3850     1.0  0.76424  0.57267  0.23238  1.0000
  H   H3851     1.0  0.77215  0.56296  0.16550  1.0000
  H   H3852     1.0  0.69397  0.63262  0.18024  1.0000
  C   C2422     1.0  0.96865  0.71869  0.12205  1.0000
  H   H3853     1.0  0.74280  0.55900  0.15386  1.0000
  C   C2423     1.0  0.80628  0.55671  0.26242  1.0000
  H   H3854     1.0  0.85539  0.64948  0.28421  1.0000
  S   S974      1.0  0.67736  0.54308  0.17838  1.0000
  H   H3855     1.0  0.85952  0.68168  0.10438  1.0000
  H   H3856     1.0  0.67575  0.50983  0.25948  1.0000
  H   H3857     1.0  0.93590  0.72597  0.16514  1.0000
  H   H3858     1.0  0.76321  0.55923  0.12672  1.0000
  H   H3859     1.0  0.70620  0.67412  0.12188  1.0000
  N   N238      1.0  0.84684  0.65185  0.30969  1.0000
  H   H3860     1.0  0.67087  0.60278  0.16083  1.0000
  C   C2424     1.0  0.66556  0.49737  0.29204  1.0000
  S   S975      1.0  0.73803  0.58415  0.28440  1.0000
  C   C2425     1.0  0.78266  0.49439  0.30883  1.0000
  H   H3861     1.0  0.74756  0.58744  0.24206  1.0000
  H   H3862     1.0  0.69352  0.59841  0.13609  1.0000
  H   H3863     1.0  0.73293  0.71866  0.13657  1.0000
  H   H3864     1.0  0.70929  0.70130  0.12916  1.0000
  N   N239      1.0  0.75046  0.59137  0.21563  1.0000
  H   H3865     1.0  0.85399  0.71349  0.22046  1.0000
  H   H3866     1.0  0.74288  0.57141  0.23555  1.0000
  H   H3867     1.0  0.70993  0.68475  0.14733  1.0000
  H   H3868     1.0  0.74611  0.57295  0.20554  1.0000
  H   H3869     1.0  0.79567  0.68251  0.00670  1.0000
  N   N240      1.0  0.80978  0.66562  0.12529  1.0000
  C   C2426     1.0  0.79861  0.67745  0.11476  1.0000
  C   C2427     1.0  0.82057  0.67464  0.12868  1.0000
  C   C2428     1.0  0.82028  0.65241  0.11652  1.0000
  C   C2429     1.0  0.79970  0.65804  0.14118  1.0000
  H   H3870     1.0  0.79039  0.67107  0.11174  1.0000
  H   H3871     1.0  0.80591  0.68354  0.10277  1.0000
  H   H3872     1.0  0.79043  0.68749  0.12107  1.0000
  H   H3873     1.0  0.82913  0.66616  0.13668  1.0000
  H   H3874     1.0  0.82837  0.68050  0.11696  1.0000
  H   H3875     1.0  0.81306  0.68469  0.13530  1.0000
  H   H3876     1.0  0.81255  0.64547  0.11354  1.0000
  H   H3877     1.0  0.82881  0.64325  0.12416  1.0000
  H   H3878     1.0  0.82820  0.65771  0.10456  1.0000
  H   H3879     1.0  0.80777  0.64915  0.14948  1.0000
  H   H3880     1.0  0.79131  0.65118  0.13914  1.0000
  H   H3881     1.0  0.79180  0.66767  0.14821  1.0000
  N   N241      1.0  0.71177  0.67236  0.09628  1.0000
  C   C2430     1.0  0.70613  0.66556  0.11421  1.0000
  C   C2431     1.0  0.71144  0.66060  0.08661  1.0000
  C   C2432     1.0  0.72897  0.67477  0.09304  1.0000
  C   C2433     1.0  0.70059  0.68852  0.09127  1.0000
  C   C2434     1.0  0.83590  0.70678  0.19281  1.0000
  H   H3882     1.0  0.71545  0.66539  0.07301  1.0000
  C   C2435     1.0  0.81238  0.69614  0.98774  1.0000
  H   H3883     1.0  0.67791  0.49228  0.29549  1.0000
  H   H3884     1.0  0.76821  0.72413  0.04302  1.0000
  H   H3885     1.0  0.91476  0.72299  0.20057  1.0000
  H   H3886     1.0  0.66130  0.57760  0.14616  1.0000
  H   H3887     1.0  0.67745  0.49124  0.25257  1.0000
  H   H3888     1.0  0.74642  0.61824  0.28851  1.0000
  C   C2436     1.0  0.67034  0.72054  0.11538  1.0000
  C   C2437     1.0  0.85310  0.66720  0.30654  1.0000
  S   S976      1.0  0.93973  0.71642  0.11540  1.0000
  H   H3889     1.0  0.78881  0.50479  0.30102  1.0000
  H   H3890     1.0  0.78960  0.66910  0.98760  1.0000
  N   N242      1.0  0.71165  0.70825  0.15056  1.0000
  H   H3891     1.0  0.73371  0.67974  0.07960  1.0000
  H   H3892     1.0  0.82746  0.70501  0.23435  1.0000
  H   H3893     1.0  0.69093  0.67735  0.21325  1.0000
  H   H3894     1.0  0.69033  0.49122  0.26604  1.0000
  C   C2438     1.0  0.69363  0.70289  0.20439  1.0000
  N   N243      1.0  0.66469  0.49091  0.27802  1.0000
  C   C2439     1.0  0.71503  0.69597  0.14019  1.0000
  H   H3895     1.0  0.68736  0.70371  0.16381  1.0000
  H   H3896     1.0  0.70100  0.69773  0.09803  1.0000
  H   H3897     1.0  0.66055  0.60834  0.19312  1.0000
  H   H3898     1.0  0.81690  0.69733  0.22351  1.0000
  H   H3899     1.0  0.70587  0.70027  0.20711  1.0000
  Fe  Fe488     1.0  0.80440  0.72756  0.29124  1.0000
  H   H3900     1.0  0.73781  0.66290  0.09682  1.0000
  C   C2440     1.0  0.95162  0.72562  0.12272  1.0000
  C   C2441     1.0  0.65976  0.62754  0.14895  1.0000
  H   H3901     1.0  0.92285  0.70472  0.09568  1.0000
  H   H3902     1.0  0.67220  0.64251  0.20347  1.0000
  H   H3903     1.0  0.85028  0.62289  0.01867  1.0000
  H   H3904     1.0  0.66995  0.54473  0.28579  1.0000
  C   C2442     1.0  0.68363  0.72839  0.10656  1.0000
  H   H3905     1.0  0.84258  0.61802  0.99454  1.0000
  H   H3906     1.0  0.71327  0.68972  0.17329  1.0000
  H   H3907     1.0  0.84936  0.64368  0.01987  1.0000
  H   H3908     1.0  0.71704  0.70939  0.17328  1.0000
  H   H3909     1.0  0.68500  0.60742  0.22329  1.0000
  C   C2443     1.0  0.67762  0.49601  0.26335  1.0000
  C   C2444     1.0  0.77161  0.59399  0.29786  1.0000
  S   S977      1.0  0.70373  0.57231  0.30691  1.0000
  H   H3910     1.0  0.84735  0.70563  0.18276  1.0000
  Fe  Fe489     1.0  0.83291  0.71217  0.30852  1.0000
  C   C2445     1.0  0.67035  0.55209  0.25952  1.0000
  H   H3911     1.0  0.78578  0.48464  0.30146  1.0000
  H   H3912     1.0  0.86514  0.63439  0.00431  1.0000
  H   H3913     1.0  0.68740  0.71948  0.14497  1.0000
  H   H3914     1.0  0.78191  0.58843  0.30466  1.0000
  C   C2446     1.0  0.85186  0.63544  0.01099  1.0000
  H   H3915     1.0  0.83934  0.66775  0.99817  1.0000
  H   H3916     1.0  0.76315  0.51811  0.29051  1.0000
  H   H3917     1.0  0.94203  0.71858  0.20819  1.0000
  Fe  Fe490     1.0  0.65970  0.53692  0.20264  1.0000
  H   H3918     1.0  0.95565  0.72312  0.17024  1.0000
  H   H3919     1.0  0.75996  0.62269  0.30855  1.0000
  H   H3920     1.0  0.84391  0.72864  0.20499  1.0000
  H   H3921     1.0  0.83457  0.66391  0.98058  1.0000
  H   H3922     1.0  0.69049  0.72393  0.16301  1.0000
  C   C2447     1.0  0.84264  0.65882  0.98983  1.0000
  H   H3923     1.0  0.86635  0.66436  0.30754  1.0000
  H   H3924     1.0  0.85230  0.67495  0.29388  1.0000
  C   C2448     1.0  0.75751  0.50750  0.29861  1.0000
  H   H3925     1.0  0.65961  0.62878  0.21788  1.0000
  H   H3926     1.0  0.85574  0.65873  0.98288  1.0000
  H   H3927     1.0  0.85234  0.63044  0.29900  1.0000
  H   H3928     1.0  0.85723  0.62983  0.98031  1.0000
  H   H3929     1.0  0.75573  0.73014  0.02768  1.0000
  H   H3930     1.0  0.83573  0.63546  0.97878  1.0000
  H   H3931     1.0  0.71686  0.73206  0.14837  1.0000
  C   C2449     1.0  0.85662  0.64218  0.29697  1.0000
  H   H3932     1.0  0.90150  0.73133  0.09454  1.0000
  H   H3933     1.0  0.90951  0.73225  0.04964  1.0000
  H   H3934     1.0  0.79964  0.57290  0.62856  1.0000
  Fe  Fe491     1.0  0.76228  0.52819  0.62151  1.0000
  S   S978      1.0  0.78767  0.51378  0.62532  1.0000
  S   S979      1.0  0.75786  0.54375  0.59658  1.0000
  H   H3935     1.0  0.77571  0.70026  0.37057  1.0000
  N   N244      1.0  0.72045  0.68442  0.44958  1.0000
  H   H3936     1.0  0.82328  0.58360  0.62937  1.0000
  S   S980      1.0  0.72359  0.60405  0.32090  1.0000
  H   H3937     1.0  0.74320  0.69222  0.43563  1.0000
  Fe  Fe492     1.0  0.78350  0.64561  0.51908  1.0000
  S   S981      1.0  0.76595  0.63131  0.53868  1.0000
  S   S982      1.0  0.79333  0.64068  0.49300  1.0000
  Fe  Fe493     1.0  0.78660  0.66499  0.54324  1.0000
  S   S983      1.0  0.76928  0.65215  0.56450  1.0000
  S   S984      1.0  0.79500  0.68661  0.54658  1.0000
  Fe  Fe494     1.0  0.78303  0.62880  0.55545  1.0000
  S   S985      1.0  0.79272  0.60555  0.57341  1.0000
  Fe  Fe495     1.0  0.75397  0.65589  0.54579  1.0000
  S   S986      1.0  0.72633  0.66506  0.55270  1.0000
  S   S987      1.0  0.80171  0.64137  0.53538  1.0000
  S   S988      1.0  0.77019  0.67054  0.52499  1.0000
  Fe  Fe496     1.0  0.84903  0.69423  0.59964  1.0000
  S   S989      1.0  0.82472  0.71251  0.60182  1.0000
  S   S990      1.0  0.85098  0.67325  0.58752  1.0000
  H   H3938     1.0  0.76364  0.69675  0.58930  1.0000
  H   H3939     1.0  0.67682  0.64362  0.39840  1.0000
  S   S991      1.0  0.84869  0.68778  0.62696  1.0000
  C   C2450     1.0  0.77005  0.70296  0.34073  1.0000
  H   H3940     1.0  0.74025  0.69560  0.54143  1.0000
  H   H3941     1.0  0.77392  0.70316  0.62649  1.0000
  H   H3942     1.0  0.71689  0.67613  0.47620  1.0000
  Fe  Fe497     1.0  0.75754  0.63691  0.41902  1.0000
  S   S992      1.0  0.76836  0.65811  0.40146  1.0000
  S   S993      1.0  0.74805  0.63649  0.44674  1.0000
  Fe  Fe498     1.0  0.75747  0.62159  0.39014  1.0000
  S   S994      1.0  0.76838  0.64156  0.37058  1.0000
  S   S995      1.0  0.75072  0.60018  0.38430  1.0000
  Fe  Fe499     1.0  0.78515  0.63872  0.38770  1.0000
  S   S996      1.0  0.81272  0.63752  0.37871  1.0000
  Fe  Fe500     1.0  0.75060  0.65895  0.38611  1.0000
  S   S997      1.0  0.73730  0.68343  0.37307  1.0000
  S   S998      1.0  0.77573  0.61720  0.40642  1.0000
  S   S999      1.0  0.73829  0.63926  0.40449  1.0000
  H   H3943     1.0  0.78835  0.48899  0.31991  1.0000
  H   H3944     1.0  0.76784  0.72387  0.61445  1.0000
  H   H3945     1.0  0.77422  0.61434  0.63586  1.0000
  H   H3946     1.0  0.80936  0.59561  0.60515  1.0000
  S   S1000     1.0  0.75645  0.54099  0.64269  1.0000
  S   S1001     1.0  0.83928  0.70122  0.33359  1.0000
  Fe  Fe501     1.0  0.83977  0.73125  0.59883  1.0000
  H   H3947     1.0  0.74283  0.49076  0.32813  1.0000
  N   N245      1.0  0.77907  0.70509  0.60000  1.0000
  H   H3948     1.0  0.81784  0.67883  0.62546  1.0000
  S   S1002     1.0  0.86447  0.71352  0.59405  1.0000
  C   C2451     1.0  0.71588  0.68913  0.38127  1.0000
  C   C2452     1.0  0.70635  0.70294  0.37239  1.0000
  H   H3949     1.0  0.71227  0.71021  0.36089  1.0000
  C   C2453     1.0  0.81890  0.65599  0.36681  1.0000
  C   C2454     1.0  0.81027  0.66683  0.35488  1.0000
  C   C2455     1.0  0.81648  0.68070  0.34445  1.0000
  C   C2456     1.0  0.83098  0.68406  0.34634  1.0000
  C   C2457     1.0  0.83935  0.67335  0.35847  1.0000
  C   C2458     1.0  0.83350  0.65922  0.36846  1.0000
  H   H3950     1.0  0.79914  0.66415  0.35340  1.0000
  H   H3951     1.0  0.70389  0.68038  0.43682  1.0000
  H   H3952     1.0  0.85057  0.67582  0.35999  1.0000
  H   H3953     1.0  0.84028  0.65081  0.37758  1.0000
  C   C2459     1.0  0.73263  0.60240  0.33775  1.0000
  C   C2460     1.0  0.73627  0.61667  0.33992  1.0000
  C   C2461     1.0  0.74282  0.61594  0.35360  1.0000
  C   C2462     1.0  0.74508  0.60110  0.36561  1.0000
  C   C2463     1.0  0.74165  0.58682  0.36329  1.0000
  C   C2464     1.0  0.73565  0.58740  0.34933  1.0000
  H   H3954     1.0  0.73392  0.62834  0.33104  1.0000
  H   H3955     1.0  0.74560  0.62694  0.35518  1.0000
  H   H3956     1.0  0.74337  0.57529  0.37252  1.0000
  H   H3957     1.0  0.73280  0.57636  0.34787  1.0000
  H   H3958     1.0  0.71548  0.66958  0.40340  1.0000
  H   H3959     1.0  0.82208  0.64827  0.62996  1.0000
  H   H3960     1.0  0.75309  0.71382  0.59942  1.0000
  H   H3961     1.0  0.84372  0.63023  0.32946  1.0000
  H   H3962     1.0  0.77524  0.72930  0.58365  1.0000
  N   N246      1.0  0.76443  0.50037  0.31372  1.0000
  C   C2465     1.0  0.78658  0.61061  0.63935  1.0000
  C   C2466     1.0  0.71760  0.67610  0.53551  1.0000
  C   C2467     1.0  0.72723  0.67695  0.51928  1.0000
  C   C2468     1.0  0.72064  0.68752  0.50580  1.0000
  C   C2469     1.0  0.70440  0.69717  0.50856  1.0000
  H   H3963     1.0  0.74632  0.72446  0.49991  1.0000
  C   C2470     1.0  0.70108  0.68507  0.53813  1.0000
  H   H3964     1.0  0.73982  0.66966  0.51714  1.0000
  H   H3965     1.0  0.72834  0.68867  0.49335  1.0000
  H   H3966     1.0  0.68122  0.65685  0.36084  1.0000
  C   C2471     1.0  0.78040  0.64003  0.48024  1.0000
  C   C2472     1.0  0.76337  0.64028  0.48637  1.0000
  C   C2473     1.0  0.75368  0.63896  0.47603  1.0000
  C   C2474     1.0  0.76083  0.63767  0.45942  1.0000
  C   C2475     1.0  0.77779  0.63765  0.45324  1.0000
  C   C2476     1.0  0.78754  0.63868  0.46366  1.0000
  H   H3967     1.0  0.75769  0.64131  0.49910  1.0000
  H   H3968     1.0  0.74060  0.63886  0.48100  1.0000
  H   H3969     1.0  0.78346  0.63669  0.44048  1.0000
  H   H3970     1.0  0.80071  0.63847  0.45880  1.0000
  C   C2477     1.0  0.81127  0.68241  0.55718  1.0000
  C   C2478     1.0  0.81706  0.69577  0.55848  1.0000
  C   C2479     1.0  0.82916  0.69305  0.56779  1.0000
  C   C2480     1.0  0.83584  0.67686  0.57565  1.0000
  C   C2481     1.0  0.83033  0.66343  0.57406  1.0000
  C   C2482     1.0  0.81798  0.66619  0.56496  1.0000
  H   H3971     1.0  0.81219  0.70832  0.55223  1.0000
  H   H3972     1.0  0.83361  0.70345  0.56856  1.0000
  H   H3973     1.0  0.83553  0.65086  0.58000  1.0000
  H   H3974     1.0  0.81365  0.65578  0.56398  1.0000
  H   H3975     1.0  0.69457  0.64965  0.40052  1.0000
  C   C2483     1.0  0.76733  0.56107  0.59019  1.0000
  C   C2484     1.0  0.76258  0.57441  0.57737  1.0000
  C   C2485     1.0  0.77005  0.58830  0.57228  1.0000
  C   C2486     1.0  0.78259  0.58870  0.57973  1.0000
  C   C2487     1.0  0.78746  0.57526  0.59238  1.0000
  C   C2488     1.0  0.77972  0.56159  0.59774  1.0000
  H   H3976     1.0  0.75289  0.57411  0.57160  1.0000
  H   H3977     1.0  0.76605  0.59867  0.56268  1.0000
  H   H3978     1.0  0.79728  0.57536  0.59804  1.0000
  H   H3979     1.0  0.78352  0.55134  0.60757  1.0000
  H   H3980     1.0  0.71430  0.62400  0.39126  1.0000
  N   N247      1.0  0.79814  0.59792  0.63046  1.0000
  H   H3981     1.0  0.69476  0.63826  0.35490  1.0000
  C   C2489     1.0  0.70976  0.49178  0.32568  1.0000
  S   S1003     1.0  0.88260  0.70702  0.63395  1.0000
  H   H3982     1.0  0.67707  0.63671  0.37197  1.0000
  H   H3983     1.0  0.72141  0.65980  0.46508  1.0000
  H   H3984     1.0  0.73666  0.71122  0.55305  1.0000
  H   H3985     1.0  0.76651  0.52416  0.31592  1.0000
  C   C2490     1.0  0.69447  0.69556  0.52466  1.0000
  H   H3986     1.0  0.78533  0.71239  0.57330  1.0000
  H   H3987     1.0  0.69747  0.70270  0.45298  1.0000
  C   C2491     1.0  0.77744  0.71203  0.61454  1.0000
  H   H3988     1.0  0.68173  0.70256  0.52678  1.0000
  H   H3989     1.0  0.75384  0.70828  0.37147  1.0000
  C   C2492     1.0  0.76631  0.71152  0.36641  1.0000
  H   H3990     1.0  0.76657  0.72152  0.37229  1.0000
  C   C2493     1.0  0.81240  0.67181  0.63736  1.0000
  H   H3991     1.0  0.68181  0.71781  0.37110  1.0000
  H   H3992     1.0  0.68120  0.66357  0.38723  1.0000
  C   C2494     1.0  0.84858  0.64179  0.32646  1.0000
  C   C2495     1.0  0.68708  0.65023  0.39150  1.0000
  S   S1004     1.0  0.73922  0.55569  0.31917  1.0000
  H   H3993     1.0  0.84579  0.67502  0.31562  1.0000
  H   H3994     1.0  0.79277  0.68340  0.59026  1.0000
  H   H3995     1.0  0.80420  0.69109  0.60008  1.0000
  H   H3996     1.0  0.74133  0.68644  0.45785  1.0000
  H   H3997     1.0  0.78873  0.60827  0.60802  1.0000
  C   C2496     1.0  0.79161  0.68921  0.60079  1.0000
  H   H3998     1.0  0.68478  0.67698  0.41344  1.0000
  H   H3999     1.0  0.71876  0.64726  0.35752  1.0000
  H   H4000     1.0  0.80596  0.61617  0.60862  1.0000
  S   S1005     1.0  0.65944  0.70223  0.39919  1.0000
  H   H4001     1.0  0.82909  0.48645  0.63870  1.0000
  H   H4002     1.0  0.78937  0.71483  0.61469  1.0000
  H   H4003     1.0  0.77945  0.69172  0.34477  1.0000
  S   S1006     1.0  0.69713  0.71234  0.49220  1.0000
  C   C2497     1.0  0.70816  0.67994  0.39624  1.0000
  H   H4004     1.0  0.74590  0.70328  0.51057  1.0000
  H   H4005     1.0  0.75841  0.69308  0.61166  1.0000
  H   H4006     1.0  0.69351  0.68422  0.55064  1.0000
  H   H4007     1.0  0.69555  0.61807  0.39153  1.0000
  H   H4008     1.0  0.81003  0.68880  0.33505  1.0000
  C   C2498     1.0  0.70514  0.62519  0.38366  1.0000
  H   H4009     1.0  0.79667  0.71959  0.58380  1.0000
  Fe  Fe502     1.0  0.86143  0.70899  0.62184  1.0000
  C   C2499     1.0  0.76089  0.51333  0.32337  1.0000
  C   C2500     1.0  0.72150  0.72372  0.52716  1.0000
  H   H4010     1.0  0.70114  0.67340  0.46759  1.0000
  C   C2501     1.0  0.81431  0.59341  0.63553  1.0000
  C   C2502     1.0  0.79102  0.58294  0.63467  1.0000
  C   C2503     1.0  0.71120  0.70165  0.45036  1.0000
  C   C2504     1.0  0.68719  0.64371  0.36576  1.0000
  C   C2505     1.0  0.78431  0.71710  0.58452  1.0000
  C   C2506     1.0  0.71087  0.65220  0.36854  1.0000
  C   C2507     1.0  0.76280  0.70204  0.60012  1.0000
  H   H4011     1.0  0.71378  0.70583  0.46045  1.0000
  C   C2508     1.0  0.81472  0.65450  0.63987  1.0000
  S   S1007     1.0  0.71224  0.52254  0.32789  1.0000
  H   H4012     1.0  0.71926  0.65147  0.37675  1.0000
  N   N248      1.0  0.69758  0.64283  0.37737  1.0000
  C   C2509     1.0  0.68907  0.70724  0.37816  1.0000
  H   H4013     1.0  0.71188  0.61877  0.37331  1.0000
  C   C2510     1.0  0.71473  0.67293  0.46530  1.0000
  H   H4014     1.0  0.84152  0.64888  0.33627  1.0000
  H   H4015     1.0  0.78837  0.68004  0.61258  1.0000
  C   C2511     1.0  0.69081  0.68419  0.40196  1.0000
  C   C2512     1.0  0.75657  0.48639  0.32402  1.0000
  H   H4016     1.0  0.85357  0.65006  0.63862  1.0000
  S   S1008     1.0  0.83748  0.72787  0.62617  1.0000
  C   C2513     1.0  0.68122  0.69768  0.39276  1.0000
  Fe  Fe503     1.0  0.82501  0.70716  0.62870  1.0000
  N   N249      1.0  0.79620  0.59079  0.51906  1.0000
  C   C2514     1.0  0.80215  0.60028  0.52748  1.0000
  C   C2515     1.0  0.77860  0.59836  0.51814  1.0000
  C   C2516     1.0  0.79749  0.57337  0.52861  1.0000
  C   C2517     1.0  0.80651  0.59123  0.50202  1.0000
  H   H4017     1.0  0.81534  0.59486  0.52854  1.0000
  H   H4018     1.0  0.79457  0.60042  0.54031  1.0000
  H   H4019     1.0  0.80152  0.61345  0.52052  1.0000
  H   H4020     1.0  0.77380  0.59174  0.51154  1.0000
  H   H4021     1.0  0.77037  0.59807  0.53076  1.0000
  H   H4022     1.0  0.77715  0.61162  0.51125  1.0000
  H   H4023     1.0  0.79297  0.56583  0.52273  1.0000
  H   H4024     1.0  0.78991  0.57274  0.54158  1.0000
  H   H4025     1.0  0.81061  0.56725  0.52952  1.0000
  H   H4026     1.0  0.81991  0.58580  0.50216  1.0000
  H   H4027     1.0  0.80564  0.60429  0.49455  1.0000
  C   C2518     1.0  0.78592  0.72191  0.34199  1.0000
  H   H4028     1.0  0.71469  0.71061  0.43849  1.0000
  H   H4029     1.0  0.74590  0.67074  0.44611  1.0000
  H   H4030     1.0  0.75778  0.69929  0.34455  1.0000
  C   C2519     1.0  0.71070  0.50822  0.31715  1.0000
  H   H4031     1.0  0.79601  0.71211  0.34698  1.0000
  H   H4032     1.0  0.74722  0.51813  0.32725  1.0000
  C   C2520     1.0  0.71740  0.67964  0.43551  1.0000
  H   H4033     1.0  0.80239  0.58422  0.49523  1.0000
  H   H4034     1.0  0.72178  0.68788  0.42339  1.0000
  Fe  Fe504     1.0  0.71997  0.54657  0.31251  1.0000
  H   H4035     1.0  0.72409  0.66661  0.43471  1.0000
  C   C2521     1.0  0.73850  0.68346  0.44718  1.0000
  H   H4036     1.0  0.76276  0.71213  0.51040  1.0000
  N   N250      1.0  0.73953  0.72051  0.52660  1.0000
  C   C2522     1.0  0.74907  0.71487  0.51117  1.0000
  H   H4037     1.0  0.86183  0.63810  0.32763  1.0000
  S   S1009     1.0  0.74959  0.50707  0.63625  1.0000
  H   H4038     1.0  0.77310  0.70642  0.32686  1.0000
  H   H4039     1.0  0.70559  0.66567  0.36412  1.0000
  H   H4040     1.0  0.77905  0.58577  0.63057  1.0000
  N   N251      1.0  0.76965  0.71688  0.34806  1.0000
  C   C2523     1.0  0.80067  0.60480  0.61231  1.0000
  H   H4041     1.0  0.70911  0.48823  0.33896  1.0000
  H   H4042     1.0  0.78970  0.72429  0.32817  1.0000
  H   H4043     1.0  0.82130  0.66351  0.31824  1.0000
  H   H4044     1.0  0.71770  0.71225  0.52729  1.0000
  Fe  Fe505     1.0  0.72449  0.58145  0.31116  1.0000
  C   C2524     1.0  0.74361  0.70741  0.54118  1.0000
  H   H4045     1.0  0.75720  0.70446  0.54104  1.0000
  H   H4046     1.0  0.82013  0.60441  0.63229  1.0000
  H   H4047     1.0  0.76593  0.50845  0.33487  1.0000
  Fe  Fe506     1.0  0.77448  0.49379  0.64216  1.0000
  C   C2525     1.0  0.90019  0.72658  0.63989  1.0000
  C   C2526     1.0  0.75627  0.73113  0.34311  1.0000
  H   H4048     1.0  0.90994  0.71545  0.64128  1.0000
  H   H4049     1.0  0.79166  0.62204  0.63649  1.0000
  C   C2527     1.0  0.88524  0.72586  0.63651  1.0000
  H   H4050     1.0  0.89955  0.72637  0.58551  1.0000
  H   H4051     1.0  0.71387  0.72831  0.53847  1.0000
  H   H4052     1.0  0.74383  0.72773  0.34762  1.0000
  H   H4053     1.0  0.86837  0.63084  0.64318  1.0000
  H   H4054     1.0  0.82399  0.64501  0.31092  1.0000
  C   C2528     1.0  0.97232  0.67211  0.80541  1.0000
  H   H4055     1.0  0.81950  0.55660  0.65668  1.0000
  S   S1010     1.0  0.77028  0.50422  0.66471  1.0000
  S   S1011     1.0  0.72312  0.51628  0.67806  1.0000
  H   H4056     1.0  0.89819  0.70538  0.74865  1.0000
  H   H4057     1.0  0.76909  0.69547  0.86672  1.0000
  C   C2529     1.0  0.80344  0.67990  0.65030  1.0000
  S   S1012     1.0  0.71070  0.56212  0.78490  1.0000
  H   H4058     1.0  0.81148  0.60469  0.77022  1.0000
  S   S1013     1.0  0.69384  0.57557  0.71543  1.0000
  S   S1014     1.0  0.69904  0.54431  0.75522  1.0000
  Fe  Fe507     1.0  0.92045  0.64947  0.78477  1.0000
  S   S1015     1.0  0.91423  0.67711  0.77575  1.0000
  S   S1016     1.0  0.94185  0.63856  0.79837  1.0000
  Fe  Fe508     1.0  0.89105  0.64462  0.77276  1.0000
  S   S1017     1.0  0.88328  0.67213  0.76299  1.0000
  S   S1018     1.0  0.87299  0.62906  0.77292  1.0000
  Fe  Fe509     1.0  0.91064  0.67114  0.75328  1.0000
  S   S1019     1.0  0.92187  0.68417  0.72780  1.0000
  Fe  Fe510     1.0  0.88773  0.67491  0.78663  1.0000
  S   S1020     1.0  0.86968  0.69292  0.80145  1.0000
  S   S1021     1.0  0.91848  0.64337  0.76140  1.0000
  S   S1022     1.0  0.89384  0.64753  0.79728  1.0000
  Fe  Fe511     1.0  0.83509  0.67522  0.89252  1.0000
  S   S1023     1.0  0.82720  0.65382  0.91247  1.0000
  S   S1024     1.0  0.86217  0.67252  0.87951  1.0000
  Fe  Fe512     1.0  0.79944  0.69423  0.89269  1.0000
  S   S1025     1.0  0.78861  0.67428  0.91235  1.0000
  H   H4059     1.0  0.84645  0.63172  0.65110  1.0000
  Fe  Fe513     1.0  0.80887  0.67356  0.92495  1.0000
  S   S1026     1.0  0.80080  0.67036  0.95303  1.0000
  Fe  Fe514     1.0  0.80784  0.65653  0.89822  1.0000
  S   S1027     1.0  0.80590  0.63481  0.88939  1.0000
  S   S1028     1.0  0.81845  0.69491  0.90613  1.0000
  S   S1029     1.0  0.81694  0.67659  0.87749  1.0000
  Fe  Fe515     1.0  0.80969  0.58112  0.71221  1.0000
  S   S1030     1.0  0.79097  0.60358  0.70334  1.0000
  S   S1031     1.0  0.80147  0.55703  0.71615  1.0000
  Fe  Fe516     1.0  0.83327  0.60230  0.71355  1.0000
  S   S1032     1.0  0.81626  0.62622  0.70442  1.0000
  S   S1033     1.0  0.85877  0.60225  0.71719  1.0000
  Fe  Fe517     1.0  0.79585  0.61429  0.72213  1.0000
  S   S1034     1.0  0.77493  0.62868  0.73836  1.0000
  Fe  Fe518     1.0  0.81311  0.61296  0.68655  1.0000
  H   H4060     1.0  0.66700  0.70220  0.85220  1.0000
  S   S1035     1.0  0.81299  0.59110  0.73264  1.0000
  S   S1036     1.0  0.83179  0.58980  0.69405  1.0000
  Fe  Fe519     1.0  0.71868  0.62077  0.83426  1.0000
  S   S1037     1.0  0.73742  0.62934  0.81181  1.0000
  S   S1038     1.0  0.69623  0.61514  0.82944  1.0000
  Fe  Fe520     1.0  0.73654  0.62777  0.85741  1.0000
  S   S1039     1.0  0.75680  0.63656  0.83647  1.0000
  S   S1040     1.0  0.73488  0.63221  0.88258  1.0000
  Fe  Fe521     1.0  0.73599  0.65013  0.82353  1.0000
  S   S1041     1.0  0.73271  0.67721  0.81131  1.0000
  Fe  Fe522     1.0  0.75627  0.61474  0.82702  1.0000
  S   S1042     1.0  0.77843  0.59887  0.81354  1.0000
  S   S1043     1.0  0.71567  0.64289  0.84495  1.0000
  S   S1044     1.0  0.73761  0.60456  0.84907  1.0000
  C   C2530     1.0  0.76117  0.69825  0.85746  1.0000
  N   N252      1.0  0.75380  0.68397  0.85897  1.0000
  C   C2531     1.0  0.73838  0.71347  0.90723  1.0000
  C   C2532     1.0  0.70462  0.70002  0.80428  1.0000
  C   C2533     1.0  0.71306  0.68331  0.80630  1.0000
  C   C2534     1.0  0.70535  0.67126  0.80524  1.0000
  H   H4061     1.0  0.94308  0.70066  0.81209  1.0000
  H   H4062     1.0  0.71057  0.70938  0.80504  1.0000
  H   H4063     1.0  0.71175  0.65835  0.80683  1.0000
  C   C2535     1.0  0.77640  0.62024  0.75910  1.0000
  C   C2536     1.0  0.77374  0.63086  0.76983  1.0000
  C   C2537     1.0  0.77464  0.62421  0.78651  1.0000
  C   C2538     1.0  0.77795  0.60694  0.79254  1.0000
  C   C2539     1.0  0.78049  0.59629  0.78185  1.0000
  C   C2540     1.0  0.77976  0.60295  0.76509  1.0000
  H   H4064     1.0  0.77118  0.64423  0.76521  1.0000
  H   H4065     1.0  0.77279  0.63248  0.79473  1.0000
  H   H4066     1.0  0.78268  0.58294  0.78660  1.0000
  H   H4067     1.0  0.78131  0.59471  0.75694  1.0000
  H   H4068     1.0  0.86898  0.66384  0.65017  1.0000
  C   C2541     1.0  0.79884  0.65335  0.66821  1.0000
  H   H4069     1.0  0.79376  0.64623  0.68023  1.0000
  C   C2542     1.0  0.80530  0.68094  0.96575  1.0000
  C   C2543     1.0  0.81580  0.69232  0.95957  1.0000
  C   C2544     1.0  0.76304  0.72217  0.88866  1.0000
  H   H4070     1.0  0.77511  0.66571  0.86594  1.0000
  H   H4071     1.0  0.75546  0.54411  0.74526  1.0000
  C   C2545     1.0  0.67296  0.49332  0.75753  1.0000
  H   H4072     1.0  0.82147  0.69502  0.94643  1.0000
  H   H4073     1.0  0.69098  0.66906  0.86105  1.0000
  H   H4074     1.0  0.72703  0.55152  0.72706  1.0000
  C   C2546     1.0  0.71680  0.63394  0.75380  1.0000
  C   C2547     1.0  0.78602  0.63359  0.88839  1.0000
  C   C2548     1.0  0.78473  0.62458  0.87755  1.0000
  C   C2549     1.0  0.76903  0.62385  0.87600  1.0000
  C   C2550     1.0  0.75455  0.63185  0.88552  1.0000
  C   C2551     1.0  0.75582  0.64042  0.89678  1.0000
  C   C2552     1.0  0.77155  0.64154  0.89802  1.0000
  H   H4075     1.0  0.79588  0.61824  0.87023  1.0000
  H   H4076     1.0  0.76814  0.61692  0.86756  1.0000
  H   H4077     1.0  0.74462  0.64643  0.90434  1.0000
  H   H4078     1.0  0.77249  0.64828  0.90660  1.0000
  C   C2553     1.0  0.91760  0.70567  0.72634  1.0000
  H   H4079     1.0  0.86241  0.63495  0.82423  1.0000
  H   H4080     1.0  0.82984  0.51037  0.65977  1.0000
  H   H4081     1.0  0.75151  0.69060  0.83338  1.0000
  H   H4082     1.0  0.93631  0.70995  0.70383  1.0000
  C   C2554     1.0  0.87008  0.62526  0.75461  1.0000
  C   C2555     1.0  0.85398  0.62960  0.75133  1.0000
  C   C2556     1.0  0.85043  0.62333  0.73933  1.0000
  C   C2557     1.0  0.86295  0.61245  0.73065  1.0000
  C   C2558     1.0  0.87920  0.60876  0.73337  1.0000
  C   C2559     1.0  0.88274  0.61508  0.74529  1.0000
  H   H4083     1.0  0.84409  0.63741  0.75852  1.0000
  H   H4084     1.0  0.83790  0.62644  0.73722  1.0000
  H   H4085     1.0  0.88899  0.60039  0.72672  1.0000
  H   H4086     1.0  0.89511  0.61134  0.74788  1.0000
  C   C2560     1.0  0.86790  0.68720  0.82307  1.0000
  C   C2561     1.0  0.85470  0.69599  0.83332  1.0000
  C   C2562     1.0  0.85291  0.69153  0.85066  1.0000
  C   C2563     1.0  0.86455  0.67852  0.85781  1.0000
  C   C2564     1.0  0.87798  0.66994  0.84755  1.0000
  C   C2565     1.0  0.87952  0.67412  0.83021  1.0000
  H   H4087     1.0  0.76920  0.70153  0.84490  1.0000
  H   H4088     1.0  0.84260  0.69832  0.85850  1.0000
  H   H4089     1.0  0.88700  0.65985  0.85306  1.0000
  H   H4090     1.0  0.88978  0.66735  0.82235  1.0000
  H   H4091     1.0  0.75021  0.67711  0.88563  1.0000
  H   H4092     1.0  0.66229  0.66861  0.83528  1.0000
  H   H4093     1.0  0.73609  0.64462  0.77794  1.0000
  H   H4094     1.0  0.90400  0.69308  0.80714  1.0000
  H   H4095     1.0  0.73353  0.54692  0.75464  1.0000
  C   C2566     1.0  0.70635  0.57677  0.79744  1.0000
  C   C2567     1.0  0.69015  0.58581  0.80228  1.0000
  C   C2568     1.0  0.68714  0.59741  0.81226  1.0000
  C   C2569     1.0  0.70030  0.60015  0.81734  1.0000
  C   C2570     1.0  0.71653  0.59128  0.81230  1.0000
  C   C2571     1.0  0.71951  0.57957  0.80247  1.0000
  C   C2572     1.0  0.87107  0.65212  0.65977  1.0000
  H   H4096     1.0  0.77564  0.67138  0.84398  1.0000
  H   H4097     1.0  0.72676  0.59324  0.81618  1.0000
  H   H4098     1.0  0.73206  0.57257  0.79885  1.0000
  C   C2573     1.0  0.71624  0.53278  0.68841  1.0000
  C   C2574     1.0  0.71839  0.54889  0.68015  1.0000
  C   C2575     1.0  0.71155  0.56211  0.68844  1.0000
  C   C2576     1.0  0.70261  0.55917  0.70497  1.0000
  C   C2577     1.0  0.70081  0.54299  0.71322  1.0000
  C   C2578     1.0  0.70767  0.52983  0.70501  1.0000
  H   H4099     1.0  0.72488  0.55126  0.66725  1.0000
  H   H4100     1.0  0.71298  0.57462  0.68199  1.0000
  H   H4101     1.0  0.69393  0.54057  0.72592  1.0000
  H   H4102     1.0  0.70630  0.51733  0.71155  1.0000
  C   C2579     1.0  0.80016  0.54279  0.66874  1.0000
  C   C2580     1.0  0.81101  0.55273  0.66823  1.0000
  C   C2581     1.0  0.81105  0.55759  0.68260  1.0000
  C   C2582     1.0  0.80071  0.55197  0.69777  1.0000
  C   C2583     1.0  0.78994  0.54188  0.69835  1.0000
  C   C2584     1.0  0.78944  0.53752  0.68380  1.0000
  H   H4103     1.0  0.81949  0.56523  0.68206  1.0000
  H   H4104     1.0  0.78199  0.53741  0.71008  1.0000
  H   H4105     1.0  0.78101  0.52987  0.68431  1.0000
  H   H4106     1.0  0.66833  0.49605  0.71743  1.0000
  H   H4107     1.0  0.83599  0.60189  0.80120  1.0000
  C   C2585     1.0  0.95440  0.66730  0.79004  1.0000
  C   C2586     1.0  0.95415  0.65140  0.80024  1.0000
  C   C2587     1.0  0.96360  0.64567  0.81258  1.0000
  H   H4108     1.0  0.96295  0.69012  0.78510  1.0000
  H   H4109     1.0  0.72759  0.63304  0.74298  1.0000
  H   H4110     1.0  0.94758  0.67172  0.78019  1.0000
  H   H4111     1.0  0.96348  0.63340  0.82055  1.0000
  C   C2588     1.0  0.74390  0.55358  0.74842  1.0000
  H   H4112     1.0  0.81428  0.58551  0.80662  1.0000
  H   H4113     1.0  0.68312  0.66637  0.80200  1.0000
  H   H4114     1.0  0.75137  0.70957  0.85965  1.0000
  C   C2589     1.0  0.74377  0.68798  0.84622  1.0000
  H   H4115     1.0  0.81205  0.48864  0.69011  1.0000
  H   H4116     1.0  0.74880  0.54886  0.71733  1.0000
  H   H4117     1.0  0.73806  0.67741  0.84704  1.0000
  H   H4118     1.0  0.75821  0.69905  0.93127  1.0000
  C   C2590     1.0  0.72492  0.57872  0.73833  1.0000
  H   H4119     1.0  0.73423  0.56742  0.71023  1.0000
  H   H4120     1.0  0.72642  0.58499  0.74746  1.0000
  H   H4121     1.0  0.71402  0.57280  0.74436  1.0000
  H   H4122     1.0  0.72153  0.58836  0.72734  1.0000
  C   C2591     1.0  0.85645  0.63876  0.64848  1.0000
  C   C2592     1.0  0.92308  0.67953  0.82986  1.0000
  C   C2593     1.0  0.68043  0.69237  0.80117  1.0000
  H   H4123     1.0  0.67456  0.60421  0.81613  1.0000
  H   H4124     1.0  0.67487  0.67907  0.87583  1.0000
  Fe  Fe523     1.0  0.67717  0.53198  0.76517  1.0000
  H   H4125     1.0  0.69905  0.64594  0.78107  1.0000
  H   H4126     1.0  0.73232  0.70369  0.91543  1.0000
  S   S1045     1.0  0.98020  0.68653  0.81093  1.0000
  H   H4127     1.0  0.67991  0.58368  0.79854  1.0000
  N   N253      1.0  0.66667  0.67641  0.85528  1.0000
  N   N254      1.0  0.88631  0.71401  0.69176  1.0000
  Fe  Fe524     1.0  0.68214  0.56516  0.74182  1.0000
  H   H4128     1.0  0.84572  0.70617  0.82784  1.0000
  C   C2594     1.0  0.86072  0.62776  0.67653  1.0000
  H   H4129     1.0  0.78452  0.60589  0.65309  1.0000
  C   C2595     1.0  0.84282  0.59562  0.79072  1.0000
  N   N255      1.0  0.91788  0.69743  0.82250  1.0000
  H   H4130     1.0  0.73716  0.66969  0.87727  1.0000
  C   C2596     1.0  0.91421  0.69936  0.80608  1.0000
  H   H4131     1.0  0.80233  0.50410  0.67472  1.0000
  H   H4132     1.0  0.91331  0.67260  0.83126  1.0000
  H   H4133     1.0  0.87276  0.61934  0.67236  1.0000
  H   H4134     1.0  0.87622  0.73040  0.67123  1.0000
  H   H4135     1.0  0.76212  0.65817  0.85767  1.0000
  H   H4136     1.0  0.91018  0.71270  0.80013  1.0000
  H   H4137     1.0  0.82763  0.70853  0.96580  1.0000
  H   H4138     1.0  0.79076  0.70416  0.93508  1.0000
  S   S1046     1.0  0.68481  0.50514  0.76176  1.0000
  C   C2597     1.0  0.88189  0.72733  0.70112  1.0000
  C   C2598     1.0  0.67419  0.52377  0.69456  1.0000
  C   C2599     1.0  0.72983  0.73013  0.90578  1.0000
  C   C2600     1.0  0.93149  0.70594  0.82045  1.0000
  C   C2601     1.0  0.89987  0.73048  0.73531  1.0000
  H   H4139     1.0  0.85046  0.60418  0.78150  1.0000
  S   S1047     1.0  0.80241  0.70118  0.64779  1.0000
  H   H4140     1.0  0.68161  0.71740  0.80055  1.0000
  C   C2602     1.0  0.68916  0.67581  0.80244  1.0000
  H   H4141     1.0  0.97896  0.65177  0.82542  1.0000
  N   N256      1.0  0.84792  0.63749  0.84869  1.0000
  C   C2603     1.0  0.83852  0.65439  0.84257  1.0000
  C   C2604     1.0  0.83818  0.62511  0.85000  1.0000
  C   C2605     1.0  0.85081  0.63640  0.86525  1.0000
  C   C2606     1.0  0.86411  0.63408  0.83692  1.0000
  H   H4142     1.0  0.84522  0.66409  0.84200  1.0000
  H   H4143     1.0  0.82601  0.65714  0.85089  1.0000
  H   H4144     1.0  0.83665  0.65592  0.82982  1.0000
  H   H4145     1.0  0.82584  0.62739  0.85872  1.0000
  H   H4146     1.0  0.83580  0.62556  0.83772  1.0000
  H   H4147     1.0  0.84478  0.61221  0.85479  1.0000
  H   H4148     1.0  0.85758  0.62375  0.87046  1.0000
  H   H4149     1.0  0.83887  0.63925  0.87435  1.0000
  H   H4150     1.0  0.85827  0.64544  0.86474  1.0000
  H   H4151     1.0  0.87154  0.62141  0.84111  1.0000
  H   H4152     1.0  0.87177  0.64317  0.83567  1.0000
  S   S1048     1.0  0.80108  0.53670  0.65038  1.0000
  H   H4153     1.0  0.91258  0.70839  0.69110  1.0000
  H   H4154     1.0  0.75191  0.58439  0.71433  1.0000
  H   H4155     1.0  0.78934  0.67696  0.67562  1.0000
  H   H4156     1.0  0.73347  0.69910  0.84761  1.0000
  H   H4157     1.0  0.81133  0.61271  0.78760  1.0000
  C   C2607     1.0  0.90480  0.71305  0.73799  1.0000
  S   S1049     1.0  0.67407  0.57956  0.76195  1.0000
  C   C2608     1.0  0.73749  0.55815  0.72150  1.0000
  H   H4158     1.0  0.72301  0.65824  0.76440  1.0000
  H   H4159     1.0  0.77112  0.72708  0.95835  1.0000
  H   H4160     1.0  0.76154  0.69665  0.89996  1.0000
  C   C2609     1.0  0.68822  0.70454  0.80186  1.0000
  C   C2610     1.0  0.66984  0.69258  0.84471  1.0000
  H   H4161     1.0  0.76595  0.56561  0.72163  1.0000
  N   N257      1.0  0.74015  0.56627  0.73346  1.0000
  H   H4162     1.0  0.74225  0.64518  0.75610  1.0000
  C   C2611     1.0  0.96334  0.67763  0.79269  1.0000
  N   N258      1.0  0.85743  0.64315  0.66368  1.0000
  C   C2612     1.0  0.73376  0.61585  0.77277  1.0000
  C   C2613     1.0  0.75431  0.57465  0.72559  1.0000
  C   C2614     1.0  0.80865  0.49075  0.67793  1.0000
  H   H4163     1.0  0.82635  0.61654  0.76851  1.0000
  H   H4164     1.0  0.81244  0.57696  0.79051  1.0000
  N   N259      1.0  0.76484  0.71539  0.94231  1.0000
  H   H4165     1.0  0.74564  0.55933  0.75786  1.0000
  H   H4166     1.0  0.70818  0.64618  0.75070  1.0000
  C   C2615     1.0  0.73129  0.64567  0.76678  1.0000
  H   H4167     1.0  0.84953  0.57187  0.77316  1.0000
  H   H4168     1.0  0.99077  0.65170  0.77821  1.0000
  H   H4169     1.0  0.85168  0.58424  0.79557  1.0000
  H   H4170     1.0  0.75692  0.58068  0.73432  1.0000
  H   H4171     1.0  0.83239  0.58074  0.76281  1.0000
  N   N260      1.0  0.72241  0.63227  0.76916  1.0000
  H   H4172     1.0  0.74474  0.61430  0.76227  1.0000
  C   C2616     1.0  0.79628  0.67073  0.66559  1.0000
  H   H4173     1.0  0.71010  0.62397  0.75513  1.0000
  C   C2617     1.0  0.81959  0.60705  0.77713  1.0000
  C   C2618     1.0  0.76728  0.66918  0.85652  1.0000
  C   C2619     1.0  0.74299  0.68038  0.87572  1.0000
  H   H4174     1.0  0.70068  0.62378  0.78519  1.0000
  H   H4175     1.0  0.73862  0.61421  0.78406  1.0000
  C   C2620     1.0  0.84077  0.58367  0.76905  1.0000
  H   H4176     1.0  0.83834  0.66556  0.66060  1.0000
  C   C2621     1.0  0.83551  0.49681  0.66308  1.0000
  C   C2622     1.0  0.75496  0.70950  0.89864  1.0000
  H   H4177     1.0  0.73275  0.69131  0.87809  1.0000
  H   H4178     1.0  0.72734  0.60547  0.77497  1.0000
  S   S1050     1.0  0.81382  0.62344  0.65933  1.0000
  C   C2623     1.0  0.80835  0.64522  0.65545  1.0000
  C   C2624     1.0  0.90385  0.71256  0.68249  1.0000
  H   H4179     1.0  0.92804  0.71949  0.81496  1.0000
  H   H4180     1.0  0.68309  0.69149  0.83786  1.0000
  C   C2625     1.0  0.82157  0.57999  0.79573  1.0000
  H   H4181     1.0  0.89216  0.69898  0.83521  1.0000
  H   H4182     1.0  0.68575  0.51439  0.69679  1.0000
  H   H4183     1.0  0.88772  0.68760  0.69691  1.0000
  C   C2626     1.0  0.66526  0.52609  0.72328  1.0000
  N   N261      1.0  0.83120  0.59158  0.78315  1.0000
  C   C2627     1.0  0.70777  0.63360  0.78317  1.0000
  H   H4184     1.0  0.84837  0.59196  0.75944  1.0000
  C   C2628     1.0  0.67023  0.66427  0.84468  1.0000
  H   H4185     1.0  0.93460  0.67358  0.82193  1.0000
  C   C2629     1.0  0.81927  0.69996  0.97056  1.0000
  C   C2630     1.0  0.67758  0.67033  0.86741  1.0000
  H   H4186     1.0  0.82984  0.56807  0.80047  1.0000
  Fe  Fe525     1.0  0.68981  0.55780  0.77603  1.0000
  H   H4187     1.0  0.88332  0.64436  0.65490  1.0000
  C   C2631     1.0  0.97252  0.65600  0.81525  1.0000
  H   H4188     1.0  0.71153  0.63205  0.79505  1.0000
  H   H4189     1.0  0.85076  0.62057  0.67970  1.0000
  H   H4190     1.0  0.66762  0.53889  0.72007  1.0000
  H   H4191     1.0  0.87847  0.70863  0.67231  1.0000
  H   H4192     1.0  0.84168  0.65752  0.68146  1.0000
  C   C2632     1.0  0.84144  0.65391  0.67000  1.0000
  C   C2633     1.0  0.92615  0.71566  0.71264  1.0000
  S   S1051     1.0  0.66059  0.55234  0.75045  1.0000
  H   H4193     1.0  0.92534  0.69385  0.79738  1.0000
  S   S1052     1.0  0.78438  0.71765  0.87964  1.0000
  Fe  Fe526     1.0  0.74609  0.51860  0.65784  1.0000
  H   H4194     1.0  0.75412  0.71652  0.96790  1.0000
  H   H4195     1.0  0.78854  0.57763  0.64831  1.0000
  S   S1053     1.0  0.66957  0.54318  0.78790  1.0000
  H   H4196     1.0  0.67682  0.51724  0.72635  1.0000
  H   H4197     1.0  0.86128  0.63058  0.68830  1.0000
  C   C2634     1.0  0.76636  0.71600  0.95890  1.0000
  H   H4198     1.0  0.86194  0.71900  0.68655  1.0000
  H   H4199     1.0  0.90735  0.70331  0.67450  1.0000
  H   H4200     1.0  0.92573  0.67756  0.84236  1.0000
  H   H4201     1.0  0.67591  0.65789  0.87531  1.0000
  C   C2635     1.0  0.87524  0.71817  0.67996  1.0000
  H   H4202     1.0  0.93477  0.70454  0.83256  1.0000
  H   H4203     1.0  0.88966  0.72428  0.71044  1.0000
  H   H4204     1.0  0.87217  0.65554  0.67100  1.0000
  H   H4205     1.0  0.83098  0.64743  0.67316  1.0000
  Fe  Fe527     1.0  0.78115  0.52543  0.64751  1.0000
  H   H4206     1.0  0.79935  0.48313  0.67968  1.0000
  H   H4207     1.0  0.68342  0.66243  0.83769  1.0000
  H   H4208     1.0  0.84676  0.49414  0.65312  1.0000
  H   H4209     1.0  0.77519  0.70476  0.96407  1.0000
  H   H4210     1.0  0.76785  0.68871  0.94853  1.0000
  H   H4211     1.0  0.87126  0.69857  0.71082  1.0000
  C   C2636     1.0  0.90276  0.70492  0.83360  1.0000
  H   H4212     1.0  0.90494  0.70344  0.84621  1.0000
  C   C2637     1.0  0.75909  0.70016  0.94360  1.0000
  H   H4213     1.0  0.74654  0.70010  0.95196  1.0000
  H   H4214     1.0  0.67746  0.53626  0.69087  1.0000
  C   C2638     1.0  0.88431  0.69799  0.70352  1.0000
  H   H4215     1.0  0.89249  0.69458  0.71265  1.0000
  H   H4216     1.0  0.83968  0.49456  0.67488  1.0000
  H   H4217     1.0  0.78594  0.72649  0.92915  1.0000
  N   N262      1.0  0.82346  0.48652  0.66480  1.0000
  C   C2639     1.0  0.81834  0.48992  0.64883  1.0000
  H   H4218     1.0  0.72689  0.48685  0.66473  1.0000
  H   H4219     1.0  0.90616  0.72471  0.67435  1.0000
  C   C2640     1.0  0.78126  0.71511  0.93065  1.0000
  H   H4220     1.0  0.78061  0.71440  0.91803  1.0000
  C   C2641     1.0  0.75271  0.73027  0.93605  1.0000
  H   H4221     1.0  0.66198  0.69739  0.83526  1.0000
  H   H4222     1.0  0.81275  0.58865  0.64924  1.0000
  H   H4223     1.0  0.67087  0.52169  0.68371  1.0000
  H   H4224     1.0  0.89857  0.71845  0.82847  1.0000
  H   H4225     1.0  0.73983  0.73035  0.94372  1.0000
  H   H4226     1.0  0.75222  0.73074  0.92311  1.0000
  N   N263      1.0  0.66046  0.52256  0.70949  1.0000
  H   H4227     1.0  0.66806  0.65184  0.85216  1.0000
  H   H4228     1.0  0.86865  0.72908  0.70800  1.0000
  H   H4229     1.0  0.81292  0.50339  0.64479  1.0000
  S   S1054     1.0  0.65950  0.69727  0.79984  1.0000
  H   H4230     1.0  0.65915  0.72690  0.88870  1.0000
  C   C2642     1.0  0.74752  0.74385  0.07984  1.0000
  H   H4231     1.0  0.80712  0.78023  0.27432  1.0000
  Fe  Fe528     1.0  0.93234  0.78116  0.21962  1.0000
  S   S1055     1.0  0.91466  0.80341  0.20869  1.0000
  S   S1056     1.0  0.72847  0.80541  0.23896  1.0000
  Fe  Fe529     1.0  0.96288  0.79641  0.20112  1.0000
  S   S1057     1.0  0.94728  0.81981  0.18863  1.0000
  H   H4232     1.0  0.96795  0.81074  0.13200  1.0000
  Fe  Fe530     1.0  0.92989  0.81822  0.21378  1.0000
  S   S1058     1.0  0.91437  0.83873  0.22665  1.0000
  Fe  Fe531     1.0  0.93361  0.80263  0.18482  1.0000
  S   S1059     1.0  0.92754  0.80451  0.16031  1.0000
  S   S1060     1.0  0.94644  0.79596  0.22669  1.0000
  S   S1061     1.0  0.95035  0.77929  0.19537  1.0000
  Fe  Fe532     1.0  0.81599  0.91933  0.18120  1.0000
  S   S1062     1.0  0.80320  0.92315  0.20679  1.0000
  S   S1063     1.0  0.80028  0.92575  0.16205  1.0000
  Fe  Fe533     1.0  0.85014  0.90881  0.18989  1.0000
  S   S1064     1.0  0.83990  0.91195  0.21630  1.0000
  S   S1065     1.0  0.87708  0.89894  0.17876  1.0000
  Fe  Fe534     1.0  0.82035  0.89921  0.21548  1.0000
  S   S1066     1.0  0.81169  0.87813  0.23556  1.0000
  Fe  Fe535     1.0  0.82379  0.93569  0.20499  1.0000
  S   S1067     1.0  0.81431  0.96081  0.21221  1.0000
  S   S1068     1.0  0.83179  0.89441  0.18994  1.0000
  S   S1069     1.0  0.83547  0.93357  0.17853  1.0000
  C   C2643     1.0  0.66153  0.77078  0.00982  1.0000
  Fe  Fe536     1.0  0.69785  0.81113  0.05987  1.0000
  S   S1070     1.0  0.69697  0.78850  0.08051  1.0000
  S   S1071     1.0  0.68973  0.83461  0.07011  1.0000
  S   S1072     1.0  0.70891  0.76628  0.05215  1.0000
  Fe  Fe537     1.0  0.68480  0.77983  0.06547  1.0000
  C   C2644     1.0  0.80712  0.94154  0.11723  1.0000
  Fe  Fe538     1.0  0.72100  0.77750  0.06528  1.0000
  S   S1073     1.0  0.68353  0.80333  0.04565  1.0000
  Fe  Fe539     1.0  0.73298  0.90664  0.12115  1.0000
  S   S1074     1.0  0.75566  0.88714  0.11382  1.0000
  Fe  Fe540     1.0  0.71490  0.88097  0.14601  1.0000
  S   S1075     1.0  0.73609  0.85966  0.14112  1.0000
  Fe  Fe541     1.0  0.75214  0.87635  0.14125  1.0000
  S   S1076     1.0  0.77178  0.86684  0.15645  1.0000
  Fe  Fe542     1.0  0.73736  0.87215  0.11423  1.0000
  S   S1077     1.0  0.74270  0.85460  0.09680  1.0000
  S   S1078     1.0  0.73071  0.89668  0.14860  1.0000
  S   S1079     1.0  0.71485  0.89264  0.11912  1.0000
  H   H4233     1.0  0.77291  0.74172  0.08109  1.0000
  H   H4234     1.0  0.78642  0.94993  0.09623  1.0000
  H   H4235     1.0  0.78191  0.95614  0.21285  1.0000
  H   H4236     1.0  0.69127  0.74942  0.08820  1.0000
  Fe  Fe543     1.0  0.72559  0.82234  0.25576  1.0000
  Fe  Fe544     1.0  0.70399  0.83846  0.28415  1.0000
  S   S1080     1.0  0.72286  0.80050  0.04516  1.0000
  H   H4237     1.0  0.66472  0.83701  0.10247  1.0000
  H   H4238     1.0  0.72031  0.78389  0.22351  1.0000
  H   H4239     1.0  0.69588  0.93773  0.16128  1.0000
  Fe  Fe545     1.0  0.66142  0.78388  0.21607  1.0000
  C   C2645     1.0  0.89094  0.77079  0.23396  1.0000
  C   C2646     1.0  0.85424  0.97660  0.21487  1.0000
  H   H4240     1.0  0.70303  0.81207  0.13150  1.0000
  C   C2647     1.0  0.78441  0.74070  0.01428  1.0000
  C   C2648     1.0  0.93656  0.75218  0.17640  1.0000
  H   H4241     1.0  0.72210  0.77835  0.30202  1.0000
  S   S1081     1.0  0.76045  0.81141  0.29712  1.0000
  S   S1082     1.0  0.69707  0.73524  0.19220  1.0000
  Fe  Fe546     1.0  0.88497  0.74097  0.15042  1.0000
  H   H4242     1.0  0.68678  0.80953  0.00227  1.0000
  C   C2649     1.0  0.97852  0.81247  0.13618  1.0000
  H   H4243     1.0  0.73059  0.75653  0.30299  1.0000
  C   C2650     1.0  0.70438  0.84003  0.07777  1.0000
  C   C2651     1.0  0.69904  0.85216  0.08746  1.0000
  C   C2652     1.0  0.71058  0.85678  0.09348  1.0000
  C   C2653     1.0  0.72758  0.84948  0.08957  1.0000
  C   C2654     1.0  0.73284  0.83730  0.07997  1.0000
  C   C2655     1.0  0.72130  0.83245  0.07427  1.0000
  H   H4244     1.0  0.68598  0.85813  0.09020  1.0000
  H   H4245     1.0  0.70636  0.86613  0.10090  1.0000
  H   H4246     1.0  0.74596  0.83162  0.07685  1.0000
  H   H4247     1.0  0.72560  0.82313  0.06680  1.0000
  H   H4248     1.0  0.79563  0.96336  0.13699  1.0000
  H   H4249     1.0  0.69706  0.74715  0.30778  1.0000
  H   H4250     1.0  0.77101  0.96508  0.10638  1.0000
  H   H4251     1.0  0.72304  0.74200  0.07922  1.0000
  H   H4252     1.0  0.71620  0.73996  0.29397  1.0000
  C   C2656     1.0  0.79161  0.90940  0.16154  1.0000
  C   C2657     1.0  0.78036  0.91249  0.15125  1.0000
  C   C2658     1.0  0.77425  0.89947  0.14969  1.0000
  C   C2659     1.0  0.77919  0.88325  0.15858  1.0000
  C   C2660     1.0  0.79002  0.88017  0.16928  1.0000
  C   C2661     1.0  0.79620  0.89323  0.17079  1.0000
  H   H4253     1.0  0.77634  0.92493  0.14440  1.0000
  H   H4254     1.0  0.76592  0.90194  0.14139  1.0000
  H   H4255     1.0  0.79373  0.86768  0.17634  1.0000
  H   H4256     1.0  0.80458  0.89072  0.17901  1.0000
  C   C2662     1.0  0.82739  0.97292  0.21364  1.0000
  C   C2663     1.0  0.87894  0.74758  0.26186  1.0000
  S   S1083     1.0  0.69319  0.87533  0.16660  1.0000
  Fe  Fe547     1.0  0.74085  0.82521  0.28260  1.0000
  N   N264      1.0  0.79393  0.95681  0.11503  1.0000
  C   C2664     1.0  0.84431  0.96644  0.21363  1.0000
  C   C2665     1.0  0.77610  0.75374  0.03783  1.0000
  C   C2666     1.0  0.66849  0.94830  0.14825  1.0000
  H   H4257     1.0  0.72197  0.77254  0.97776  1.0000
  H   H4258     1.0  0.84971  0.95359  0.21279  1.0000
  C   C2667     1.0  0.79098  0.87775  0.23631  1.0000
  C   C2668     1.0  0.78299  0.88749  0.22349  1.0000
  C   C2669     1.0  0.76619  0.88778  0.22463  1.0000
  C   C2670     1.0  0.75743  0.87803  0.23842  1.0000
  C   C2671     1.0  0.76557  0.86783  0.25098  1.0000
  C   C2672     1.0  0.78230  0.86775  0.24995  1.0000
  H   H4259     1.0  0.78973  0.89476  0.21264  1.0000
  C   C2673     1.0  0.80672  0.79351  0.27384  1.0000
  H   H4260     1.0  0.75883  0.86038  0.26174  1.0000
  H   H4261     1.0  0.78838  0.86029  0.25994  1.0000
  C   C2674     1.0  0.91364  0.79186  0.16223  1.0000
  C   C2675     1.0  0.90287  0.78740  0.17750  1.0000
  C   C2676     1.0  0.89194  0.77717  0.17912  1.0000
  C   C2677     1.0  0.70485  0.75016  0.29500  1.0000
  H   H4262     1.0  0.90282  0.79187  0.18808  1.0000
  H   H4263     1.0  0.76004  0.89554  0.21479  1.0000
  C   C2678     1.0  0.78623  0.96153  0.13124  1.0000
  H   H4264     1.0  0.66804  0.81000  0.25813  1.0000
  Fe  Fe548     1.0  0.70858  0.79033  0.03293  1.0000
  C   C2679     1.0  0.90431  0.85574  0.21339  1.0000
  C   C2680     1.0  0.91194  0.86052  0.19665  1.0000
  C   C2681     1.0  0.90376  0.87424  0.18626  1.0000
  C   C2682     1.0  0.88768  0.88282  0.19241  1.0000
  C   C2683     1.0  0.87997  0.87784  0.20910  1.0000
  C   C2684     1.0  0.88837  0.86450  0.21963  1.0000
  H   H4265     1.0  0.92433  0.85395  0.19181  1.0000
  H   H4266     1.0  0.90984  0.87814  0.17340  1.0000
  H   H4267     1.0  0.86754  0.88427  0.21394  1.0000
  H   H4268     1.0  0.88242  0.86087  0.23258  1.0000
  N   N265      1.0  0.73198  0.86146  0.20024  1.0000
  H   H4269     1.0  0.84561  0.74111  0.07633  1.0000
  C   C2685     1.0  0.68673  0.85873  0.16360  1.0000
  H   H4270     1.0  0.73133  0.76029  0.27307  1.0000
  C   C2686     1.0  0.77748  0.76168  0.30752  1.0000
  S   S1084     1.0  0.84598  0.76226  0.26127  1.0000
  H   H4271     1.0  0.66451  0.73507  0.18888  1.0000
  H   H4272     1.0  0.75582  0.80460  0.12466  1.0000
  H   H4273     1.0  0.91267  0.79135  0.26720  1.0000
  H   H4274     1.0  0.70535  0.86663  0.20907  1.0000
  H   H4275     1.0  0.78655  0.81009  0.24188  1.0000
  H   H4276     1.0  0.93109  0.76178  0.18403  1.0000
  H   H4277     1.0  0.75792  0.76403  0.27704  1.0000
  C   C2687     1.0  0.90657  0.79747  0.25647  1.0000
  H   H4278     1.0  0.71682  0.80022  0.11674  1.0000
  H   H4279     1.0  0.73098  0.78201  0.13943  1.0000
  H   H4280     1.0  0.74567  0.81824  0.10871  1.0000
  H   H4281     1.0  0.67823  0.76332  0.04358  1.0000
  C   C2688     1.0  0.69796  0.93902  0.14761  1.0000
  H   H4282     1.0  0.65915  0.83256  0.12482  1.0000
  H   H4283     1.0  0.72329  0.78220  0.27179  1.0000
  H   H4284     1.0  0.75739  0.96567  0.18035  1.0000
  H   H4285     1.0  0.77499  0.94366  0.11704  1.0000
  H   H4286     1.0  0.77082  0.94762  0.20326  1.0000
  H   H4287     1.0  0.67804  0.84916  0.18978  1.0000
  C   C2689     1.0  0.80127  0.97055  0.10328  1.0000
  S   S1085     1.0  0.77664  0.73542  0.29561  1.0000
  H   H4288     1.0  0.98302  0.80750  0.22114  1.0000
  C   C2690     1.0  0.97065  0.74003  0.13472  1.0000
  C   C2691     1.0  0.69385  0.77963  0.29315  1.0000
  H   H4289     1.0  0.67075  0.91619  0.14806  1.0000
  S   S1086     1.0  0.68404  0.78280  0.19501  1.0000
  C   C2692     1.0  0.66496  0.75088  0.09203  1.0000
  H   H4290     1.0  0.81093  0.97332  0.10800  1.0000
  S   S1087     1.0  0.98173  0.74891  0.14331  1.0000
  C   C2693     1.0  0.71964  0.76999  0.27470  1.0000
  H   H4291     1.0  0.68994  0.95036  0.11798  1.0000
  H   H4292     1.0  0.89544  0.77946  0.22292  1.0000
  C   C2694     1.0  0.70938  0.80077  0.24011  1.0000
  C   C2695     1.0  0.91344  0.78596  0.14855  1.0000
  H   H4293     1.0  0.71694  0.79419  0.15373  1.0000
  H   H4294     1.0  0.88120  0.78176  0.26708  1.0000
  C   C2696     1.0  0.71529  0.81084  0.12257  1.0000
  N   N266      1.0  0.80412  0.80432  0.25758  1.0000
  H   H4295     1.0  0.83789  0.98282  0.28156  1.0000
  H   H4296     1.0  0.79654  0.79743  0.28421  1.0000
  H   H4297     1.0  0.75967  0.96254  0.21586  1.0000
  S   S1088     1.0  0.74243  0.76540  0.07785  1.0000
  H   H4298     1.0  0.81870  0.79388  0.27638  1.0000
  C   C2697     1.0  0.68379  0.84320  0.14509  1.0000
  N   N267      1.0  0.87773  0.84788  0.17099  1.0000
  C   C2698     1.0  0.87246  0.85067  0.18814  1.0000
  C   C2699     1.0  0.86316  0.85350  0.16312  1.0000
  C   C2700     1.0  0.88471  0.82994  0.17145  1.0000
  C   C2701     1.0  0.89062  0.85745  0.16126  1.0000
  H   H4299     1.0  0.88321  0.84696  0.19435  1.0000
  H   H4300     1.0  0.86291  0.84347  0.19594  1.0000
  H   H4301     1.0  0.86689  0.86408  0.18822  1.0000
  H   H4302     1.0  0.86663  0.85152  0.15018  1.0000
  H   H4303     1.0  0.85311  0.84664  0.17022  1.0000
  H   H4304     1.0  0.85771  0.86704  0.16254  1.0000
  H   H4305     1.0  0.88913  0.82738  0.15870  1.0000
  H   H4306     1.0  0.87535  0.82224  0.17849  1.0000
  H   H4307     1.0  0.89566  0.82533  0.17744  1.0000
  H   H4308     1.0  0.88596  0.87103  0.16104  1.0000
  H   H4309     1.0  0.89463  0.85595  0.14815  1.0000
  H   H4310     1.0  0.90194  0.85323  0.16665  1.0000
  H   H4311     1.0  0.94992  0.75270  0.17103  1.0000
  C   C2702     1.0  0.67892  0.79355  0.24106  1.0000
  H   H4312     1.0  0.77661  0.97327  0.12988  1.0000
  C   C2703     1.0  0.73441  0.96425  0.11356  1.0000
  C   C2704     1.0  0.88009  0.79202  0.27328  1.0000
  C   C2705     1.0  0.88112  0.81242  0.24729  1.0000
  H   H4313     1.0  0.68668  0.78061  0.28371  1.0000
  H   H4314     1.0  0.88545  0.78627  0.28454  1.0000
  S   S1089     1.0  0.65973  0.79017  0.24047  1.0000
  C   C2706     1.0  0.68094  0.74353  0.09498  1.0000
  H   H4315     1.0  0.67769  0.79107  0.11425  1.0000
  C   C2707     1.0  0.78106  0.95373  0.10836  1.0000
  H   H4316     1.0  0.68553  0.77711  0.30568  1.0000
  C   C2708     1.0  0.89618  0.74688  0.25626  1.0000
  H   H4317     1.0  0.91063  0.74470  0.20090  1.0000
  C   C2709     1.0  0.80253  0.82191  0.25794  1.0000
  N   N268      1.0  0.77317  0.97286  0.19169  1.0000
  H   H4318     1.0  0.68700  0.77182  0.02231  1.0000
  H   H4319     1.0  0.90817  0.78784  0.24936  1.0000
  H   H4320     1.0  0.87414  0.82424  0.27501  1.0000
  C   C2710     1.0  0.76388  0.73523  0.08053  1.0000
  C   C2711     1.0  0.68131  0.91900  0.15131  1.0000
  C   C2712     1.0  0.67510  0.83387  0.17491  1.0000
  H   H4321     1.0  0.66563  0.75797  0.00740  1.0000
  N   N269      1.0  0.77002  0.74787  0.02632  1.0000
  H   H4322     1.0  0.89614  0.74293  0.07532  1.0000
  C   C2713     1.0  0.69075  0.80278  0.99237  1.0000
  H   H4323     1.0  0.94809  0.75861  0.13933  1.0000
  H   H4324     1.0  0.78368  0.76326  0.03102  1.0000
  H   H4325     1.0  0.73729  0.82219  0.14365  1.0000
  C   C2714     1.0  0.67711  0.83175  0.15880  1.0000
  H   H4326     1.0  0.74645  0.87555  0.20571  1.0000
  H   H4327     1.0  0.73909  0.79126  0.15118  1.0000
  S   S1090     1.0  0.66169  0.76941  0.07686  1.0000
  N   N270      1.0  0.72904  0.80847  0.13094  1.0000
  C   C2715     1.0  0.69374  0.78591  0.23166  1.0000
  C   C2716     1.0  0.69470  0.80776  0.25025  1.0000
  S   S1091     1.0  0.74769  0.83194  0.25489  1.0000
  C   C2717     1.0  0.90279  0.77530  0.15030  1.0000
  C   C2718     1.0  0.72664  0.82306  0.13810  1.0000
  C   C2719     1.0  0.78868  0.80249  0.25426  1.0000
  C   C2720     1.0  0.81845  0.79934  0.24433  1.0000
  H   H4328     1.0  0.71471  0.82235  0.11256  1.0000
  N   N271      1.0  0.88878  0.80503  0.26194  1.0000
  S   S1092     1.0  0.81943  0.73865  0.30130  1.0000
  H   H4329     1.0  0.79173  0.82599  0.26784  1.0000
  S   S1093     1.0  0.73117  0.93433  0.11003  1.0000
  H   H4330     1.0  0.74187  0.92744  0.14126  1.0000
  S   S1094     1.0  0.92380  0.75821  0.23647  1.0000
  S   S1095     1.0  0.70732  0.84667  0.25632  1.0000
  C   C2721     1.0  0.73588  0.94711  0.12048  1.0000
  C   C2722     1.0  0.74046  0.94060  0.13586  1.0000
  C   C2723     1.0  0.67946  0.80416  0.25071  1.0000
  H   H4331     1.0  0.78812  0.95660  0.17537  1.0000
  C   C2724     1.0  0.72903  0.79330  0.14441  1.0000
  C   C2725     1.0  0.86766  0.76011  0.25370  1.0000
  H   H4332     1.0  0.67031  0.81657  0.98043  1.0000
  C   C2726     1.0  0.71062  0.78207  0.97846  1.0000
  H   H4333     1.0  0.69430  0.86510  0.13686  1.0000
  H   H4334     1.0  0.78902  0.78928  0.25463  1.0000
  H   H4335     1.0  0.77762  0.80676  0.26370  1.0000
  H   H4336     1.0  0.73576  0.85140  0.22507  1.0000
  H   H4337     1.0  0.86505  0.78121  0.23317  1.0000
  H   H4338     1.0  0.81983  0.78614  0.24376  1.0000
  H   H4339     1.0  0.74443  0.88085  0.18445  1.0000
  H   H4340     1.0  0.81702  0.80729  0.23189  1.0000
  C   C2727     1.0  0.74305  0.95119  0.14444  1.0000
  H   H4341     1.0  0.74659  0.83806  0.21080  1.0000
  H   H4342     1.0  0.71512  0.82421  0.14808  1.0000
  S   S1096     1.0  0.71766  0.78505  0.00687  1.0000
  C   C2728     1.0  0.73577  0.73543  0.07940  1.0000
  C   C2729     1.0  0.74581  0.87034  0.19540  1.0000
  C   C2730     1.0  0.90222  0.75864  0.24244  1.0000
  C   C2731     1.0  0.68890  0.85647  0.14750  1.0000
  C   C2732     1.0  0.73483  0.84717  0.21426  1.0000
  H   H4343     1.0  0.75809  0.86189  0.19202  1.0000
  H   H4344     1.0  0.81389  0.82386  0.26046  1.0000
  C   C2733     1.0  0.78854  0.96772  0.17951  1.0000
  C   C2734     1.0  0.88739  0.81823  0.27065  1.0000
  H   H4345     1.0  0.74325  0.84714  0.18138  1.0000
  C   C2735     1.0  0.67969  0.84750  0.17730  1.0000
  C   C2736     1.0  0.70893  0.78962  0.23105  1.0000
  H   H4346     1.0  0.86655  0.79715  0.27749  1.0000
  H   H4347     1.0  0.74636  0.94604  0.15645  1.0000
  C   C2737     1.0  0.87371  0.77166  0.23969  1.0000
  C   C2738     1.0  0.73121  0.85537  0.18597  1.0000
  H   H4348     1.0  0.72448  0.84034  0.21849  1.0000
  H   H4349     1.0  0.68458  0.81030  0.10385  1.0000
  H   H4350     1.0  0.88359  0.77384  0.19098  1.0000
  H   H4351     1.0  0.97268  0.79415  0.16713  1.0000
  C   C2739     1.0  0.67559  0.80445  0.11447  1.0000
  C   C2740     1.0  0.74512  0.80674  0.11872  1.0000
  H   H4352     1.0  0.74715  0.79620  0.11260  1.0000
  H   H4353     1.0  0.72557  0.83487  0.12842  1.0000
  S   S1097     1.0  0.72417  0.84996  0.28565  1.0000
  H   H4354     1.0  0.71621  0.87769  0.21622  1.0000
  S   S1098     1.0  0.73638  0.87853  0.23976  1.0000
  H   H4355     1.0  0.72855  0.86589  0.17539  1.0000
  H   H4356     1.0  0.89321  0.81318  0.28168  1.0000
  H   H4357     1.0  0.66994  0.96130  0.14214  1.0000
  H   H4358     1.0  0.92177  0.78931  0.13671  1.0000
  S   S1099     1.0  0.74447  0.98105  0.14918  1.0000
  H   H4359     1.0  0.72114  0.84827  0.18929  1.0000
  H   H4360     1.0  0.71351  0.88388  0.19508  1.0000
  C   C2741     1.0  0.71605  0.87294  0.20538  1.0000
  H   H4361     1.0  0.74679  0.98104  0.19262  1.0000
  Fe  Fe549     1.0  0.72916  0.85575  0.25769  1.0000
  H   H4362     1.0  0.75411  0.75815  0.00864  1.0000
  C   C2742     1.0  0.89196  0.77098  0.16560  1.0000
  H   H4363     1.0  0.77994  0.95184  0.14031  1.0000
  H   H4364     1.0  0.76589  0.77208  0.00996  1.0000
  H   H4365     1.0  0.90283  0.77057  0.13979  1.0000
  S   S1100     1.0  0.87838  0.75778  0.16842  1.0000
  H   H4366     1.0  0.69355  0.77703  0.22492  1.0000
  H   H4367     1.0  0.97299  0.82009  0.14582  1.0000
  H   H4368     1.0  0.93112  0.74546  0.12952  1.0000
  H   H4369     1.0  0.88206  0.80287  0.24032  1.0000
  H   H4370     1.0  0.69500  0.81619  0.25750  1.0000
  Fe  Fe550     1.0  0.67823  0.75908  0.19407  1.0000
  H   H4371     1.0  0.86732  0.97152  0.21490  1.0000
  C   C2743     1.0  0.77130  0.95919  0.20657  1.0000
  H   H4372     1.0  0.67651  0.93633  0.12067  1.0000
  N   N272      1.0  0.68372  0.93607  0.14298  1.0000
  H   H4373     1.0  0.66993  0.82508  0.18556  1.0000
  C   C2744     1.0  0.75865  0.97674  0.18403  1.0000
  H   H4374     1.0  0.73088  0.96940  0.10165  1.0000
  C   C2745     1.0  0.97807  0.78705  0.15711  1.0000
  H   H4375     1.0  0.89383  0.82823  0.26229  1.0000
  H   H4376     1.0  0.74815  0.76777  0.02612  1.0000
  C   C2746     1.0  0.76203  0.76802  0.28590  1.0000
  Fe  Fe551     1.0  0.66569  0.79524  0.17868  1.0000
  H   H4377     1.0  0.88741  0.82226  0.23847  1.0000
  H   H4378     1.0  0.80042  0.83049  0.24593  1.0000
  H   H4379     1.0  0.66284  0.81720  0.08710  1.0000
  C   C2747     1.0  0.75852  0.78494  0.28612  1.0000
  H   H4380     1.0  0.67872  0.80488  0.12605  1.0000
  H   H4381     1.0  0.81350  0.93781  0.10520  1.0000
  H   H4382     1.0  0.83038  0.80023  0.24661  1.0000
  S   S1101     1.0  0.72039  0.81327  0.28323  1.0000
  H   H4383     1.0  0.71285  0.77046  0.26513  1.0000
  C   C2748     1.0  0.74147  0.96833  0.13760  1.0000
  H   H4384     1.0  0.68321  0.75112  0.02815  1.0000
  S   S1102     1.0  0.89507  0.74610  0.12280  1.0000
  C   C2749     1.0  0.95377  0.74725  0.13486  1.0000
  C   C2750     1.0  0.94419  0.73990  0.12918  1.0000
  H   H4385     1.0  0.86770  0.81826  0.25097  1.0000
  H   H4386     1.0  0.80722  0.96748  0.09088  1.0000
  C   C2751     1.0  0.73731  0.97484  0.12202  1.0000
  S   S1103     1.0  0.67180  0.81467  0.15545  1.0000
  H   H4387     1.0  0.98610  0.81981  0.12541  1.0000
  S   S1104     1.0  0.66191  0.77130  0.17576  1.0000
  H   H4388     1.0  0.68530  0.84169  0.13258  1.0000
  C   C2752     1.0  0.67816  0.76393  0.03044  1.0000
  H   H4389     1.0  0.91361  0.80700  0.24829  1.0000
  N   N273      1.0  0.70928  0.76650  0.29169  1.0000
  S   S1105     1.0  0.67912  0.83817  0.30197  1.0000
  H   H4390     1.0  0.69766  0.75000  0.28600  1.0000
  C   C2753     1.0  0.77371  0.77857  0.30795  1.0000
  H   H4391     1.0  0.66366  0.79615  0.02152  1.0000
  N   N274      1.0  0.66118  0.77070  0.02721  1.0000
  H   H4392     1.0  0.75198  0.79391  0.27719  1.0000
  H   H4393     1.0  0.93011  0.75583  0.16589  1.0000
  H   H4394     1.0  0.67879  0.91699  0.16510  1.0000
  H   H4395     1.0  0.80192  0.93086  0.12573  1.0000
  C   C2754     1.0  0.77155  0.75640  0.29656  1.0000
  H   H4396     1.0  0.76556  0.75955  0.04687  1.0000
  H   H4397     1.0  0.79977  0.96441  0.18493  1.0000
  H   H4398     1.0  0.79160  0.98227  0.10133  1.0000
  H   H4399     1.0  0.67033  0.77827  0.00082  1.0000
  H   H4400     1.0  0.70961  0.92997  0.14381  1.0000
  H   H4401     1.0  0.81672  0.94321  0.12285  1.0000
  C   C2755     1.0  0.76422  0.79022  0.29725  1.0000
  S   S1106     1.0  0.86378  0.73871  0.10100  1.0000
  C   C2756     1.0  0.75911  0.76206  0.01735  1.0000
  C   C2757     1.0  0.70539  0.79039  0.99169  1.0000
  H   H4402     1.0  0.74945  0.74001  0.04507  1.0000
  H   H4403     1.0  0.69660  0.79210  0.29127  1.0000
  C   C2758     1.0  0.68718  0.93793  0.12474  1.0000
  H   H4404     1.0  0.66558  0.94725  0.16196  1.0000
  H   H4405     1.0  0.69827  0.92848  0.12043  1.0000
  H   H4406     1.0  0.70038  0.95168  0.14136  1.0000
  H   H4407     1.0  0.69261  0.90949  0.14759  1.0000
  N   N275      1.0  0.98871  0.79626  0.14290  1.0000
  H   H4408     1.0  0.96755  0.78467  0.15335  1.0000
  C   C2759     1.0  0.76043  0.73497  0.03593  1.0000
  H   H4409     1.0  0.78036  0.73594  0.00549  1.0000
  H   H4410     1.0  0.78399  0.74329  0.04518  1.0000
  H   H4411     1.0  0.79196  0.75005  0.00676  1.0000
  C   C2760     1.0  0.71876  0.76615  0.30393  1.0000
  H   H4412     1.0  0.90992  0.73863  0.18267  1.0000
  H   H4413     1.0  0.98527  0.77473  0.16261  1.0000
  H   H4414     1.0  0.91634  0.74169  0.07901  1.0000
  H   H4415     1.0  0.79044  0.97794  0.16828  1.0000
  C   C2761     1.0  0.68151  0.80683  0.97991  1.0000
  H   H4416     1.0  0.98570  0.78390  0.12549  1.0000
  H   H4417     1.0  0.90483  0.73738  0.26285  1.0000
  C   C2762     1.0  0.91672  0.73542  0.19293  1.0000
  H   H4418     1.0  0.87440  0.73868  0.27275  1.0000
  H   H4419     1.0  0.93775  0.74023  0.20862  1.0000
  N   N276      1.0  0.93466  0.73544  0.18637  1.0000
  C   C2763     1.0  0.90660  0.73453  0.08095  1.0000
  N   N277      1.0  0.65821  0.81318  0.11375  1.0000
  Fe  Fe552     1.0  0.83715  0.73881  0.27643  1.0000
  H   H4420     1.0  0.92690  0.83425  0.63920  1.0000
  S   S1107     1.0  0.68653  0.75962  0.49051  1.0000
  H   H4421     1.0  0.78269  0.79435  0.62371  1.0000
  S   S1108     1.0  0.89451  0.77618  0.63572  1.0000
  H   H4422     1.0  0.86989  0.76304  0.59939  1.0000
  C   C2764     1.0  0.66093  0.74396  0.57963  1.0000
  C   C2765     1.0  0.81183  0.79366  0.60159  1.0000
  C   C2766     1.0  0.68331  0.78647  0.33606  1.0000
  H   H4423     1.0  0.78867  0.83272  0.59117  1.0000
  H   H4424     1.0  0.81923  0.79666  0.60882  1.0000
  S   S1109     1.0  0.83299  0.75656  0.58290  1.0000
  C   C2767     1.0  0.66861  0.76844  0.58171  1.0000
  Fe  Fe553     1.0  0.71129  0.81196  0.58770  1.0000
  S   S1110     1.0  0.71326  0.78766  0.60629  1.0000
  S   S1111     1.0  0.69167  0.81784  0.57253  1.0000
  Fe  Fe554     1.0  0.73863  0.82194  0.59760  1.0000
  S   S1112     1.0  0.74321  0.79799  0.61634  1.0000
  S   S1113     1.0  0.75325  0.84165  0.59426  1.0000
  Fe  Fe555     1.0  0.74074  0.78584  0.59728  1.0000
  S   S1114     1.0  0.75628  0.76104  0.59303  1.0000
  Fe  Fe556     1.0  0.71538  0.80218  0.62336  1.0000
  H   H4425     1.0  0.67387  0.81465  0.35448  1.0000
  S   S1115     1.0  0.73892  0.80934  0.57746  1.0000
  S   S1116     1.0  0.71077  0.82698  0.60584  1.0000
  H   H4426     1.0  0.89799  0.76303  0.60155  1.0000
  C   C2768     1.0  0.70472  0.88251  0.63804  1.0000
  C   C2769     1.0  0.87531  0.75256  0.59284  1.0000
  H   H4427     1.0  0.89184  0.73811  0.56727  1.0000
  H   H4428     1.0  0.70339  0.89562  0.63080  1.0000
  C   C2770     1.0  0.67042  0.81867  0.36652  1.0000
  Fe  Fe557     1.0  0.68255  0.76256  0.51676  1.0000
  H   H4429     1.0  0.95341  0.81323  0.64205  1.0000
  N   N278      1.0  0.65826  0.80958  0.37892  1.0000
  H   H4430     1.0  0.70874  0.78763  0.33394  1.0000
  H   H4431     1.0  0.87466  0.74076  0.60235  1.0000
  N   N279      1.0  0.79621  0.80633  0.60034  1.0000
  H   H4432     1.0  0.80925  0.78107  0.60785  1.0000
  H   H4433     1.0  0.96428  0.82690  0.62533  1.0000
  C   C2771     1.0  0.75370  0.86131  0.63895  1.0000
  C   C2772     1.0  0.95710  0.85204  0.64145  1.0000
  H   H4434     1.0  0.78333  0.78990  0.59635  1.0000
  H   H4435     1.0  0.88510  0.76919  0.56165  1.0000
  C   C2773     1.0  0.68032  0.87934  0.63100  1.0000
  H   H4436     1.0  0.69617  0.84688  0.63546  1.0000
  C   C2774     1.0  0.70763  0.87216  0.61360  1.0000
  C   C2775     1.0  0.67741  0.82360  0.64113  1.0000
  H   H4437     1.0  0.80841  0.74630  0.61146  1.0000
  C   C2776     1.0  0.89284  0.76835  0.57055  1.0000
  H   H4438     1.0  0.75743  0.73414  0.52635  1.0000
  H   H4439     1.0  0.86602  0.76680  0.63317  1.0000
  H   H4440     1.0  0.74072  0.74622  0.51611  1.0000
  C   C2777     1.0  0.69539  0.81038  0.32079  1.0000
  Fe  Fe558     1.0  0.65870  0.76825  0.49370  1.0000
  C   C2778     1.0  0.78572  0.80673  0.61720  1.0000
  H   H4441     1.0  0.80804  0.82303  0.57953  1.0000
  H   H4442     1.0  0.72117  0.86688  0.61307  1.0000
  C   C2779     1.0  0.75412  0.84839  0.61174  1.0000
  C   C2780     1.0  0.74616  0.84158  0.62781  1.0000
  C   C2781     1.0  0.78707  0.80201  0.59031  1.0000
  C   C2782     1.0  0.68032  0.81882  0.31607  1.0000
  C   C2783     1.0  0.76241  0.86752  0.62300  1.0000
  C   C2784     1.0  0.76254  0.86113  0.60943  1.0000
  H   H4443     1.0  0.73986  0.83157  0.62977  1.0000
  N   N280      1.0  0.89265  0.75288  0.58361  1.0000
  H   H4444     1.0  0.76845  0.87775  0.62098  1.0000
  H   H4445     1.0  0.76881  0.86642  0.59704  1.0000
  H   H4446     1.0  0.71139  0.76330  0.31689  1.0000
  H   H4447     1.0  0.90327  0.74071  0.60505  1.0000
  H   H4448     1.0  0.70592  0.81635  0.31680  1.0000
  H   H4449     1.0  0.66801  0.76609  0.55122  1.0000
  H   H4450     1.0  0.71801  0.73331  0.51617  1.0000
  H   H4451     1.0  0.70318  0.86445  0.60783  1.0000
  H   H4452     1.0  0.80702  0.82662  0.59959  1.0000
  H   H4453     1.0  0.86109  0.73992  0.63251  1.0000
  C   C2785     1.0  0.89059  0.75643  0.63811  1.0000
  H   H4454     1.0  0.88778  0.77959  0.57605  1.0000
  H   H4455     1.0  0.68214  0.81646  0.37088  1.0000
  H   H4456     1.0  0.67826  0.89235  0.62353  1.0000
  H   H4457     1.0  0.71824  0.87754  0.63804  1.0000
  H   H4458     1.0  0.78556  0.73344  0.34584  1.0000
  H   H4459     1.0  0.67330  0.73989  0.57159  1.0000
  C   C2786     1.0  0.81143  0.75924  0.58571  1.0000
  C   C2787     1.0  0.80337  0.76738  0.57256  1.0000
  C   C2788     1.0  0.78625  0.76821  0.57481  1.0000
  C   C2789     1.0  0.77729  0.76103  0.59025  1.0000
  C   C2790     1.0  0.78527  0.75336  0.60348  1.0000
  C   C2791     1.0  0.80232  0.75241  0.60119  1.0000
  H   H4460     1.0  0.81043  0.77253  0.56053  1.0000
  H   H4461     1.0  0.78004  0.77413  0.56456  1.0000
  H   H4462     1.0  0.77831  0.74805  0.61549  1.0000
  H   H4463     1.0  0.70646  0.88494  0.60559  1.0000
  C   C2792     1.0  0.69899  0.78092  0.53975  1.0000
  C   C2793     1.0  0.68492  0.79399  0.54055  1.0000
  C   C2794     1.0  0.68271  0.80528  0.55066  1.0000
  C   C2795     1.0  0.69451  0.80352  0.56004  1.0000
  C   C2796     1.0  0.70843  0.79031  0.55937  1.0000
  C   C2797     1.0  0.71070  0.77914  0.54919  1.0000
  H   H4464     1.0  0.67599  0.79566  0.53307  1.0000
  H   H4465     1.0  0.67198  0.81556  0.55103  1.0000
  H   H4466     1.0  0.71762  0.78886  0.56650  1.0000
  H   H4467     1.0  0.72166  0.76914  0.54858  1.0000
  H   H4468     1.0  0.86709  0.75346  0.58439  1.0000
  C   C2798     1.0  0.87552  0.75556  0.63524  1.0000
  H   H4469     1.0  0.85911  0.83499  0.63584  1.0000
  C   C2799     1.0  0.80020  0.82288  0.59230  1.0000
  S   S1117     1.0  0.68601  0.76577  0.34732  1.0000
  C   C2800     1.0  0.69693  0.79419  0.33063  1.0000
  C   C2801     1.0  0.95962  0.82392  0.63905  1.0000
  C   C2802     1.0  0.70015  0.85510  0.64098  1.0000
  H   H4470     1.0  0.66526  0.83235  0.36384  1.0000
  N   N281      1.0  0.69821  0.87230  0.63089  1.0000
  C   C2803     1.0  0.74388  0.73603  0.52685  1.0000
  S   S1118     1.0  0.70256  0.76653  0.52715  1.0000
  H   H4471     1.0  0.71328  0.84952  0.64184  1.0000
  H   H4472     1.0  0.91607  0.75282  0.58863  1.0000
  C   C2804     1.0  0.66563  0.79152  0.38193  1.0000
  C   C2805     1.0  0.74581  0.84815  0.64133  1.0000
  H   H4473     1.0  0.77829  0.78265  0.31643  1.0000
  H   H4474     1.0  0.68026  0.81921  0.62975  1.0000
  H   H4475     1.0  0.91251  0.73808  0.56870  1.0000
  C   C2806     1.0  0.89946  0.73824  0.57590  1.0000
  C   C2807     1.0  0.66800  0.79512  0.33195  1.0000
  H   H4476     1.0  0.66851  0.78670  0.37043  1.0000
  C   C2808     1.0  0.66650  0.81133  0.32199  1.0000
  H   H4477     1.0  0.77546  0.81153  0.58865  1.0000
  C   C2809     1.0  0.90295  0.75235  0.59519  1.0000
  H   H4478     1.0  0.73681  0.74065  0.53830  1.0000
  H   H4479     1.0  0.81986  0.79265  0.58906  1.0000
  H   H4480     1.0  0.77366  0.81583  0.61663  1.0000
  H   H4481     1.0  0.91466  0.74252  0.64267  1.0000
  H   H4482     1.0  0.79199  0.81040  0.62503  1.0000
  H   H4483     1.0  0.79475  0.80106  0.57766  1.0000
  H   H4484     1.0  0.90573  0.76901  0.56327  1.0000
  S   S1119     1.0  0.67851  0.73671  0.52816  1.0000
  H   H4485     1.0  0.93804  0.84817  0.62303  1.0000
  S   S1120     1.0  0.83253  0.86346  0.63904  1.0000
  H   H4486     1.0  0.67742  0.78857  0.38633  1.0000
  H   H4487     1.0  0.67507  0.87180  0.62579  1.0000
  Fe  Fe559     1.0  0.66245  0.75793  0.36310  1.0000
  Fe  Fe560     1.0  0.68061  0.73442  0.50225  1.0000
  H   H4488     1.0  0.78493  0.75282  0.31571  1.0000
  C   C2810     1.0  0.90285  0.74186  0.64077  1.0000
  H   H4489     1.0  0.75832  0.73534  0.32934  1.0000
  C   C2811     1.0  0.87276  0.74031  0.63471  1.0000
  H   H4490     1.0  0.66548  0.78228  0.57984  1.0000
  H   H4491     1.0  0.96206  0.85594  0.62784  1.0000
  H   H4492     1.0  0.66513  0.81262  0.40010  1.0000
  H   H4493     1.0  0.68130  0.76505  0.57389  1.0000
  C   C2812     1.0  0.93389  0.84424  0.63675  1.0000
  S   S1121     1.0  0.66140  0.74772  0.39034  1.0000
  H   H4494     1.0  0.66939  0.76315  0.59496  1.0000
  H   H4495     1.0  0.66159  0.73788  0.59278  1.0000
  H   H4496     1.0  0.92472  0.85494  0.64136  1.0000
  C   C2813     1.0  0.86190  0.84179  0.64334  1.0000
  H   H4497     1.0  0.75563  0.74198  0.34823  1.0000
  H   H4498     1.0  0.72006  0.97195  0.76897  1.0000
  H   H4499     1.0  0.97703  0.80744  0.69040  1.0000
  H   H4500     1.0  0.75612  0.74201  0.93583  1.0000
  C   C2814     1.0  0.97961  0.78438  0.66270  1.0000
  H   H4501     1.0  0.71292  0.85701  0.71193  1.0000
  H   H4502     1.0  0.69183  0.94917  0.80212  1.0000
  H   H4503     1.0  0.66819  0.88546  0.71689  1.0000
  Fe  Fe561     1.0  0.68445  0.92607  0.78072  1.0000
  S   S1122     1.0  0.69987  0.90891  0.79864  1.0000
  S   S1123     1.0  0.67577  0.95429  0.77452  1.0000
  S   S1124     1.0  0.70190  0.87865  0.77973  1.0000
  Fe  Fe562     1.0  0.68484  0.89005  0.80083  1.0000
  Fe  Fe563     1.0  0.90764  0.80904  0.66806  1.0000
  Fe  Fe564     1.0  0.71567  0.89874  0.77642  1.0000
  S   S1125     1.0  0.74308  0.89841  0.76908  1.0000
  S   S1126     1.0  0.70126  0.91690  0.75850  1.0000
  Fe  Fe565     1.0  0.69697  0.79693  0.89226  1.0000
  S   S1127     1.0  0.71101  0.81398  0.87126  1.0000
  Fe  Fe566     1.0  0.69745  0.76190  0.91342  1.0000
  S   S1128     1.0  0.67145  0.80663  0.90621  1.0000
  H   H4504     1.0  0.73916  0.84320  0.65365  1.0000
  Fe  Fe567     1.0  0.68066  0.79155  0.92933  1.0000
  C   C2815     1.0  0.67958  0.84281  0.92214  1.0000
  S   S1129     1.0  0.69052  0.77453  0.88883  1.0000
  S   S1130     1.0  0.70679  0.78329  0.91540  1.0000
  S   S1131     1.0  0.80726  0.88730  0.67625  1.0000
  H   H4505     1.0  0.87223  0.86621  0.66989  1.0000
  Fe  Fe568     1.0  0.78798  0.87204  0.68948  1.0000
  S   S1132     1.0  0.78543  0.85633  0.71550  1.0000
  Fe  Fe569     1.0  0.90928  0.77423  0.68968  1.0000
  S   S1133     1.0  0.89928  0.76188  0.71603  1.0000
  N   N282      1.0  0.94812  0.83846  0.64512  1.0000
  S   S1134     1.0  0.92489  0.79303  0.68464  1.0000
  H   H4506     1.0  0.70949  0.74746  0.69895  1.0000
  S   S1135     1.0  0.67465  0.80400  0.95134  1.0000
  S   S1136     1.0  0.89785  0.83632  0.66812  1.0000
  H   H4507     1.0  0.67337  0.83295  0.92202  1.0000
  C   C2816     1.0  0.81277  0.96805  0.66512  1.0000
  C   C2817     1.0  0.70595  0.82954  0.90713  1.0000
  C   C2818     1.0  0.66030  0.84263  0.65868  1.0000
  H   H4508     1.0  0.75199  0.86957  0.70972  1.0000
  H   H4509     1.0  0.83391  0.82356  0.72853  1.0000
  H   H4510     1.0  0.95221  0.82926  0.67007  1.0000
  Fe  Fe570     1.0  0.90721  0.78044  0.65362  1.0000
  H   H4511     1.0  0.86042  0.82417  0.70682  1.0000
  S   S1137     1.0  0.70333  0.79861  0.65037  1.0000
  S   S1138     1.0  0.67182  0.76912  0.92897  1.0000
  C   C2819     1.0  0.73090  0.93897  0.78025  1.0000
  C   C2820     1.0  0.67435  0.84673  0.84975  1.0000
  C   C2821     1.0  0.69650  0.97312  0.80109  1.0000
  S   S1139     1.0  0.92288  0.79975  0.64532  1.0000
  C   C2822     1.0  0.66952  0.83440  0.67088  1.0000
  C   C2823     1.0  0.65958  0.88257  0.72865  1.0000
  H   H4512     1.0  0.98738  0.76007  0.72525  1.0000
  S   S1140     1.0  0.75038  0.87120  0.65559  1.0000
  H   H4513     1.0  0.76033  0.74859  0.87850  1.0000
  C   C2824     1.0  0.74242  0.86205  0.71256  1.0000
  H   H4514     1.0  0.88475  0.82417  0.64710  1.0000
  H   H4515     1.0  0.74295  0.85846  0.70083  1.0000
  H   H4516     1.0  0.66088  0.84925  0.85191  1.0000
  C   C2825     1.0  0.78639  0.95914  0.67668  1.0000
  C   C2826     1.0  0.70130  0.78600  0.96609  1.0000
  C   C2827     1.0  0.71336  0.86098  0.72311  1.0000
  H   H4517     1.0  0.75170  0.94799  0.73995  1.0000
  N   N283      1.0  0.69251  0.77111  0.70011  1.0000
  Fe  Fe571     1.0  0.78605  0.90634  0.66654  1.0000
  H   H4518     1.0  0.70546  0.77947  0.95601  1.0000
  H   H4519     1.0  0.76155  0.94521  0.77286  1.0000
  C   C2828     1.0  0.66173  0.94011  0.74303  1.0000
  H   H4520     1.0  0.67701  0.86192  0.89161  1.0000
  C   C2829     1.0  0.75424  0.88676  0.75402  1.0000
  C   C2830     1.0  0.75604  0.86944  0.75780  1.0000
  C   C2831     1.0  0.76586  0.86010  0.74600  1.0000
  C   C2832     1.0  0.77359  0.86811  0.73029  1.0000
  C   C2833     1.0  0.77148  0.88546  0.72638  1.0000
  C   C2834     1.0  0.76202  0.89474  0.73832  1.0000
  H   H4521     1.0  0.75021  0.86321  0.76998  1.0000
  H   H4522     1.0  0.76746  0.84669  0.74906  1.0000
  H   H4523     1.0  0.77744  0.89172  0.71427  1.0000
  H   H4524     1.0  0.76077  0.90811  0.73536  1.0000
  C   C2835     1.0  0.68321  0.85719  0.83670  1.0000
  C   C2836     1.0  0.70598  0.78038  0.69566  1.0000
  C   C2837     1.0  0.68277  0.83316  0.86013  1.0000
  C   C2838     1.0  0.70014  0.83009  0.85767  1.0000
  C   C2839     1.0  0.70902  0.84044  0.84452  1.0000
  C   C2840     1.0  0.70061  0.85390  0.83400  1.0000
  H   H4525     1.0  0.72246  0.83812  0.84253  1.0000
  H   H4526     1.0  0.70755  0.86189  0.82398  1.0000
  H   H4527     1.0  0.68050  0.84032  0.89133  1.0000
  C   C2841     1.0  0.70098  0.85852  0.90789  1.0000
  H   H4528     1.0  0.67646  0.76022  0.72222  1.0000
  H   H4529     1.0  0.69805  0.88272  0.65115  1.0000
  C   C2842     1.0  0.74600  0.94021  0.75177  1.0000
  H   H4530     1.0  0.69174  0.87057  0.90801  1.0000
  H   H4531     1.0  0.71117  0.82532  0.91853  1.0000
  C   C2843     1.0  0.90769  0.74046  0.72097  1.0000
  H   H4532     1.0  0.95911  0.79671  0.67921  1.0000
  C   C2844     1.0  0.79669  0.97009  0.67519  1.0000
  C   C2845     1.0  0.68652  0.85004  0.89208  1.0000
  C   C2846     1.0  0.73755  0.74276  0.89500  1.0000
  N   N284      1.0  0.72569  0.87152  0.71906  1.0000
  H   H4533     1.0  0.70844  0.89393  0.71080  1.0000
  H   H4534     1.0  0.68887  0.74846  0.69669  1.0000
  S   S1141     1.0  0.96713  0.77741  0.65376  1.0000
  H   H4535     1.0  0.75594  0.92932  0.75551  1.0000
  H   H4536     1.0  0.70621  0.85526  0.91923  1.0000
  C   C2847     1.0  0.72591  0.87647  0.73423  1.0000
  H   H4537     1.0  0.81307  0.93315  0.65259  1.0000
  H   H4538     1.0  0.93289  0.84422  0.66829  1.0000
  H   H4539     1.0  0.73095  0.75565  0.89378  1.0000
  H   H4540     1.0  0.88392  0.73951  0.69280  1.0000
  H   H4541     1.0  0.71523  0.96017  0.75718  1.0000
  H   H4542     1.0  0.85426  0.81088  0.69761  1.0000
  H   H4543     1.0  0.72556  0.94562  0.79065  1.0000
  H   H4544     1.0  0.83213  0.84007  0.67702  1.0000
  H   H4545     1.0  0.73082  0.97251  0.74774  1.0000
  C   C2848     1.0  0.69081  0.96205  0.79551  1.0000
  C   C2849     1.0  0.68340  0.96778  0.78173  1.0000
  H   H4546     1.0  0.81421  0.83034  0.72240  1.0000
  H   H4547     1.0  0.67578  0.82527  0.87017  1.0000
  S   S1142     1.0  0.76662  0.89153  0.68144  1.0000
  H   H4548     1.0  0.92773  0.74067  0.69929  1.0000
  H   H4549     1.0  0.68174  0.78425  0.67888  1.0000
  C   C2850     1.0  0.85084  0.85647  0.64686  1.0000
  S   S1143     1.0  0.89066  0.79125  0.67513  1.0000
  C   C2851     1.0  0.67830  0.78153  0.69270  1.0000
  H   H4550     1.0  0.66617  0.95186  0.74052  1.0000
  H   H4551     1.0  0.71349  0.88356  0.73956  1.0000
  Fe  Fe572     1.0  0.68560  0.89805  0.76388  1.0000
  S   S1144     1.0  0.79193  0.85918  0.66887  1.0000
  C   C2852     1.0  0.98266  0.80001  0.68109  1.0000
  C   C2853     1.0  0.65995  0.80115  0.82627  1.0000
  N   N285      1.0  0.69325  0.84524  0.90731  1.0000
  H   H4552     1.0  0.65798  0.81456  0.81990  1.0000
  S   S1145     1.0  0.67862  0.89513  0.74125  1.0000
  S   S1146     1.0  0.92462  0.76185  0.66866  1.0000
  H   H4553     1.0  0.82742  0.82024  0.68827  1.0000
  C   C2854     1.0  0.85456  0.86526  0.65649  1.0000
  H   H4554     1.0  0.81330  0.83913  0.69269  1.0000
  C   C2855     1.0  0.66852  0.78025  0.84957  1.0000
  H   H4555     1.0  0.79203  0.98024  0.68159  1.0000
  H   H4556     1.0  0.70057  0.86776  0.72801  1.0000
  Fe  Fe573     1.0  0.93899  0.78218  0.66244  1.0000
  H   H4557     1.0  0.84617  0.87674  0.65904  1.0000
  Fe  Fe574     1.0  0.77179  0.87967  0.65966  1.0000
  H   H4558     1.0  0.66980  0.85441  0.92283  1.0000
  H   H4559     1.0  0.66845  0.93087  0.75221  1.0000
  H   H4560     1.0  0.68662  0.80148  0.84931  1.0000
  Fe  Fe575     1.0  0.66549  0.78324  0.90438  1.0000
  H   H4561     1.0  0.69007  0.81488  0.67754  1.0000
  H   H4562     1.0  0.96787  0.84807  0.64767  1.0000
  H   H4563     1.0  0.71055  0.78373  0.68194  1.0000
  H   H4564     1.0  0.71636  0.84957  0.73281  1.0000
  C   C2856     1.0  0.75165  0.95579  0.76851  1.0000
  H   H4565     1.0  0.70054  0.81937  0.90648  1.0000
  H   H4566     1.0  0.68230  0.77826  0.72365  1.0000
  H   H4567     1.0  0.93506  0.82342  0.66643  1.0000
  C   C2857     1.0  0.68694  0.76685  0.71841  1.0000
  H   H4568     1.0  0.66903  0.79394  0.81732  1.0000
  H   H4569     1.0  0.71135  0.86061  0.89685  1.0000
  C   C2858     1.0  0.79221  0.94572  0.66860  1.0000
  H   H4570     1.0  0.69720  0.75875  0.72448  1.0000
  H   H4571     1.0  0.73497  0.88458  0.73154  1.0000
  H   H4572     1.0  0.68424  0.83876  0.93388  1.0000
  H   H4573     1.0  0.71646  0.83082  0.89607  1.0000
  C   C2859     1.0  0.80848  0.94335  0.65899  1.0000
  N   N286      1.0  0.83555  0.83282  0.70223  1.0000
  C   C2860     1.0  0.82672  0.83304  0.68950  1.0000
  C   C2861     1.0  0.85316  0.82410  0.69786  1.0000
  C   C2862     1.0  0.82750  0.82400  0.71866  1.0000
  C   C2863     1.0  0.83476  0.85013  0.70290  1.0000
  H   H4574     1.0  0.68004  0.81748  0.83238  1.0000
  C   C2864     1.0  0.86936  0.85937  0.66249  1.0000
  C   C2865     1.0  0.68660  0.81538  0.65344  1.0000
  H   H4575     1.0  0.75776  0.96395  0.75723  1.0000
  H   H4576     1.0  0.85942  0.83012  0.68533  1.0000
  H   H4577     1.0  0.82769  0.81095  0.71857  1.0000
  H   H4578     1.0  0.72063  0.93462  0.77813  1.0000
  H   H4579     1.0  0.71685  0.77290  0.70112  1.0000
  H   H4580     1.0  0.82160  0.85702  0.70619  1.0000
  H   H4581     1.0  0.84060  0.85719  0.69068  1.0000
  H   H4582     1.0  0.84134  0.85051  0.71230  1.0000
  H   H4583     1.0  0.69267  0.85466  0.65392  1.0000
  C   C2866     1.0  0.72561  0.96423  0.75944  1.0000
  H   H4584     1.0  0.73006  0.89497  0.70324  1.0000
  C   C2867     1.0  0.68169  0.80385  0.83789  1.0000
  H   H4585     1.0  0.66132  0.75073  0.89876  1.0000
  C   C2868     1.0  0.72113  0.88662  0.70635  1.0000
  H   H4586     1.0  0.83100  0.95295  0.64922  1.0000
  C   C2869     1.0  0.88024  0.84448  0.65922  1.0000
  H   H4587     1.0  0.67378  0.79369  0.69657  1.0000
  H   H4588     1.0  0.77382  0.96106  0.68414  1.0000
  C   C2870     1.0  0.68271  0.82087  0.66823  1.0000
  H   H4589     1.0  0.72124  0.88341  0.69455  1.0000
  H   H4590     1.0  0.66681  0.83873  0.68221  1.0000
  C   C2871     1.0  0.97247  0.79393  0.67479  1.0000
  C   C2872     1.0  0.75416  0.73875  0.88641  1.0000
  H   H4591     1.0  0.70312  0.75859  0.67981  1.0000
  H   H4592     1.0  0.67189  0.77769  0.86185  1.0000
  C   C2873     1.0  0.69878  0.75569  0.69363  1.0000
  H   H4593     1.0  0.72948  0.86544  0.74408  1.0000
  C   C2874     1.0  0.81861  0.95460  0.65709  1.0000
  S   S1147     1.0  0.71037  0.73494  0.91899  1.0000
  S   S1148     1.0  0.67203  0.87445  0.82442  1.0000
  N   N287      1.0  0.73855  0.94980  0.76498  1.0000
  H   H4594     1.0  0.70159  0.79219  0.70021  1.0000
  C   C2875     1.0  0.68671  0.79845  0.96672  1.0000
  S   S1149     1.0  0.66767  0.90830  0.78499  1.0000
  S   S1150     1.0  0.77827  0.93317  0.66980  1.0000
  N   N288      1.0  0.66584  0.79824  0.84176  1.0000
  H   H4595     1.0  0.74633  0.85053  0.72176  1.0000
  H   H4596     1.0  0.97068  0.81942  0.64485  1.0000
  H   H4597     1.0  0.70194  0.96864  0.81195  1.0000
  H   H4598     1.0  0.69657  0.85161  0.88062  1.0000
  Fe  Fe576     1.0  0.80925  0.87626  0.65458  1.0000
  H   H4599     1.0  0.66569  0.93528  0.73141  1.0000
  C   C2876     1.0  0.87645  0.83568  0.64968  1.0000
  C   C2877     1.0  0.94186  0.83365  0.66328  1.0000
  H   H4600     1.0  0.69148  0.79725  0.82890  1.0000
  H   H4601     1.0  0.74017  0.92762  0.78447  1.0000
  H   H4602     1.0  0.94876  0.86321  0.64586  1.0000
  H   H4603     1.0  0.74639  0.96318  0.77837  1.0000
  C   C2878     1.0  0.66189  0.88580  0.74299  1.0000
  H   H4604     1.0  0.73649  0.93517  0.74912  1.0000
  H   H4605     1.0  0.66751  0.77535  0.69662  1.0000
  H   H4606     1.0  0.67862  0.77277  0.84157  1.0000
  H   H4607     1.0  0.88947  0.73619  0.74393  1.0000
  C   C2879     1.0  0.92120  0.73304  0.70997  1.0000
  S   S1151     1.0  0.82525  0.98294  0.66088  1.0000
  S   S1152     1.0  0.78927  0.89631  0.64369  1.0000
  H   H4608     1.0  0.67281  0.87948  0.64390  1.0000
  C   C2880     1.0  0.66433  0.83739  0.64368  1.0000
