data_image0
_chemical_formula_structural       CHSH3C2FeCH4CHSFeS2FeSFeNSHFeS2FeS2FeS2FeSFeS3FeS2CSHC2HS2CSHSHCFeSCFeH2FeS2FeS2FeSFeS3FeS2HSFeSFeS3C6H4C4SCH2C2H2C6H8SC2HC6H4CHC2H2C6H4C2H2CNC4H3C5NH4C6H4CHFeC2SH2CH2CHCFeH6CHSH5CHCH3FeHC6SH4FeC2SFeHNC4H12NC4H12SCH2NHCSC3HCH4C3HC2HSH2NC4HCH2FeH2CHSH2NCSC2H2SHC2H3C2H4NCFeHCHFe2CH2NCHSHCHSCHCFeHCH2SHCH2SH2CH2CH7CH3CSH5CH3CH3SHSCH5SCSCHNHNH2CHSH2SC2SC2H2SHSC2HCHCHCFeCH2NCHCH2CH5CS2HCHNH3C3HC2H9C2H2CHCH5FeCH2SH2SH2CFeSHC3H5C2H7CH4CHFeNCSH2SCSCH3CNHCH5FeH2CHFeH2CFeH6S2HFeSHFeS2FeSFeS3CFeS2FeS2FeSFeS3FeSH2SHFeSFeSHCSFeS2FeS2FeSFeS2C6H4C6H6CH2FeCH2C6H4C6H2NHC2H4CH2NHC6H4C3H2CH4C5NH4SH2NC2H2CH4C4H3C3HC3HSCH3CHCH6C2HCHCSCHCH2SNCHCH2FeHCH5CNC4H13CH3C2NC4H12SCH5CH2NH6C3HCH2FeHCH2C3H3CH5N2HNH2SHCH2CSH2CS3HCFe2HSHCH2FeS2Fe3S3FeSCFeSHFeSFeS2HFeH3CHCH2FeHSHFe2S2FeS2FeSFeS3HSCH2C6H3C6H4C6H4CHC5H3C6H4C6H4CHSH2CHNHSH5C2NC3H2CHC3HC2H2NH2CHCHCHNC4H14SCH3CH4FeH6NCHC2HC4H4CSH2SHCSHSH2CHNH3SHC5FeH3FeSHSCNC4H12SH2CH3CH2SCH2CH3CSHCH3C3SH4C2HCHCFeCHCH6S2H2NHCS2CHCHNHFeC3S2HCFeCHCHC2HCNHCHSH7CH2S2FeH6SHCH2CHCH4CHSH6CHSH3CHCHFeS2FeS2FeSFeS3C2H2CSHFeSFeS2FeSFeS3FeS2FeS2FeSFeS3FeHCFeS2FeHFeS3HFeS2FeS2FeSFeS3NH5CH2CSH2SH2FeC3H2C7HCH2C3SC2H6FeC4SH6SC6H4C6H4C6H4C6H5CHCNC4H4C8H2FeH3C3H2C6H4C6SH4C2H2FeH3SCHC4HFeHNC4H15C5NCSHCFeC2NC2H2SH3SCSHNC2HNC4H12NC4H13NC4H13C2H5SC2H2CHFeHNHCH2CH3CHCHSCHCH2CSFeH2CHSHCHSH3NC4H3CHCH6CHSNHNH2NCHCHNC2H5CH3CH2CH3SH4CHSC2H3CSHC2FeH2CH2FeSHSCSH2FeCS2C2S2H2FeCH3CH2C2H2C2HFeH3CHC2HNHFeSHC2NH2C2FeH6FeH2CSH4SHSH2CH5CH9CNH5FeNCH3CH8SH3CHCFeHSH5NFeHS2FeS2HCH3FeSHFeSHFeS2FeSFeS3HSH4SFeSH3SHFeS2Fe2S4C3H2C6H4C6H4C3HCNC3H2SCHNC7H4CHCHC2SC6H4SH5CHCH2CH3SHNCHCNCH4CHCHNC4H12NCH2C2H2CH6SHCSHC2HSHFe2C2H13C2HSH2CFeH3CHNHFeC2HCH2NHS2CH3C2HC3H3C2HCFeH4NH2C3H4CH6CH3C2SHFeHCHFeHCFeCSH2CHNC2HFe2S2HCHFeSFeCSHFeS2FeS2FeSFeS3H2C2HCH3S2CFeS2FeCSFeSFeHS2H3SHFeS2FeSH2SC2H3C2HNH2C2H4C6H4CH2SHFeH3C3H2FeC9H5SC4NH5C8H6C4HC7H4CH3SH3CH11S2H5CSHSFeH2CHNC2HC2H9CHSH3FeH6CH2NCHCH2SH2CHCH4NCHCHCNCSH4CNC3H3SH4NH5CFeHC2SH3C3FeH7CHNHCHCH2FeS2FeSHFeSFeS3H3SH2FeS2FeS2FeSFeS3FeS3CSHSFeHSFeCSHC2S2FeS2FeS2FeHFeS4H2CH2FeC2HCH2NC2H5SH4C6H5C6H4SFeC6NH5SH2SC2HC7H4CH4CH4C6H4C8H3C4H3C2HCH2CHNC4H12NC4H12NH5CHCHCH3CNC4H12CHCHNCHCH4CFeCHC4HC2SNC4H12NFeSH2SH2CH3CH5FeHC3HSCNHSCH2NCHC2H3CH2CH4C3H4SCSHSCHCH2SHC2H2CFeCSHFeC2SNCNH2CH3FeC2H2CHSCSH2CHSH2FeC2H2CH6C2HC2HSH3C2H4CHFeH3CHCNSH3C2H2SCHSFeHC2HC2H2CH3CSC2H2NHC2HCH2FeSFeS2FeSFeS3FeS2FeS2FeSFeHS2FeS2FeS2FeSFeHS2FeS2FeSHFeHSHSFeS2FeS2FeS2HSFeCHFeSCSCFeSFeSFeSCSHSHFeS2CSHSHCFeS2FeS2FeSFeS3H2C6H4C2H2C6H4C3H2SHC4FeH2C4H2C6H5C6H4C2H2C4SCH2C8H5FeH2SHSCH2C6HCSHC6H4C6H4C6H4C3H2C2NC3H4CH4NCHC3H3NH5C2NC4H12SH2SHSCNH6C2FeH2CFeHNC4H15NH2CFeCHC2H2NC3H7NC4H12NC4H12NC4H11SHSHCSFeH4FeCSH2CH2C2H3SC2HSCSFeH5SNC2HSNH4C3HSHCFeH2CHCH3SC3H3Fe2C5H2SNH9C2H4CHFeSCHCH2CH4C3H2NFeH2CH2C2H2CH2CNH2C2HFeCNHS2CHSNH4NC3HC2HS2H3CFeH4CH2FeCHCHC2H8CHCHNCSC2H3FeCH3SC2NFeH4CHC5HSH3CH2SH3CHCHSCSH2SCHSC3H2CFeHC3FeH2CH6SHCSH4CH2C2HCH2S2CFeCH2CSHFeH2CFeHCH4C2HCHCH8CH5C2H3CH2CH3CH6CHS3H4NSHCNCH6C2H4CH3SH2CSHSNH3CH2CH3SHC2HCH3CFeHSFeS2FeHFeS3C2HNH3FeS2FeS2FeSFeS3HSHSH4SHCHSC6H4C5HCH3C6H5C2HC2H2SCHCH2CHCFeH3N2HC4H5C2SHCHNH6C5HNHCH7CH4C2HC2H6C2HNCH5SH2CHC4SH7NFeS2FeS2FeSFeS3FeS2FeS3FeS2FeS2FeSFeS3H2SC2FeHSC2HSCFeS2FeSCFeSNHSHFeS2FeS2FeSFeS3FeH9C3H3C2H2C2H4CH2C7H6C6H4CFeHC7H4C6H4C3SH2C8H4C6H4C6H6C2H2FeH2CSHC4HCH2CHCHCH4CH2CSH2CH2C2HSNC2H2SH4NC4H12CH2CHCH2FeSHCHCH4C2HC2H3CH3C3HNC4H12CH2CNCHCH2C2FeCH3NC4H12SCFeC2H3FeH2CH4C2H2C2HNCHC2H2C2SNCH3CHCHFeSHSHCHC2HSHSHSFeH2SH2C2H2CSHSHNCH2FeHCH2CHCHCH6CHC2H3FeH3CHNHNCS2HC2S2NC2H8CHSFeSH2CH2CHCH2SCHSH13SH2CH2CH2CH4C2H2CH3NHSC2HCSCNH2CFeHSH2FeSH2SHFeS2HSFeSFeS3HCFeSNFeSHFeSFeS3HNCFeS2FeSCSCFeS2FeS2FeSFeS3FeS2FeS2FeSFeS3FeSHFeS2FeSHS2C2SHCHCH2CFeS2H2NC2NCH2SCH2Fe2C6H4C6H4C6H4C6H4C3NHCH2C8H4C6H7C2H4SH6C4H5CHC6H4C6H4C6H5C6H6NH4C2H5FeH4C2HNFeCH3NHCHCHCSHCNC4H12NC4H6CH2CH2CHNH3CSH2CNH7SH2CH3SCNC2FeH4CH3SH2NC4H12CH3CH3CNCHC3H2C3HCH2NH3CSH2SH2CH4CHC3FeCH2C5HC2FeH2CH3CS5H6FeNHCHSCH3CH3CFeCHCH2CH3CHC3HCHCH3CHCH15SHCH2CS2H8SFeHCHCH2NHCHSH4CHCH3CH4CH2SH2CFeSH2CFeSHC2SCSCH3CH4FeS2FeHCHSCSHCHFe2NSFeHFeS2HSCHCFeSFeSNHS2CFeSHSCHC2FeSHC6H4SHCSH3SCHSHC2H3SCHC2HC3NSFeCSHNHC2H2C3HCH5SCNC4H19CH2SCHCHC2H2CH3C2HCH3C3NCHFeHCH3FeCH2CH7CHCH2C2H2NHCH5CHC2HCFeSHFeS2FeSFeS3FeS2FeS2FeSFeHS3C2FeH3FeSHSH2SNCHNFeHFeS2FeS2FeSFeS3HCH2CFeC4HCH6CH2C6H4CHCH2C6H4C6H5C2HSH2C6H3CH2CH4CH3CH2NHC2H2C6H7CHSH3CHCH3CH2NCHC2NH3CH3CH2CHCHC2H3CS2CSH3C3H2C3H2CNCH3CSHCH2CHCHCH3NH4CH4FeH5CH2CSH4SC3FeH6SCSCNCH2CSH2CHCH2CH4C3FeSFe2SCFeSFeS3Fe2HFeS2HFeSHSHSH5SFeSHFeS2FeSFeS3CHCHCHSH5CSC2HCFeH2FeSFeCHCSCH2CH2NSH2SHCH2S2C2NH4SHSH2FeNCHCFeH2SH2NH2C2HC4HFeHC7H3CHC4H4C2HC3H7CHC7H9CHCH7C2H3CHSHSHCH2C4H2C3SCSNH3CFeH3C3HSNCHNHCH2CSH2CNCFeHCH4SH2SC3H2SHSHCH3CHNHCH5CH8CH3CHSC2HFeHSC2H3S2NHCHCH3CH3CNFeC2SH4C2H5C2HCH2CH3CH2NHCH2FeCSH2CH5SHFeSFeSH2CHCH2FeH4SHCHFeSNCSHSCH6FeHSFeCHSHC2S2C2FeSCSC2H2CHFeS2CH2FeSNC6H5CHNSC3HFeHSH4CHC4HCH2CH4SHSNCH2FeHS2H3FeH2CNHCSHC2HFeHCH2C3HC2SH3CH3CNSCHCNHSH8C2H2CH6CSC4SH2CNHSH2CH3CH2CH3CHC2HFeHCH2C2HCHCH2SHCHCHCHC2HCH2CH2CH3FeC2S2H2C2SHSFeSHCHCH2S2HFeSH3SHC4H2CH2FeH2CH2NFeH3C2H9SNHCSHSC2H2S2C2H6FeC4HCNFeCSCS2NHC2H6SH6SCS2HCHSHSH2CNC4H8CH2CH2C3HCH2NH4C3FeH2FeCFeSH2C2HCH2FeCH2CHSH3CHC2HNHCSCH4FeCHSCHSH2SHFeSFeSH2FeS2FeS2FeSFeS3FeS2FeS2FeSFeS3HFeCSFeSCSH2CHSH2SC3HFeS2C5FeS3FeH4CHSCH6C7H2CH2C2H4CH6C7H3SH4CHNH4CH2NCH2C6H4C6H6CHFeHFeC6H4C2HCHCH3C3H3C6H6Fe2CH2CH3C2H2CH3CHCSC4SH4CHFeCH2FeH3CH3SH2CH4NC4H4FeHCHCH4CHCH9SH3CH3SHCSCSHC3H2NHCHCNC3H4CSH2NCH2C2H2SNH2CH4NH2CHCHCHNHNH4CH2CH4CHC2HCH2C2H2CH5CHNCH4CH3SHCSHCH2NFeSHCH2Fe2SFeHSH3NSH2FeS2FeS2FeHFeHS2H4C2HCH2C2SCHSHSNHC4SC4HCH4SC6H6C6H3FeH2CFeH3C5H3CHC3H2CH3C6H5SH3NHSH2NC2SC2H2C2H3CH3CHNCH2SCH2CH3CHC4H2SH6SHCH2CH3CSFeH2CH6SH2CHFeS2FeSHCFeS2FeS2FeSFeS3HN2CH2FeCSFeHSHFeHCS3NHCFeCHSHFeS2FeS2FeSFeS3C6H5SHC2NCH3C6H4CH3CH2CHNH2CHCH7CH2NC6H4C2HCHCH2C4H3C6H2CH4CHCNH3C6H4CFeCH4SC2H3CH5CHCH8C2HFeHC2SH2CHNCH2C2HSHNH2CH2CHNHCHC3H3C2H6CSCH4CFeHCSHCHC3H3C2HSCH3C2HCH3SH6SHC2HNH2FeH3CSC3H3SFeH2FeH2CSCH2CH4FeCSCH2FeS2CFeS2FeS2FeSFeS3H2FeCSHFeS2FeSHFeHCHFeS2FeS2FeHFeS3FeS2FeS2FeSFeS4CSH2CHSC6H4CH4S2C6H5SC3SC2H2C6H5C4H2CHC6H4CHC3H3CHSHSC2HC7H6CH3C2SC3H2FeCHFeH3SCHNHFeSH2SHCHCSCHCHSHNCFeC2H2C2HCHCHCH5C2HC4HCNC4H12NC4H12SC2H4C3HNC2H4CHFeNSH2SH2NC4H14CH3SFeCH3FeHNC4H12NCH7CNHCH2CHCH3CNH7FeSHSCHC2Fe2CHCHCH2SH2CSH3CH2FeS2H3FeSFeHS2CH3C2H3CH2C3HC2HNH2SH3SHCH3CHCHCHFeHCSC2HCHNHFeS2FeS2FeSFeS3FeS2FeS2FeSFeS3FeH2FeS2FeSFeS2FeS2FeSFeSCS2CFeCHSHFeS2FeSFeSFeS3FeS2HFe2S2H4SH2S3HSFeS2FeSFeS3H3C3HC6H2CHC2H2C6HCH2C3HC3H2C6H4CHSHC2HSHCHC6H4C2H2C2HFeH2C6H4C6H4C6H4C6H4C6H5C3H3C3H4SC4H3C2H2NC4H12NC4H14SNHC3H6CHCH2CNC4H13CFeH2SCNC2HCH4NHNSCSHC5FeSNHCH2C2HC2H5NFeS2FeSCHCSHCH2SC3SH3CH2CH2CH4SHCSNH3FeHCH3C2HSH3CHFeH2CHSCSCH2CH6CNCSCH6CH4CNSCHS2HC2NHFeH4SCH2NHCFeHFeH2CHCHCH6CHCH3CNCH6CHCHC4H3CH2FeHCH3CH2CNHSHCSHSH3SC3SCH2CH5CH2C4SHCH2CSHCH3CHFeH5CH2C2HFeH2CHNHC3H2C2HCHCHC2H2SH8SC2H5CH3CH3FeCHCHNFeHC2H2C2H5FeHCHCH4CH2SH3C2H2FeC3H3NH3CH2SCHC2FeNHFeS2FeSH2S2FeSHFeS2FeS2FeS2FeSFeCS2NFeCHCHCH2FeH5C6H4C6H6NH3C2H2C2FeH5CHC3H4CH2SHCNH3C3S2HNC4H3C2H7C2H2C3H5S2H2CH2CH2CHC3S2H2C2HNC4H16CH2NCH2CH11C3HSHSHS2H3FeS2FeS2FeSFeS3FeS2Fe2S3FeS2FeS2FeCFeS3HCHSFeS2H3S2FeS2FeSNFeS3FeS2FeS2FeSFeS3CH2CH4SHCFeC3HC2H2CHC6H5C6H4C6H4CH3C2HCH2C2H2C2HC4H2C6H4C6H4C6H4SH4SCH2C6H7NC4H4CH7CH4SHCH5CH2NC4H13CH3FeH3NC2H7NC4H13CHCHNHCH2FeCH5NC4H12NC4H6CH5CFeC3HN2CSH3CHSHC2H3CHCFeCFeSHSC3HC2HC2H3NSCH5FeHCHCH2CHSH5CH2SHCNCH4FeHC2H8C2HCFeHCHC4SHCHCNCHNH4NCHCH3SHSHSH2CHCHCH2NHCHCH5CHC2H2SHNH2FeSH2C2H3CHFeS2FeS2Fe2S3H4FeS2FeS2FeHFeS3FeS2FeS2FeSFeS3FeHSFeHFeS2HFeS2FeS2FeSFeS3H2NCS2CH2SH2SNHSH7CH3SH2CHCH3C7H3C6H4CH2C4SH2C6H4C6H4C6H11CH2C6H5CSC2H3CH5C3H4C2HCH2C6H4C3HNH4C2H4CHC6H4NCHC2H7CH5CFeCHFeNCHCNCH2SFeCH2NC4H13SH4CHCH2CSHC2FeH4CSHSCHNHC2H3SNC2H5CHCSH4SH2NC2HCH2CHCH5CHCHCHCH2SHCH2NC4H7CH2CHS2C2H3C2SHCNHSCNC2Fe2C2H2CFeCH6SHC2S2HCFeHNH4CSC2HSCS2H2CH2C4H4CH2CFeHS2H2CHCH5FeC5HNHCHCHCHCH8CFeH10CH2FeCHSHSCFeCSCS2HCFeS2H2CFeNFeS3H11SH5SHNHC6H3CH2NHCH4C6H2FeH2SH2FeSHCSCHC5H6C3H2FeHCH4SFeSHNHC3HFeHC3HNC2H4FeSHSCH5CH3CH3SH4NH2CH2CSCFeHCFeS2FeS2FeSFeHS2FeHSFeHSCHFeHS2HFeHSFeS2FeNH2SHFeHSFeS3HCHS2H3C4H4CHCHCHCHCHC2HCH3C2H2C6H4CH2NHC2H2C6H4C2H3C2H2C6H6C2HCNCHC5H3SC2SHCHSHCH2C3HCS2CHCH5CHNCH3FeCHC3HCNH3NH2C2HCS2HSH4CHCSHFeCH7CHCH3CHCHCHCH2CH4SCHNFeS2FeS2CSFeS3FeS2FeS2FeSFeS3HCH5FeSCFeSHFeSFeS3FeS2FeS2FeSFeS3H2SHSC6H6C7H4C4HSH3C2HC4H11C7H6CH3CHCH2C6H5C2HC2H4C3H3SHCHC3H4SCH2NCHCH2CH2C2H2CHCSHNH2C2HC3H2SH3CH2SFeSHCSCNH2CFeCSCH3CH3CHCSCFeSC3H4FeH5CH2CHCHCSCFeSH2CHCNC3SH2CNHCHNC4H12C2H6C2H3CH2NH2CHC2HCH2FeCFe2H2NC4H13CSH2CHC3FeHC4H5SHC2SHC2HCH5CN2HNHC2HC2HSCH3CSHCH4C2H2C2HCNH3C2HNH2CSHCH6FeCH2CS2HSFeHCFeCSH2CHS2FeH2SFeHSH2CHCH2SH2NC5H2SH3CHFeH3SH3C2FeH3C2HCNCH3NFeS2FeS2Fe2S3FeS4FeSFeSHSHSFeSHFeS2FeSFeS3FeS2HSCFeSFeSFeSFeHFeS3CH2FeS4FeSHFeS2FeSFeS4H2FeSFeSFeS2H4CHSC6H4CH5C6H4CFeCFeHCH3C4H2SC6H6CH2CH2C7H4C6H5FeHC2FeC6H4C6H2FeHC6H4C6H3SC6H4C6H4C6H4C3HCH3C6H4SHCH3SH2SCS2HNH4CHCHFeCH2NCHCNC4H12NC4H12NHC3HC2H2CH6NC4NHCFeHCH3CH8SHCHCH2CHNH4CSH2C2H2CNH2CH3CHCHNC4H12NC4H3SH8NCH4SCHFeHS2H3Fe2H3NC2H2CNH2CS2HSCH2SCHC2HC3H2FeSC2H4SH2S2H4CHCHCHCH8C2NC4H4CNHCSHCHFeHSHFeCHCH4SHSH3SCH2NH8C3HFeCH2SH5FeCH4C2HSHCH2CH2CHCH2NHSHCSC2S2HCH2FeHCSCH3SH2CHC2HFeCHC3H3C2FeH3SH4SHC2HNHCHSH2CH2FeHS2H2CHCH3CH3SH4C2HCH2NHFeSH6SHC2SCNFeHCH4NCHFeCH3SCH3SFeCHCHFeH2SC2H2CHC2SHC3H2CHSH3SC3FeH2CFeNHSCFeS2FeS2FeSFeHS2H3C2SH2CHFeS2FeS2CSC4H4C7H4CH3CH3CHC6HCH6CH2CHCHSH2CFeHCSC3H5CH4NHCH3CH3NC4H13CSHC3SH5CHSFeCHCHCHN2C3NHSHSH4CSH5SCH2CFeHS2CH2CSH2SCHC2SHCHC2FeCH5CSHFeH5FeH3CHCH2C2HC2NH2CHCSH4SHCH2SFeS2H2SFeS2FeS2FeSFeS3FeS2FeS2FeSFeS3FeS2FeS2FeSFeS4C2HCFeS2FeS2FeSFeS3FeS2FeS2FeSFeS3FeSHFeS2FeSFeS3FeHC2NC3H3C6H4C6H4C4HCH2C6H4C4HCH4C6H4C6H4C6H4C6H7C6H5C2H3C3H2NHC6H4C3H2CH2C4SFeH3CHN2C4H12NHCH2SC2FeH2CH8CHSNC4H12CH5NCFeCH2C3HC2H3C2NHC2SH2CH4SCH9SC2H3SHCH2CHCHCH4CH2C2HCNH5CH2SHCH3NCHNCH4CH3C2SCH3CH3FeH2C2H2CHNC2H2CH2NHCH2C2HS2HCH3C2NH3SH7CSCH4FeH3CHCH3C2NCH2C2Fe2H3NCH3NH5FeHSCH3CH7C3HCH3CH4FeH2CHC2H10CH3CFeS2FeS2FeSFeS3HSCSH2FeS2FeS2FeS2FeSFeHS2HNHFeS2FeS2FeSFeS4FeSFeSCFeSNFeSFeHS2H2SCH6NH3SCH2C2H4CSHC2H2C2H3CH3SHC2SH3CHCHC6H4C6H4CH2C3H3CHCH2C2HC3HCH2C7H5C3H2C3H2CH4C6H4C6H4CH3C2HCH2CHNC5H3NCFeH7CSCFeHSCH4SHC5H3FeNHCFeH3NC4H12CH7CHSH6SHCHCH3NC3H9CHCH2C2H3SHCH2FeC3SH2C2SH2FeHFeHNCH2CSCHNCH4SH8SHSHCH3CHSHCH3CNH3CHCNH2SH3C2HC3H2CHCHCH2CFeSCHCH3C5HS2C2H5NFeH2SC3H4NC2HCH3CH2CH2CSCH2
_chemical_formula_sum              "C3840 H6144 S1536 Fe768 N384"
_cell_length_a       98.6756
_cell_length_b       98.3625
_cell_length_c       98.1991
_cell_angle_alpha    74.4853
_cell_angle_beta     74.5177
_cell_angle_gamma    74.486

_space_group_name_H-M_alt    "P 1"
_space_group_IT_number       1

loop_
  _space_group_symop_operation_xyz
  'x, y, z'

loop_
  _atom_site_type_symbol
  _atom_site_label
  _atom_site_symmetry_multiplicity
  _atom_site_fract_x
  _atom_site_fract_y
  _atom_site_fract_z
  _atom_site_occupancy
  C   C1        1.0  0.27868  0.11548  0.03726  1.0000
  H   H1        1.0  0.20665  0.14164  0.01365  1.0000
  S   S1        1.0  0.27335  0.21387  0.02750  1.0000
  H   H2        1.0  0.07292  0.22900  0.19382  1.0000
  H   H3        1.0  0.05040  0.22642  0.22175  1.0000
  H   H4        1.0  0.02066  0.21964  0.12829  1.0000
  C   C2        1.0  0.19957  0.13151  0.04221  1.0000
  C   C3        1.0  0.26351  0.15930  0.13419  1.0000
  Fe  Fe1       1.0  0.28378  0.19299  0.07775  1.0000
  C   C4        1.0  0.27672  0.16576  0.10495  1.0000
  H   H5        1.0  0.25028  0.22794  0.04941  1.0000
  H   H6        1.0  0.17092  0.14086  0.04947  1.0000
  H   H7        1.0  0.20003  0.12015  0.04188  1.0000
  H   H8        1.0  0.08390  0.20401  0.20440  1.0000
  C   C5        1.0  0.14576  0.13211  0.22136  1.0000
  H   H9        1.0  0.26525  0.29585  0.15674  1.0000
  S   S2        1.0  0.16646  0.10155  0.19443  1.0000
  Fe  Fe2       1.0  0.16881  0.06017  0.20283  1.0000
  S   S3        1.0  0.15098  0.07623  0.19340  1.0000
  S   S4        1.0  0.17284  0.03600  0.20347  1.0000
  Fe  Fe3       1.0  0.16868  0.08719  0.17939  1.0000
  S   S5        1.0  0.16954  0.09610  0.15563  1.0000
  Fe  Fe4       1.0  0.15063  0.08892  0.20950  1.0000
  N   N1        1.0  0.29595  0.17126  0.21829  1.0000
  S   S6        1.0  0.18656  0.07079  0.18792  1.0000
  H   H10       1.0  0.26301  0.08533  0.22040  1.0000
  Fe  Fe5       1.0  0.29020  0.11122  0.17997  1.0000
  S   S7        1.0  0.28624  0.10024  0.20332  1.0000
  S   S8        1.0  0.27599  0.11325  0.16475  1.0000
  Fe  Fe6       1.0  0.25115  0.02570  0.10462  1.0000
  S   S9        1.0  0.23883  0.04027  0.08813  1.0000
  S   S10       1.0  0.25539  0.00103  0.10938  1.0000
  Fe  Fe7       1.0  0.25246  0.05141  0.11676  1.0000
  S   S11       1.0  0.23993  0.06767  0.10129  1.0000
  S   S12       1.0  0.25715  0.05808  0.13525  1.0000
  Fe  Fe8       1.0  0.22613  0.05146  0.10618  1.0000
  S   S13       1.0  0.20200  0.05685  0.11039  1.0000
  Fe  Fe9       1.0  0.25391  0.05503  0.08477  1.0000
  S   S14       1.0  0.26503  0.06622  0.06301  1.0000
  S   S15       1.0  0.23737  0.03610  0.12293  1.0000
  S   S16       1.0  0.26748  0.03956  0.09999  1.0000
  Fe  Fe10      1.0  0.26209  0.22123  0.07676  1.0000
  S   S17       1.0  0.23931  0.23241  0.08369  1.0000
  S   S18       1.0  0.26440  0.20184  0.06800  1.0000
  C   C6        1.0  0.19160  0.29122  0.11665  1.0000
  S   S19       1.0  0.23273  0.14861  0.01556  1.0000
  H   H11       1.0  0.21084  0.13310  0.03854  1.0000
  C   C7        1.0  0.19017  0.15680  0.03339  1.0000
  C   C8        1.0  0.17534  0.13941  0.03815  1.0000
  H   H12       1.0  0.19585  0.12869  0.01708  1.0000
  S   S20       1.0  0.28968  0.13496  0.17554  1.0000
  S   S21       1.0  0.22746  0.11129  0.02080  1.0000
  C   C9        1.0  0.24401  0.98767  0.07880  1.0000
  S   S22       1.0  0.23295  0.28730  0.10797  1.0000
  H   H13       1.0  0.19582  0.13260  0.05368  1.0000
  S   S23       1.0  0.16321  0.25635  0.03331  1.0000
  H   H14       1.0  0.18618  0.15878  0.04455  1.0000
  C   C10       1.0  0.17705  0.27917  0.13795  1.0000
  Fe  Fe11      1.0  0.14616  0.25532  0.02268  1.0000
  S   S24       1.0  0.12842  0.24479  0.03770  1.0000
  C   C11       1.0  0.20129  0.26713  0.12882  1.0000
  Fe  Fe12      1.0  0.27757  0.13646  0.15879  1.0000
  H   H15       1.0  0.20119  0.15906  0.02942  1.0000
  H   H16       1.0  0.28207  0.19073  0.12513  1.0000
  Fe  Fe13      1.0  0.05698  0.27150  0.08625  1.0000
  S   S25       1.0  0.03834  0.28509  0.09903  1.0000
  S   S26       1.0  0.06966  0.28236  0.06526  1.0000
  Fe  Fe14      1.0  0.05460  0.24444  0.10924  1.0000
  S   S27       1.0  0.03598  0.25587  0.12361  1.0000
  S   S28       1.0  0.06385  0.22096  0.11696  1.0000
  Fe  Fe15      1.0  0.02738  0.26637  0.10346  1.0000
  S   S29       1.0  0.00320  0.26792  0.10676  1.0000
  Fe  Fe16      1.0  0.04873  0.27317  0.11788  1.0000
  S   S30       1.0  0.05204  0.28125  0.13616  1.0000
  S   S31       1.0  0.04535  0.25367  0.08930  1.0000
  S   S32       1.0  0.06795  0.26090  0.10485  1.0000
  Fe  Fe17      1.0  0.03412  0.17256  0.19840  1.0000
  S   S33       1.0  0.05593  0.17140  0.18366  1.0000
  S   S34       1.0  0.01769  0.17367  0.18546  1.0000
  H   H17       1.0  0.22071  0.98884  0.10792  1.0000
  S   S35       1.0  0.06945  0.17066  0.21104  1.0000
  Fe  Fe18      1.0  0.05917  0.18738  0.19421  1.0000
  S   S36       1.0  0.06722  0.20756  0.18252  1.0000
  Fe  Fe19      1.0  0.06402  0.15464  0.20182  1.0000
  S   S37       1.0  0.07776  0.13428  0.19493  1.0000
  S   S38       1.0  0.03672  0.19022  0.20744  1.0000
  S   S39       1.0  0.04202  0.15484  0.21613  1.0000
  C   C12       1.0  0.06514  0.21723  0.13509  1.0000
  C   C13       1.0  0.06074  0.22827  0.14280  1.0000
  C   C14       1.0  0.06127  0.22519  0.15742  1.0000
  C   C15       1.0  0.06644  0.21109  0.16433  1.0000
  C   C16       1.0  0.07094  0.20001  0.15666  1.0000
  C   C17       1.0  0.07030  0.20308  0.14202  1.0000
  H   H18       1.0  0.05709  0.23924  0.13749  1.0000
  H   H19       1.0  0.05741  0.23371  0.16344  1.0000
  H   H20       1.0  0.07515  0.18910  0.16192  1.0000
  H   H21       1.0  0.07380  0.19451  0.13607  1.0000
  C   C18       1.0  0.11380  0.28090  0.20071  1.0000
  C   C19       1.0  0.11169  0.27581  0.18957  1.0000
  C   C20       1.0  0.11157  0.26116  0.19155  1.0000
  C   C21       1.0  0.11366  0.25163  0.20462  1.0000
  S   S40       1.0  0.13249  0.00259  0.18956  1.0000
  C   C22       1.0  0.11587  0.27137  0.21374  1.0000
  H   H22       1.0  0.10999  0.28317  0.17953  1.0000
  H   H23       1.0  0.10983  0.25723  0.18301  1.0000
  C   C23       1.0  0.05931  0.21696  0.22003  1.0000
  C   C24       1.0  0.19552  0.13986  0.01789  1.0000
  H   H24       1.0  0.07177  0.29259  0.11036  1.0000
  H   H25       1.0  0.20245  0.29347  0.11127  1.0000
  C   C25       1.0  0.11159  0.25512  0.04447  1.0000
  C   C26       1.0  0.10274  0.24878  0.05698  1.0000
  C   C27       1.0  0.08973  0.25700  0.06332  1.0000
  C   C28       1.0  0.08543  0.27157  0.05706  1.0000
  C   C29       1.0  0.09410  0.27782  0.04434  1.0000
  C   C30       1.0  0.10718  0.26962  0.03806  1.0000
  H   H26       1.0  0.10605  0.23753  0.06192  1.0000
  H   H27       1.0  0.08305  0.25206  0.07306  1.0000
  H   H28       1.0  0.09071  0.28904  0.03937  1.0000
  H   H29       1.0  0.11383  0.27450  0.02827  1.0000
  H   H30       1.0  0.17498  0.12826  0.03790  1.0000
  H   H31       1.0  0.16798  0.14707  0.03132  1.0000
  H   H32       1.0  0.18807  0.28676  0.10921  1.0000
  H   H33       1.0  0.06405  0.28826  0.15632  1.0000
  S   S41       1.0  0.28006  0.21142  0.08874  1.0000
  C   C31       1.0  0.06655  0.28963  0.13353  1.0000
  C   C32       1.0  0.21819  0.99711  0.13267  1.0000
  H   H34       1.0  0.11781  0.24942  0.22565  1.0000
  C   C33       1.0  0.23811  0.24763  0.09021  1.0000
  C   C34       1.0  0.24795  0.24790  0.09804  1.0000
  C   C35       1.0  0.24631  0.26003  0.10376  1.0000
  C   C36       1.0  0.23519  0.27201  0.10111  1.0000
  C   C37       1.0  0.22567  0.27185  0.09289  1.0000
  C   C38       1.0  0.22696  0.25957  0.08769  1.0000
  H   H35       1.0  0.25657  0.23862  0.10001  1.0000
  H   H36       1.0  0.25373  0.26018  0.11006  1.0000
  H   H37       1.0  0.21713  0.28108  0.09073  1.0000
  H   H38       1.0  0.21942  0.25939  0.08153  1.0000
  C   C39       1.0  0.27160  0.19747  0.02464  1.0000
  H   H39       1.0  0.18882  0.14762  0.01047  1.0000
  C   C40       1.0  0.26288  0.18457  0.01172  1.0000
  C   C41       1.0  0.26414  0.19760  0.01422  1.0000
  H   H40       1.0  0.25719  0.18475  0.00364  1.0000
  H   H41       1.0  0.25943  0.20779  0.00800  1.0000
  C   C42       1.0  0.25436  0.07809  0.05113  1.0000
  C   C43       1.0  0.23934  0.08123  0.05519  1.0000
  C   C44       1.0  0.23117  0.09128  0.04569  1.0000
  C   C45       1.0  0.23797  0.09843  0.03225  1.0000
  C   C46       1.0  0.25298  0.09527  0.02819  1.0000
  C   C47       1.0  0.26113  0.08501  0.03756  1.0000
  H   H42       1.0  0.23404  0.07590  0.06563  1.0000
  H   H43       1.0  0.21956  0.09357  0.04884  1.0000
  H   H44       1.0  0.25830  0.10058  0.01776  1.0000
  H   H45       1.0  0.27274  0.08242  0.03431  1.0000
  C   C48       1.0  0.27677  0.15142  0.11209  1.0000
  C   C49       1.0  0.27015  0.14819  0.12671  1.0000
  H   H46       1.0  0.28232  0.14279  0.10647  1.0000
  H   H47       1.0  0.27078  0.13705  0.13239  1.0000
  C   C50       1.0  0.28794  0.08736  0.13170  1.0000
  N   N2        1.0  0.19180  0.28120  0.13085  1.0000
  C   C51       1.0  0.27073  0.07259  0.14596  1.0000
  C   C52       1.0  0.26932  0.06917  0.13347  1.0000
  C   C53       1.0  0.27734  0.07483  0.12004  1.0000
  C   C54       1.0  0.28672  0.08377  0.11920  1.0000
  H   H48       1.0  0.26472  0.06813  0.15641  1.0000
  H   H49       1.0  0.27641  0.07220  0.11036  1.0000
  H   H50       1.0  0.29302  0.08794  0.10881  1.0000
  C   C55       1.0  0.11714  0.11115  0.21474  1.0000
  C   C56       1.0  0.11583  0.10829  0.20200  1.0000
  C   C57       1.0  0.10373  0.11550  0.19599  1.0000
  C   C58       1.0  0.09303  0.12583  0.20249  1.0000
  C   C59       1.0  0.09447  0.12892  0.21507  1.0000
  N   N3        1.0  0.28391  0.29828  0.13972  1.0000
  H   H51       1.0  0.12401  0.10036  0.19690  1.0000
  H   H52       1.0  0.10267  0.11309  0.18625  1.0000
  H   H53       1.0  0.03190  0.18587  0.15455  1.0000
  H   H54       1.0  0.17673  0.27186  0.14881  1.0000
  C   C60       1.0  0.17961  0.08543  0.14307  1.0000
  C   C61       1.0  0.17626  0.08894  0.12940  1.0000
  C   C62       1.0  0.18342  0.08029  0.11932  1.0000
  C   C63       1.0  0.19432  0.06832  0.12264  1.0000
  C   C64       1.0  0.19804  0.06499  0.13615  1.0000
  C   C65       1.0  0.19053  0.07344  0.14645  1.0000
  H   H55       1.0  0.16787  0.09822  0.12671  1.0000
  H   H56       1.0  0.18048  0.08285  0.10892  1.0000
  H   H57       1.0  0.20638  0.05565  0.13881  1.0000
  H   H58       1.0  0.19312  0.07058  0.15699  1.0000
  C   C66       1.0  0.27685  0.17126  0.02976  1.0000
  H   H59       1.0  0.28920  0.18095  0.15516  1.0000
  Fe  Fe20      1.0  0.11636  0.31049  0.17531  1.0000
  C   C67       1.0  0.27782  0.11456  0.21204  1.0000
  C   C68       1.0  0.26765  0.12582  0.20601  1.0000
  S   S42       1.0  0.31079  0.27314  0.10783  1.0000
  H   H60       1.0  0.05764  0.21261  0.21137  1.0000
  H   H61       1.0  0.26448  0.12523  0.19648  1.0000
  C   C69       1.0  0.29684  0.15571  0.21972  1.0000
  H   H62       1.0  0.13809  0.07222  0.16886  1.0000
  H   H63       1.0  0.30324  0.18899  0.20228  1.0000
  C   C70       1.0  0.00206  0.25449  0.08559  1.0000
  H   H64       1.0  0.31119  0.19066  0.14259  1.0000
  C   C71       1.0  0.00151  0.16724  0.19210  1.0000
  Fe  Fe21      1.0  0.23721  0.12953  0.00557  1.0000
  H   H65       1.0  0.14647  0.29165  0.06016  1.0000
  H   H66       1.0  0.01313  0.25536  0.08096  1.0000
  H   H67       1.0  0.20256  0.99661  0.10592  1.0000
  H   H68       1.0  0.04697  0.11257  0.17775  1.0000
  H   H69       1.0  0.13568  0.04680  0.17526  1.0000
  H   H70       1.0  0.18975  0.99844  0.13729  1.0000
  C   C72       1.0  0.14297  0.28116  0.06358  1.0000
  H   H71       1.0  0.22466  0.18599  0.00438  1.0000
  S   S43       1.0  0.11318  0.23341  0.20726  1.0000
  H   H72       1.0  0.25669  0.18229  0.13241  1.0000
  H   H73       1.0  0.32097  0.17284  0.14072  1.0000
  H   H74       1.0  0.30526  0.28481  0.05451  1.0000
  H   H75       1.0  0.26848  0.29204  0.04793  1.0000
  H   H76       1.0  0.03469  0.22311  0.13439  1.0000
  C   C73       1.0  0.24729  0.99645  0.08620  1.0000
  H   H77       1.0  0.13093  0.26113  0.05944  1.0000
  C   C74       1.0  0.03225  0.19554  0.14552  1.0000
  H   H78       1.0  0.30949  0.13600  0.09385  1.0000
  H   H79       1.0  0.28623  0.29554  0.04059  1.0000
  H   H80       1.0  0.24723  0.00772  0.08134  1.0000
  Fe  Fe22      1.0  0.22334  0.31252  0.05893  1.0000
  H   H81       1.0  0.11647  0.29112  0.04458  1.0000
  C   C75       1.0  0.14394  0.01178  0.19317  1.0000
  C   C76       1.0  0.15893  0.00744  0.18982  1.0000
  C   C77       1.0  0.16761  0.01487  0.19318  1.0000
  C   C78       1.0  0.16144  0.02699  0.19948  1.0000
  C   C79       1.0  0.14645  0.03150  0.20255  1.0000
  C   C80       1.0  0.13776  0.02383  0.19956  1.0000
  S   S44       1.0  0.29995  0.09849  0.13033  1.0000
  H   H82       1.0  0.17920  0.01130  0.19076  1.0000
  H   H83       1.0  0.14154  0.04073  0.20752  1.0000
  H   H84       1.0  0.12617  0.02728  0.20221  1.0000
  H   H85       1.0  0.00020  0.24551  0.06853  1.0000
  Fe  Fe23      1.0  0.22472  0.16117  0.99569  1.0000
  C   C81       1.0  0.26867  0.17691  0.11199  1.0000
  C   C82       1.0  0.19332  0.29040  0.02580  1.0000
  S   S45       1.0  0.31120  0.10590  0.16442  1.0000
  Fe  Fe24      1.0  0.29686  0.10986  0.14863  1.0000
  H   H86       1.0  0.18329  0.16493  0.02637  1.0000
  N   N4        1.0  0.09426  0.24745  0.14151  1.0000
  C   C83       1.0  0.09417  0.23511  0.13562  1.0000
  C   C84       1.0  0.09652  0.25995  0.12949  1.0000
  C   C85       1.0  0.10596  0.24341  0.14954  1.0000
  C   C86       1.0  0.08033  0.25134  0.15140  1.0000
  H   H87       1.0  0.09185  0.22565  0.14440  1.0000
  H   H88       1.0  0.10468  0.23153  0.12851  1.0000
  H   H89       1.0  0.08583  0.23799  0.12901  1.0000
  H   H90       1.0  0.08760  0.26345  0.12351  1.0000
  H   H91       1.0  0.09687  0.26939  0.13351  1.0000
  H   H92       1.0  0.10675  0.25734  0.12160  1.0000
  H   H93       1.0  0.10619  0.25243  0.15429  1.0000
  H   H94       1.0  0.11667  0.24054  0.14240  1.0000
  H   H95       1.0  0.10459  0.23391  0.15861  1.0000
  H   H96       1.0  0.07976  0.26100  0.15554  1.0000
  H   H97       1.0  0.07852  0.24238  0.16091  1.0000
  H   H98       1.0  0.07117  0.25395  0.14585  1.0000
  N   N5        1.0  0.22239  0.08917  0.15637  1.0000
  C   C87       1.0  0.22318  0.09067  0.17071  1.0000
  C   C88       1.0  0.23359  0.09557  0.14513  1.0000
  C   C89       1.0  0.20805  0.09673  0.15335  1.0000
  C   C90       1.0  0.22475  0.07369  0.15633  1.0000
  H   H99       1.0  0.21508  0.08563  0.17945  1.0000
  H   H100      1.0  0.22109  0.10220  0.17136  1.0000
  H   H101      1.0  0.23395  0.08534  0.17325  1.0000
  H   H102      1.0  0.23200  0.10731  0.14463  1.0000
  H   H103      1.0  0.24449  0.09036  0.14730  1.0000
  H   H104      1.0  0.23366  0.09412  0.13425  1.0000
  H   H105      1.0  0.20697  0.09561  0.14272  1.0000
  H   H106      1.0  0.20595  0.10846  0.15316  1.0000
  H   H107      1.0  0.19930  0.09236  0.16175  1.0000
  H   H108      1.0  0.23541  0.06766  0.15878  1.0000
  H   H109      1.0  0.22457  0.07206  0.14558  1.0000
  H   H110      1.0  0.21641  0.06852  0.16454  1.0000
  S   S46       1.0  0.24598  0.16666  0.98363  1.0000
  C   C91       1.0  0.24320  0.23755  0.04407  1.0000
  H   H111      1.0  0.21071  0.24447  0.03509  1.0000
  H   H112      1.0  0.22646  0.25095  0.02454  1.0000
  N   N6        1.0  0.02248  0.20856  0.15007  1.0000
  H   H113      1.0  0.17045  0.14052  0.21776  1.0000
  C   C92       1.0  0.02663  0.21105  0.16246  1.0000
  S   S47       1.0  0.31106  0.21243  0.22782  1.0000
  C   C93       1.0  0.02355  0.22118  0.13791  1.0000
  C   C94       1.0  0.20552  0.29856  0.03982  1.0000
  C   C95       1.0  0.31399  0.18271  0.13554  1.0000
  H   H114      1.0  0.31561  0.17202  0.20239  1.0000
  C   C96       1.0  0.07024  0.29169  0.14560  1.0000
  H   H115      1.0  0.12486  0.26366  0.07772  1.0000
  H   H116      1.0  0.13450  0.28125  0.03944  1.0000
  H   H117      1.0  0.99729  0.17118  0.17078  1.0000
  H   H118      1.0  0.21458  0.98772  0.14072  1.0000
  C   C97       1.0  0.30522  0.16882  0.12417  1.0000
  C   C98       1.0  0.17947  0.30146  0.04585  1.0000
  C   C99       1.0  0.20108  0.09981  0.22189  1.0000
  H   H119      1.0  0.30168  0.30430  0.14370  1.0000
  C   C100      1.0  0.19732  0.28732  0.13997  1.0000
  C   C101      1.0  0.99355  0.16719  0.18220  1.0000
  H   H120      1.0  0.18419  0.30179  0.11776  1.0000
  S   S48       1.0  0.22760  0.14194  0.98638  1.0000
  H   H121      1.0  0.20835  0.28924  0.13476  1.0000
  H   H122      1.0  0.09209  0.30436  0.10724  1.0000
  N   N7        1.0  0.03725  0.12643  0.19289  1.0000
  C   C102      1.0  0.03627  0.11654  0.18437  1.0000
  C   C103      1.0  0.04723  0.11876  0.20270  1.0000
  C   C104      1.0  0.02283  0.13149  0.20146  1.0000
  C   C105      1.0  0.04267  0.13895  0.18298  1.0000
  H   H123      1.0  0.04360  0.19690  0.14194  1.0000
  C   C106      1.0  0.28164  0.11518  0.22457  1.0000
  H   H124      1.0  0.08623  0.13680  0.22021  1.0000
  H   H125      1.0  0.05827  0.11491  0.19657  1.0000
  Fe  Fe25      1.0  0.04676  0.17242  0.22384  1.0000
  H   H126      1.0  0.04351  0.10927  0.21040  1.0000
  H   H127      1.0  0.02312  0.13923  0.20779  1.0000
  C   C107      1.0  0.26173  0.13799  0.21210  1.0000
  H   H128      1.0  0.01500  0.13719  0.19438  1.0000
  S   S49       1.0  0.20805  0.31189  0.08035  1.0000
  H   H129      1.0  0.04334  0.14667  0.18908  1.0000
  H   H130      1.0  0.05369  0.13564  0.17656  1.0000
  N   N8        1.0  0.19015  0.14190  0.03292  1.0000
  C   C108      1.0  0.99469  0.24890  0.07857  1.0000
  S   S50       1.0  0.28836  0.16943  0.08815  1.0000
  C   C109      1.0  0.18756  0.21094  0.01511  1.0000
  C   C110      1.0  0.18838  0.19851  0.01031  1.0000
  H   H131      1.0  0.17721  0.21770  0.01833  1.0000
  H   H132      1.0  0.17866  0.19595  0.00948  1.0000
  S   S51       1.0  0.25985  0.15521  0.15308  1.0000
  H   H133      1.0  0.17262  0.27447  0.13138  1.0000
  C   C111      1.0  0.20176  0.18963  0.00622  1.0000
  C   C112      1.0  0.26208  0.17368  0.12668  1.0000
  H   H134      1.0  0.26812  0.18801  0.10637  1.0000
  H   H135      1.0  0.28278  0.12767  0.05672  1.0000
  H   H136      1.0  0.29791  0.19762  0.11586  1.0000
  C   C113      1.0  0.07441  0.23246  0.20312  1.0000
  C   C114      1.0  0.27983  0.08178  0.14508  1.0000
  H   H137      1.0  0.00255  0.16204  0.21459  1.0000
  H   H138      1.0  0.00404  0.20451  0.14533  1.0000
  H   H139      1.0  0.27612  0.10691  0.03355  1.0000
  H   H140      1.0  0.27884  0.12501  0.02807  1.0000
  N   N9        1.0  0.15220  0.05532  0.15856  1.0000
  C   C115      1.0  0.27776  0.18425  0.03254  1.0000
  Fe  Fe26      1.0  0.29392  0.22107  0.06821  1.0000
  H   H141      1.0  0.29244  0.15374  0.21125  1.0000
  C   C116      1.0  0.20012  0.21465  0.01559  1.0000
  H   H142      1.0  0.28977  0.11157  0.03932  1.0000
  Fe  Fe27      1.0  0.27892  0.21236  0.04887  1.0000
  Fe  Fe28      1.0  0.17887  0.24740  0.01520  1.0000
  C   C117      1.0  0.21429  0.19285  0.00749  1.0000
  H   H143      1.0  0.24533  0.12723  0.05650  1.0000
  H   H144      1.0  0.25309  0.13355  0.03781  1.0000
  N   N10       1.0  0.26810  0.11913  0.05028  1.0000
  C   C118      1.0  0.25355  0.12405  0.04704  1.0000
  H   H145      1.0  0.28867  0.20111  0.13343  1.0000
  S   S52       1.0  0.16190  0.24430  0.00569  1.0000
  H   H146      1.0  0.26044  0.10850  0.07218  1.0000
  C   C119      1.0  0.26842  0.10623  0.06222  1.0000
  H   H147      1.0  0.26411  0.13372  0.06448  1.0000
  S   S53       1.0  0.27554  0.23255  0.05708  1.0000
  C   C120      1.0  0.26939  0.17133  0.01939  1.0000
  H   H148      1.0  0.15282  0.05607  0.13631  1.0000
  C   C121      1.0  0.16248  0.05209  0.16809  1.0000
  Fe  Fe29      1.0  0.16358  0.27794  0.01844  1.0000
  H   H149      1.0  0.27124  0.14077  0.04588  1.0000
  C   C122      1.0  0.27173  0.13081  0.05456  1.0000
  H   H150      1.0  0.27922  0.10222  0.06499  1.0000
  H   H151      1.0  0.25031  0.11542  0.04407  1.0000
  S   S54       1.0  0.14521  0.27770  0.00881  1.0000
  H   H152      1.0  0.13600  0.07320  0.15095  1.0000
  C   C123      1.0  0.11809  0.29297  0.07055  1.0000
  H   H153      1.0  0.26584  0.09717  0.05930  1.0000
  H   H154      1.0  0.15122  0.07820  0.15345  1.0000
  S   S55       1.0  0.29761  0.13339  0.14174  1.0000
  H   H155      1.0  0.26298  0.31223  0.14334  1.0000
  H   H156      1.0  0.19170  0.30736  0.05783  1.0000
  C   C124      1.0  0.14399  0.07037  0.15792  1.0000
  H   H157      1.0  0.32310  0.11307  0.12635  1.0000
  H   H158      1.0  0.27965  0.19076  0.21880  1.0000
  C   C125      1.0  0.00752  0.20644  0.15442  1.0000
  H   H159      1.0  0.27871  0.26582  0.05108  1.0000
  H   H160      1.0  0.21263  0.26819  0.12416  1.0000
  H   H161      1.0  0.16796  0.06071  0.13936  1.0000
  H   H162      1.0  0.29904  0.16314  0.15317  1.0000
  H   H163      1.0  0.21800  0.25569  0.04176  1.0000
  H   H164      1.0  0.13451  0.04714  0.15725  1.0000
  H   H165      1.0  0.15680  0.05282  0.17934  1.0000
  C   C126      1.0  0.16018  0.05348  0.14390  1.0000
  H   H166      1.0  0.24108  0.21257  0.03944  1.0000
  H   H167      1.0  0.02576  0.20180  0.17190  1.0000
  H   H168      1.0  0.28960  0.24209  0.09128  1.0000
  C   C127      1.0  0.14218  0.04535  0.16438  1.0000
  S   S56       1.0  0.19933  0.23145  0.01907  1.0000
  H   H169      1.0  0.32100  0.12774  0.18532  1.0000
  H   H170      1.0  0.16931  0.04103  0.16848  1.0000
  H   H171      1.0  0.16645  0.04223  0.14399  1.0000
  H   H172      1.0  0.21325  0.02459  0.11758  1.0000
  H   H173      1.0  0.27710  0.26804  0.08226  1.0000
  C   C128      1.0  0.28808  0.26765  0.05411  1.0000
  H   H174      1.0  0.30816  0.14952  0.21878  1.0000
  H   H175      1.0  0.16959  0.28961  0.13953  1.0000
  H   H176      1.0  0.32224  0.10422  0.10540  1.0000
  C   C129      1.0  0.12761  0.28890  0.04632  1.0000
  H   H177      1.0  0.03543  0.14504  0.17539  1.0000
  H   H178      1.0  0.14804  0.03386  0.16556  1.0000
  H   H179      1.0  0.16976  0.05984  0.16451  1.0000
  S   S57       1.0  0.26888  0.15461  0.01619  1.0000
  H   H180      1.0  0.14391  0.27656  0.07502  1.0000
  S   S58       1.0  0.16328  0.31834  0.14452  1.0000
  C   C130      1.0  0.28724  0.30473  0.12409  1.0000
  H   H181      1.0  0.01968  0.22093  0.16606  1.0000
  H   H182      1.0  0.28286  0.29969  0.11777  1.0000
  H   H183      1.0  0.13465  0.13077  0.22707  1.0000
  H   H184      1.0  0.29670  0.26895  0.04419  1.0000
  H   H185      1.0  0.30228  0.28063  0.13853  1.0000
  S   S59       1.0  0.16369  0.29509  0.03001  1.0000
  C   C131      1.0  0.21347  0.20542  0.01212  1.0000
  S   S60       1.0  0.29885  0.20187  0.05784  1.0000
  C   C132      1.0  0.20601  0.29216  0.02846  1.0000
  H   H186      1.0  0.21624  0.28886  0.02145  1.0000
  N   N11       1.0  0.07354  0.22083  0.21627  1.0000
  H   H187      1.0  0.30448  0.12573  0.11179  1.0000
  N   N12       1.0  0.20886  0.00334  0.12203  1.0000
  H   H188      1.0  0.28082  0.08427  0.15481  1.0000
  H   H189      1.0  0.04834  0.12595  0.20920  1.0000
  C   C133      1.0  0.29202  0.19282  0.12670  1.0000
  H   H190      1.0  0.31369  0.16722  0.22855  1.0000
  S   S61       1.0  0.11398  0.29912  0.19851  1.0000
  H   H191      1.0  0.30994  0.14243  0.10909  1.0000
  H   H192      1.0  0.24506  0.10789  0.22364  1.0000
  S   S62       1.0  0.20117  0.09322  0.20674  1.0000
  C   C134      1.0  0.29036  0.28265  0.14217  1.0000
  C   C135      1.0  0.07551  0.22591  0.22834  1.0000
  S   S63       1.0  0.25972  0.13189  0.99414  1.0000
  C   C136      1.0  0.31076  0.31194  0.16651  1.0000
  C   C137      1.0  0.28072  0.17895  0.22010  1.0000
  H   H193      1.0  0.00634  0.19699  0.16357  1.0000
  H   H194      1.0  0.11757  0.27526  0.22234  1.0000
  S   S64       1.0  0.16717  0.07202  0.22034  1.0000
  H   H195      1.0  0.19781  0.27999  0.15071  1.0000
  S   S65       1.0  0.12894  0.30127  0.15592  1.0000
  C   C138      1.0  0.31194  0.24096  0.08098  1.0000
  C   C139      1.0  0.08193  0.29807  0.14389  1.0000
  H   H196      1.0  0.21883  0.23659  0.06432  1.0000
  C   C140      1.0  0.22091  0.24682  0.03577  1.0000
  H   H197      1.0  0.24062  0.24593  0.05061  1.0000
  C   C141      1.0  0.20880  0.11054  0.21997  1.0000
  H   H198      1.0  0.21404  0.11518  0.20919  1.0000
  C   C142      1.0  0.11592  0.25673  0.21565  1.0000
  Fe  Fe30      1.0  0.25442  0.15214  0.00290  1.0000
  C   C143      1.0  0.99494  0.25938  0.09831  1.0000
  H   H199      1.0  0.24965  0.24155  0.03323  1.0000
  H   H200      1.0  0.21221  0.22519  0.05709  1.0000
  N   N13       1.0  0.23008  0.23382  0.04292  1.0000
  C   C144      1.0  0.22210  0.22833  0.05755  1.0000
  H   H201      1.0  0.13150  0.29918  0.04218  1.0000
  C   C145      1.0  0.17995  0.29537  0.03425  1.0000
  H   H202      1.0  0.20124  0.25912  0.13925  1.0000
  H   H203      1.0  0.16919  0.30524  0.05251  1.0000
  C   C146      1.0  0.23414  0.22253  0.03433  1.0000
  H   H204      1.0  0.22885  0.21868  0.06333  1.0000
  H   H205      1.0  0.22450  0.21948  0.03314  1.0000
  H   H206      1.0  0.24038  0.22620  0.02328  1.0000
  H   H207      1.0  0.27548  0.17728  0.21211  1.0000
  H   H208      1.0  0.19296  0.01600  0.13600  1.0000
  C   C147      1.0  0.29918  0.25498  0.09934  1.0000
  S   S66       1.0  0.24281  0.30443  0.06875  1.0000
  S   S67       1.0  0.10393  0.31173  0.12719  1.0000
  H   H209      1.0  0.19799  0.26249  0.12134  1.0000
  C   C148      1.0  0.10644  0.12149  0.22125  1.0000
  H   H210      1.0  0.08602  0.22917  0.22574  1.0000
  N   N14       1.0  0.12817  0.28295  0.06171  1.0000
  H   H211      1.0  0.29906  0.30305  0.11975  1.0000
  H   H212      1.0  0.20480  0.21085  0.98209  1.0000
  H   H213      1.0  0.29565  0.16567  0.12294  1.0000
  C   C149      1.0  0.08609  0.30072  0.11799  1.0000
  C   C150      1.0  0.26813  0.30051  0.14496  1.0000
  C   C151      1.0  0.12401  0.26878  0.06635  1.0000
  H   H214      1.0  0.14513  0.14364  0.21582  1.0000
  C   C152      1.0  0.19222  0.30278  0.04881  1.0000
  C   C153      1.0  0.31171  0.25963  0.09857  1.0000
  H   H215      1.0  0.01632  0.23124  0.14089  1.0000
  H   H216      1.0  0.12081  0.30382  0.06722  1.0000
  H   H217      1.0  0.30187  0.27275  0.07161  1.0000
  H   H218      1.0  0.19032  0.29785  0.14189  1.0000
  H   H219      1.0  0.27505  0.30304  0.05562  1.0000
  H   H220      1.0  0.28359  0.18402  0.04053  1.0000
  H   H221      1.0  0.11269  0.26986  0.06566  1.0000
  H   H222      1.0  0.28479  0.31693  0.14672  1.0000
  H   H223      1.0  0.28213  0.16115  0.03558  1.0000
  C   C154      1.0  0.26579  0.13880  0.22438  1.0000
  C   C155      1.0  0.31216  0.13252  0.10476  1.0000
  H   H224      1.0  0.25403  0.14677  0.20726  1.0000
  H   H225      1.0  0.08460  0.19899  0.22314  1.0000
  C   C156      1.0  0.27301  0.27768  0.07435  1.0000
  H   H226      1.0  0.30096  0.30904  0.17342  1.0000
  C   C157      1.0  0.08499  0.20805  0.21354  1.0000
  H   H227      1.0  0.26957  0.28701  0.07978  1.0000
  H   H228      1.0  0.10680  0.29442  0.06941  1.0000
  H   H229      1.0  0.29409  0.29165  0.07001  1.0000
  H   H230      1.0  0.15437  0.99037  0.22048  1.0000
  H   H231      1.0  0.03795  0.21237  0.15963  1.0000
  Fe  Fe31      1.0  0.22763  0.30580  0.08993  1.0000
  C   C158      1.0  0.29933  0.24549  0.09074  1.0000
  H   H232      1.0  0.28926  0.25890  0.10645  1.0000
  H   H233      1.0  0.11826  0.28887  0.08224  1.0000
  S   S68       1.0  0.18054  0.26907  0.00083  1.0000
  H   H234      1.0  0.26322  0.29541  0.13918  1.0000
  H   H235      1.0  0.22515  0.01307  0.10608  1.0000
  S   S69       1.0  0.13187  0.10178  0.22288  1.0000
  H   H236      1.0  0.28636  0.27703  0.13607  1.0000
  H   H237      1.0  0.19384  0.28574  0.01681  1.0000
  C   C159      1.0  0.07457  0.29409  0.11972  1.0000
  Fe  Fe32      1.0  0.16229  0.26664  0.99236  1.0000
  S   S70       1.0  0.31222  0.23097  0.06830  1.0000
  H   H238      1.0  0.02935  0.19320  0.13631  1.0000
  C   C160      1.0  0.30398  0.17720  0.20385  1.0000
  C   C161      1.0  0.29263  0.17331  0.14774  1.0000
  C   C162      1.0  0.21379  0.01602  0.11187  1.0000
  H   H239      1.0  0.08475  0.29948  0.15328  1.0000
  H   H240      1.0  0.29993  0.17538  0.19508  1.0000
  H   H241      1.0  0.03219  0.10697  0.19152  1.0000
  H   H242      1.0  0.20713  0.02097  0.10355  1.0000
  H   H243      1.0  0.28274  0.17065  0.14663  1.0000
  C   C163      1.0  0.29686  0.28249  0.06441  1.0000
  C   C164      1.0  0.27819  0.29328  0.05083  1.0000
  H   H244      1.0  0.02880  0.12203  0.17686  1.0000
  H   H245      1.0  0.99988  0.21604  0.15798  1.0000
  H   H246      1.0  0.08509  0.23553  0.19999  1.0000
  H   H247      1.0  0.22323  0.20823  0.01248  1.0000
  H   H248      1.0  0.15083  0.27383  0.05684  1.0000
  H   H249      1.0  0.18656  0.01269  0.12193  1.0000
  H   H250      1.0  0.26325  0.27572  0.07218  1.0000
  C   C165      1.0  0.32228  0.30123  0.16181  1.0000
  H   H251      1.0  0.19597  0.23409  0.99013  1.0000
  H   H252      1.0  0.31097  0.17327  0.11313  1.0000
  H   H253      1.0  0.06602  0.24231  0.20480  1.0000
  H   H254      1.0  0.28803  0.27738  0.15383  1.0000
  C   C166      1.0  0.25097  0.99054  0.09969  1.0000
  H   H255      1.0  0.24150  0.99229  0.06822  1.0000
  Fe  Fe33      1.0  0.18307  0.08427  0.20434  1.0000
  N   N15       1.0  0.28403  0.28027  0.06093  1.0000
  C   C167      1.0  0.20958  0.99237  0.11395  1.0000
  S   S71       1.0  0.22152  0.30251  0.04131  1.0000
  H   H256      1.0  0.12852  0.31160  0.22171  1.0000
  H   H257      1.0  0.29222  0.25759  0.06157  1.0000
  S   S72       1.0  0.32017  0.28343  0.16501  1.0000
  C   C168      1.0  0.08978  0.30278  0.13005  1.0000
  S   S73       1.0  0.20270  0.17538  0.99831  1.0000
  C   C169      1.0  0.30228  0.17319  0.22951  1.0000
  H   H258      1.0  0.16386  0.99831  0.18473  1.0000
  H   H259      1.0  0.17871  0.22198  0.98657  1.0000
  H   H260      1.0  0.30215  0.18478  0.22854  1.0000
  C   C170      1.0  0.28988  0.30526  0.14770  1.0000
  N   N16       1.0  0.30096  0.17943  0.13354  1.0000
  H   H261      1.0  0.22953  0.99325  0.12731  1.0000
  C   C171      1.0  0.19386  0.00783  0.12967  1.0000
  H   H262      1.0  0.09588  0.21058  0.21082  1.0000
  H   H263      1.0  0.28812  0.30019  0.15945  1.0000
  H   H264      1.0  0.31242  0.15881  0.12880  1.0000
  H   H265      1.0  0.14924  0.12554  0.21290  1.0000
  H   H266      1.0  0.32058  0.18727  0.12503  1.0000
  Fe  Fe34      1.0  0.30968  0.12993  0.15911  1.0000
  H   H267      1.0  0.01842  0.12240  0.20923  1.0000
  H   H268      1.0  0.23623  0.08593  0.22752  1.0000
  C   C172      1.0  0.99658  0.16197  0.20683  1.0000
  H   H269      1.0  0.21832  0.00523  0.13864  1.0000
  Fe  Fe35      1.0  0.11165  0.31651  0.14490  1.0000
  H   H270      1.0  0.17455  0.12230  0.21518  1.0000
  H   H271      1.0  0.28264  0.31656  0.12186  1.0000
  C   C173      1.0  0.17029  0.12913  0.22344  1.0000
  Fe  Fe36      1.0  0.11535  0.22237  0.23001  1.0000
  H   H272      1.0  0.28954  0.10650  0.22921  1.0000
  H   H273      1.0  0.21597  0.12346  0.23024  1.0000
  H   H274      1.0  0.21593  0.30315  0.22961  1.0000
  H   H275      1.0  0.29059  0.15098  0.23038  1.0000
  H   H276      1.0  0.05814  0.20852  0.23013  1.0000
  H   H277      1.0  0.15985  0.10507  0.23059  1.0000
  S   S74       1.0  0.30216  0.23992  0.41729  1.0000
  S   S75       1.0  0.28484  0.27966  0.40775  1.0000
  H   H278      1.0  0.25811  0.09056  0.25765  1.0000
  Fe  Fe37      1.0  0.24108  0.14743  0.25073  1.0000
  S   S76       1.0  0.24276  0.12443  0.26290  1.0000
  H   H279      1.0  0.19115  0.09319  0.25865  1.0000
  Fe  Fe38      1.0  0.21331  0.15813  0.27014  1.0000
  S   S77       1.0  0.21272  0.13612  0.28403  1.0000
  S   S78       1.0  0.19619  0.17725  0.27582  1.0000
  Fe  Fe39      1.0  0.23623  0.13436  0.28243  1.0000
  S   S79       1.0  0.24618  0.12506  0.30205  1.0000
  Fe  Fe40      1.0  0.21912  0.12851  0.26302  1.0000
  S   S80       1.0  0.20754  0.11190  0.26148  1.0000
  S   S81       1.0  0.23626  0.15700  0.27014  1.0000
  S   S82       1.0  0.21810  0.15086  0.24918  1.0000
  C   C174      1.0  0.21139  0.31635  0.25956  1.0000
  Fe  Fe41      1.0  0.26955  0.20615  0.33676  1.0000
  S   S83       1.0  0.26754  0.22128  0.31542  1.0000
  S   S84       1.0  0.26435  0.21801  0.35502  1.0000
  Fe  Fe42      1.0  0.27676  0.17957  0.32330  1.0000
  S   S85       1.0  0.27595  0.19268  0.30107  1.0000
  S   S86       1.0  0.28148  0.15543  0.32629  1.0000
  Fe  Fe43      1.0  0.28758  0.20648  0.30664  1.0000
  S   S87       1.0  0.30689  0.21451  0.29236  1.0000
  Fe  Fe44      1.0  0.25606  0.20593  0.31219  1.0000
  S   S88       1.0  0.23533  0.21055  0.30485  1.0000
  S   S89       1.0  0.29040  0.19212  0.32806  1.0000
  S   S90       1.0  0.25610  0.19204  0.33431  1.0000
  Fe  Fe45      1.0  0.12909  0.19653  0.24976  1.0000
  S   S91       1.0  0.11581  0.20355  0.27008  1.0000
  H   H280      1.0  0.15028  0.31212  0.34029  1.0000
  H   H281      1.0  0.29579  0.20021  0.43963  1.0000
  S   S92       1.0  0.10079  0.23166  0.24848  1.0000
  H   H282      1.0  0.22423  0.22288  0.35947  1.0000
  Fe  Fe46      1.0  0.12021  0.22544  0.25851  1.0000
  S   S93       1.0  0.12217  0.24276  0.26887  1.0000
  Fe  Fe47      1.0  0.09762  0.20917  0.25851  1.0000
  S   S94       1.0  0.07530  0.20652  0.27047  1.0000
  H   H283      1.0  0.25346  0.30022  0.34154  1.0000
  C   C175      1.0  0.29865  0.21476  0.38011  1.0000
  S   S95       1.0  0.04061  0.17493  0.24698  1.0000
  Fe  Fe48      1.0  0.18316  0.28128  0.32121  1.0000
  S   S96       1.0  0.18794  0.29759  0.30078  1.0000
  S   S97       1.0  0.18896  0.28221  0.34187  1.0000
  Fe  Fe49      1.0  0.17133  0.26417  0.30598  1.0000
  S   S98       1.0  0.17529  0.27960  0.28463  1.0000
  S   S99       1.0  0.16519  0.24314  0.30694  1.0000
  Fe  Fe50      1.0  0.19616  0.27881  0.28996  1.0000
  S   S100      1.0  0.21747  0.27508  0.27470  1.0000
  Fe  Fe51      1.0  0.16647  0.29666  0.29789  1.0000
  S   S101      1.0  0.19294  0.26236  0.31060  1.0000
  S   S102      1.0  0.16089  0.28141  0.31906  1.0000
  C   C176      1.0  0.15341  0.24301  0.29616  1.0000
  C   C177      1.0  0.15125  0.22978  0.29508  1.0000
  C   C178      1.0  0.14210  0.22942  0.28637  1.0000
  C   C179      1.0  0.13479  0.24233  0.27894  1.0000
  C   C180      1.0  0.13690  0.25550  0.28013  1.0000
  C   C181      1.0  0.14627  0.25586  0.28854  1.0000
  H   H284      1.0  0.15666  0.21978  0.30101  1.0000
  H   H285      1.0  0.14049  0.21920  0.28564  1.0000
  H   H286      1.0  0.13120  0.26554  0.27452  1.0000
  H   H287      1.0  0.14776  0.26610  0.28933  1.0000
  C   C182      1.0  0.06636  0.19699  0.26395  1.0000
  C   C183      1.0  0.07345  0.18908  0.25317  1.0000
  C   C184      1.0  0.06571  0.18228  0.24775  1.0000
  C   C185      1.0  0.05090  0.18320  0.25328  1.0000
  C   C186      1.0  0.04400  0.19075  0.26433  1.0000
  C   C187      1.0  0.05165  0.19768  0.26956  1.0000
  H   H288      1.0  0.08489  0.18807  0.24911  1.0000
  H   H289      1.0  0.22068  0.21625  0.33261  1.0000
  H   H290      1.0  0.03262  0.19137  0.26878  1.0000
  H   H291      1.0  0.04609  0.20364  0.27795  1.0000
  H   H292      1.0  0.19938  0.24116  0.24870  1.0000
  H   H293      1.0  0.20760  0.20772  0.25677  1.0000
  C   C188      1.0  0.19506  0.29719  0.34304  1.0000
  H   H294      1.0  0.19834  0.21872  0.24276  1.0000
  H   H295      1.0  0.19058  0.30541  0.24378  1.0000
  Fe  Fe52      1.0  0.30401  0.26182  0.40347  1.0000
  C   C189      1.0  0.30728  0.21577  0.27415  1.0000
  H   H296      1.0  0.16320  0.10826  0.24647  1.0000
  H   H297      1.0  0.20161  0.25299  0.33816  1.0000
  C   C190      1.0  0.23155  0.22766  0.29382  1.0000
  C   C191      1.0  0.24181  0.23630  0.28857  1.0000
  C   C192      1.0  0.23786  0.25075  0.28152  1.0000
  C   C193      1.0  0.22367  0.25645  0.27983  1.0000
  C   C194      1.0  0.21372  0.24752  0.28429  1.0000
  C   C195      1.0  0.21764  0.23313  0.29128  1.0000
  H   H298      1.0  0.25264  0.23202  0.29032  1.0000
  H   H299      1.0  0.24557  0.25765  0.27812  1.0000
  H   H300      1.0  0.20273  0.25193  0.28306  1.0000
  H   H301      1.0  0.20967  0.22651  0.29541  1.0000
  C   C196      1.0  0.18105  0.17617  0.27034  1.0000
  C   C197      1.0  0.16920  0.18779  0.26990  1.0000
  C   C198      1.0  0.15787  0.18746  0.26399  1.0000
  C   C199      1.0  0.15827  0.17542  0.25874  1.0000
  C   C200      1.0  0.16977  0.16354  0.25982  1.0000
  C   C201      1.0  0.18111  0.16391  0.26566  1.0000
  H   H302      1.0  0.16883  0.19711  0.27388  1.0000
  H   H303      1.0  0.14890  0.19657  0.26336  1.0000
  N   N17       1.0  0.22027  0.23572  0.33884  1.0000
  H   H304      1.0  0.18991  0.15467  0.26646  1.0000
  C   C202      1.0  0.15818  0.31529  0.33021  1.0000
  C   C203      1.0  0.20392  0.10873  0.24596  1.0000
  H   H305      1.0  0.25205  0.07410  0.26048  1.0000
  H   H306      1.0  0.26594  0.07095  0.23576  1.0000
  H   H307      1.0  0.26623  0.27155  0.35973  1.0000
  H   H308      1.0  0.23020  0.29257  0.35305  1.0000
  C   C204      1.0  0.19585  0.09830  0.24783  1.0000
  H   H309      1.0  0.28890  0.31746  0.46375  1.0000
  H   H310      1.0  0.31032  0.17915  0.45331  1.0000
  N   N18       1.0  0.24786  0.28875  0.36356  1.0000
  H   H311      1.0  0.30358  0.17695  0.43134  1.0000
  C   C205      1.0  0.25622  0.13403  0.30790  1.0000
  C   C206      1.0  0.25867  0.14786  0.30079  1.0000
  C   C207      1.0  0.26614  0.15476  0.30644  1.0000
  C   C208      1.0  0.27153  0.14767  0.31897  1.0000
  C   C209      1.0  0.26938  0.13375  0.32574  1.0000
  C   C210      1.0  0.26165  0.12707  0.32036  1.0000
  H   H312      1.0  0.25490  0.15314  0.29094  1.0000
  H   H313      1.0  0.26797  0.16541  0.30095  1.0000
  H   H314      1.0  0.27360  0.12812  0.33532  1.0000
  H   H315      1.0  0.25991  0.11637  0.32587  1.0000
  C   C211      1.0  0.28123  0.29306  0.39264  1.0000
  C   C212      1.0  0.29064  0.29331  0.37915  1.0000
  C   C213      1.0  0.28732  0.30416  0.36720  1.0000
  H   H316      1.0  0.31249  0.31361  0.46920  1.0000
  H   H317      1.0  0.27744  0.30483  0.47247  1.0000
  C   C214      1.0  0.26864  0.30372  0.39422  1.0000
  H   H318      1.0  0.30045  0.28518  0.37791  1.0000
  H   H319      1.0  0.15306  0.30156  0.27108  1.0000
  H   H320      1.0  0.22669  0.28412  0.37193  1.0000
  H   H321      1.0  0.26130  0.30344  0.40464  1.0000
  C   C215      1.0  0.20953  0.24732  0.34509  1.0000
  C   C216      1.0  0.29994  0.20405  0.37255  1.0000
  C   C217      1.0  0.28976  0.20519  0.36441  1.0000
  C   C218      1.0  0.27800  0.21688  0.36408  1.0000
  C   C219      1.0  0.27672  0.22761  0.37162  1.0000
  N   N19       1.0  0.18967  0.22427  0.26363  1.0000
  H   H322      1.0  0.30880  0.19479  0.37305  1.0000
  H   H323      1.0  0.29079  0.19680  0.35876  1.0000
  H   H324      1.0  0.26762  0.23663  0.37148  1.0000
  H   H325      1.0  0.16018  0.30627  0.24432  1.0000
  S   S103      1.0  0.31422  0.25382  0.38286  1.0000
  H   H326      1.0  0.22166  0.24805  0.31696  1.0000
  H   H327      1.0  0.23667  0.23349  0.31972  1.0000
  N   N20       1.0  0.32041  0.16820  0.28319  1.0000
  C   C220      1.0  0.22867  0.24203  0.32478  1.0000
  C   C221      1.0  0.24576  0.10494  0.23524  1.0000
  H   H328      1.0  0.20591  0.23079  0.32863  1.0000
  H   H329      1.0  0.30365  0.20888  0.42189  1.0000
  C   C222      1.0  0.31251  0.30186  0.47274  1.0000
  H   H330      1.0  0.10735  0.12371  0.23114  1.0000
  H   H331      1.0  0.19155  0.29154  0.36630  1.0000
  H   H332      1.0  0.15528  0.31246  0.32126  1.0000
  H   H333      1.0  0.23542  0.11004  0.24156  1.0000
  C   C223      1.0  0.18853  0.21701  0.27903  1.0000
  C   C224      1.0  0.19470  0.30670  0.25277  1.0000
  C   C225      1.0  0.31137  0.17796  0.27321  1.0000
  C   C226      1.0  0.26544  0.31466  0.38235  1.0000
  H   H334      1.0  0.14503  0.11040  0.24455  1.0000
  H   H335      1.0  0.27849  0.12783  0.24047  1.0000
  H   H336      1.0  0.23921  0.09066  0.26262  1.0000
  C   C227      1.0  0.15962  0.31452  0.24998  1.0000
  C   C228      1.0  0.25470  0.29984  0.35258  1.0000
  C   C229      1.0  0.23769  0.08287  0.23889  1.0000
  H   H337      1.0  0.31170  0.18595  0.41381  1.0000
  C   C230      1.0  0.15569  0.31181  0.26512  1.0000
  C   C231      1.0  0.28886  0.30578  0.46790  1.0000
  C   C232      1.0  0.31131  0.16027  0.29565  1.0000
  H   H338      1.0  0.18210  0.20852  0.28205  1.0000
  S   S104      1.0  0.11054  0.20034  0.23916  1.0000
  C   C233      1.0  0.27466  0.31477  0.36879  1.0000
  H   H339      1.0  0.28653  0.21498  0.25172  1.0000
  H   H340      1.0  0.15027  0.14810  0.23752  1.0000
  H   H341      1.0  0.22702  0.30298  0.36646  1.0000
  C   C234      1.0  0.21903  0.30514  0.23889  1.0000
  H   H342      1.0  0.20590  0.22097  0.34696  1.0000
  C   C235      1.0  0.15061  0.13644  0.24251  1.0000
  H   H343      1.0  0.25308  0.27414  0.34916  1.0000
  H   H344      1.0  0.32227  0.17064  0.42371  1.0000
  H   H345      1.0  0.30611  0.17189  0.26881  1.0000
  H   H346      1.0  0.24960  0.26577  0.36806  1.0000
  H   H347      1.0  0.31775  0.15272  0.30341  1.0000
  H   H348      1.0  0.26642  0.29782  0.35230  1.0000
  C   C236      1.0  0.29594  0.21534  0.25517  1.0000
  C   C237      1.0  0.21284  0.22549  0.33669  1.0000
  H   H349      1.0  0.19931  0.21166  0.28151  1.0000
  C   C238      1.0  0.23227  0.29221  0.36376  1.0000
  H   H350      1.0  0.29291  0.30046  0.45848  1.0000
  C   C239      1.0  0.24966  0.08593  0.25602  1.0000
  S   S105      1.0  0.31112  0.21243  0.39098  1.0000
  C   C240      1.0  0.30597  0.20309  0.43270  1.0000
  H   H351      1.0  0.13958  0.13549  0.24879  1.0000
  C   C241      1.0  0.31364  0.18046  0.42486  1.0000
  H   H352      1.0  0.20916  0.23080  0.26248  1.0000
  H   H353      1.0  0.25413  0.10999  0.23628  1.0000
  S   S106      1.0  0.13517  0.21796  0.23896  1.0000
  N   N21       1.0  0.15565  0.12746  0.23149  1.0000
  C   C242      1.0  0.23008  0.22800  0.34879  1.0000
  H   H354      1.0  0.19291  0.24381  0.26691  1.0000
  C   C243      1.0  0.25002  0.28857  0.37794  1.0000
  H   H355      1.0  0.06693  0.23538  0.23089  1.0000
  H   H356      1.0  0.16825  0.22299  0.26350  1.0000
  Fe  Fe53      1.0  0.31420  0.23181  0.39717  1.0000
  H   H357      1.0  0.22844  0.31040  0.23451  1.0000
  C   C244      1.0  0.15596  0.11213  0.23863  1.0000
  H   H358      1.0  0.30564  0.15381  0.29219  1.0000
  H   H359      1.0  0.28477  0.21596  0.27719  1.0000
  H   H360      1.0  0.31776  0.29676  0.46328  1.0000
  H   H361      1.0  0.20333  0.24304  0.35595  1.0000
  H   H362      1.0  0.23847  0.21930  0.34432  1.0000
  C   C245      1.0  0.29498  0.21576  0.26960  1.0000
  N   N22       1.0  0.08779  0.22607  0.30096  1.0000
  C   C246      1.0  0.08402  0.21207  0.30254  1.0000
  C   C247      1.0  0.08662  0.23493  0.28642  1.0000
  C   C248      1.0  0.10271  0.22363  0.30281  1.0000
  C   C249      1.0  0.07779  0.23374  0.31199  1.0000
  H   H363      1.0  0.08473  0.20504  0.31338  1.0000
  H   H364      1.0  0.09130  0.20601  0.29433  1.0000
  H   H365      1.0  0.07291  0.21354  0.30093  1.0000
  H   H366      1.0  0.08939  0.24561  0.28473  1.0000
  H   H367      1.0  0.09420  0.22949  0.27798  1.0000
  H   H368      1.0  0.07563  0.23675  0.28438  1.0000
  H   H369      1.0  0.10408  0.21701  0.31367  1.0000
  H   H370      1.0  0.10597  0.23401  0.30141  1.0000
  H   H371      1.0  0.11055  0.21793  0.29460  1.0000
  H   H372      1.0  0.08034  0.24436  0.31104  1.0000
  H   H373      1.0  0.07838  0.22735  0.32311  1.0000
  H   H374      1.0  0.06646  0.23580  0.31081  1.0000
  H   H375      1.0  0.30300  0.27823  0.47397  1.0000
  C   C250      1.0  0.19685  0.21357  0.25447  1.0000
  H   H376      1.0  0.19784  0.29575  0.25941  1.0000
  H   H377      1.0  0.18563  0.31281  0.25973  1.0000
  H   H378      1.0  0.29452  0.30426  0.35672  1.0000
  C   C251      1.0  0.19493  0.29932  0.35667  1.0000
  C   C252      1.0  0.19827  0.31192  0.35800  1.0000
  N   N23       1.0  0.21746  0.17349  0.30892  1.0000
  C   C253      1.0  0.22507  0.18052  0.29475  1.0000
  C   C254      1.0  0.22548  0.17215  0.32013  1.0000
  C   C255      1.0  0.21643  0.15898  0.30821  1.0000
  C   C256      1.0  0.20283  0.18231  0.31254  1.0000
  H   H379      1.0  0.23635  0.17450  0.29193  1.0000
  H   H380      1.0  0.22555  0.19168  0.29470  1.0000
  H   H381      1.0  0.21964  0.18117  0.28595  1.0000
  H   H382      1.0  0.22679  0.18287  0.32070  1.0000
  H   H383      1.0  0.21995  0.16708  0.33101  1.0000
  H   H384      1.0  0.23646  0.16531  0.31785  1.0000
  H   H385      1.0  0.21017  0.15959  0.30009  1.0000
  H   H386      1.0  0.21111  0.15314  0.31880  1.0000
  H   H387      1.0  0.22725  0.15216  0.30510  1.0000
  H   H388      1.0  0.19672  0.17727  0.32312  1.0000
  H   H389      1.0  0.19655  0.18349  0.30423  1.0000
  H   H390      1.0  0.20321  0.19334  0.31318  1.0000
  S   S107      1.0  0.14463  0.17526  0.25054  1.0000
  C   C257      1.0  0.28711  0.22666  0.37946  1.0000
  H   H391      1.0  0.21467  0.25561  0.34627  1.0000
  H   H392      1.0  0.31782  0.18443  0.26389  1.0000
  H   H393      1.0  0.30880  0.21084  0.43740  1.0000
  H   H394      1.0  0.18326  0.22481  0.28624  1.0000
  H   H395      1.0  0.28598  0.23492  0.38532  1.0000
  C   C258      1.0  0.30918  0.21496  0.24533  1.0000
  H   H396      1.0  0.16948  0.23944  0.26725  1.0000
  H   H397      1.0  0.23466  0.24961  0.32596  1.0000
  N   N24       1.0  0.20689  0.31412  0.24725  1.0000
  H   H398      1.0  0.19995  0.30569  0.32014  1.0000
  H   H399      1.0  0.22271  0.29441  0.24575  1.0000
  H   H400      1.0  0.16889  0.30844  0.33158  1.0000
  H   H401      1.0  0.21481  0.30588  0.26691  1.0000
  H   H402      1.0  0.23583  0.23540  0.35073  1.0000
  H   H403      1.0  0.17554  0.23640  0.24917  1.0000
  C   C259      1.0  0.26307  0.08288  0.23215  1.0000
  C   C260      1.0  0.17512  0.23107  0.26076  1.0000
  C   C261      1.0  0.19429  0.09397  0.23586  1.0000
  H   H404      1.0  0.18841  0.08561  0.23750  1.0000
  C   C262      1.0  0.19940  0.30735  0.33071  1.0000
  H   H405      1.0  0.24523  0.29921  0.38101  1.0000
  H   H406      1.0  0.07122  0.17611  0.23952  1.0000
  Fe  Fe54      1.0  0.32365  0.23937  0.42129  1.0000
  H   H407      1.0  0.26168  0.28605  0.37814  1.0000
  C   C263      1.0  0.25446  0.27443  0.35996  1.0000
  H   H408      1.0  0.24985  0.31081  0.35488  1.0000
  H   H409      1.0  0.27191  0.08734  0.23318  1.0000
  C   C264      1.0  0.20998  0.11520  0.23191  1.0000
  C   C265      1.0  0.27552  0.12730  0.23081  1.0000
  C   C266      1.0  0.19817  0.23550  0.26026  1.0000
  H   H410      1.0  0.19720  0.31389  0.36861  1.0000
  H   H411      1.0  0.17002  0.15414  0.25596  1.0000
  H   H412      1.0  0.24503  0.28033  0.38654  1.0000
  C   C267      1.0  0.32032  0.21602  0.26419  1.0000
  H   H413      1.0  0.19042  0.20525  0.25635  1.0000
  H   H414      1.0  0.15783  0.13325  0.25035  1.0000
  H   H415      1.0  0.30290  0.16776  0.30179  1.0000
  H   H416      1.0  0.07528  0.21734  0.23836  1.0000
  H   H417      1.0  0.22716  0.08667  0.24583  1.0000
  N   N25       1.0  0.29778  0.29932  0.47889  1.0000
  N   N26       1.0  0.24905  0.08914  0.24057  1.0000
  H   H418      1.0  0.24023  0.07088  0.24203  1.0000
  N   N27       1.0  0.31769  0.19018  0.43156  1.0000
  H   H419      1.0  0.31933  0.18438  0.29466  1.0000
  H   H420      1.0  0.30275  0.18576  0.27875  1.0000
  S   S108      1.0  0.25825  0.15398  0.23197  1.0000
  H   H421      1.0  0.32149  0.23048  0.30479  1.0000
  C   C268      1.0  0.32123  0.21564  0.24985  1.0000
  H   H422      1.0  0.29636  0.16905  0.24055  1.0000
  H   H423      1.0  0.17796  0.12588  0.23082  1.0000
  C   C269      1.0  0.32016  0.18263  0.44615  1.0000
  S   S109      1.0  0.15243  0.31823  0.29138  1.0000
  H   H424      1.0  0.32322  0.18979  0.45141  1.0000
  H   H425      1.0  0.27443  0.17492  0.23102  1.0000
  C   C270      1.0  0.23910  0.22745  0.65967  1.0000
  S   S110      1.0  0.21205  0.31183  0.56312  1.0000
  S   S111      1.0  0.29867  0.23384  0.64142  1.0000
  S   S112      1.0  0.22043  0.17738  0.71742  1.0000
  H   H426      1.0  0.28262  0.28744  0.52507  1.0000
  C   C271      1.0  0.31199  0.31423  0.52025  1.0000
  Fe  Fe55      1.0  0.30366  0.21806  0.66147  1.0000
  Fe  Fe56      1.0  0.31008  0.24040  0.67331  1.0000
  H   H427      1.0  0.26533  0.22563  0.56003  1.0000
  S   S113      1.0  0.14904  0.02726  0.71864  1.0000
  H   H428      1.0  0.31074  0.29363  0.67250  1.0000
  C   C272      1.0  0.24039  0.24884  0.66670  1.0000
  H   H429      1.0  0.21889  0.07239  0.71840  1.0000
  H   H430      1.0  0.09893  0.28393  0.64937  1.0000
  Fe  Fe57      1.0  0.24084  0.20029  0.61181  1.0000
  S   S114      1.0  0.26072  0.18263  0.61112  1.0000
  S   S115      1.0  0.22836  0.20893  0.59414  1.0000
  Fe  Fe58      1.0  0.24180  0.20470  0.64086  1.0000
  Fe  Fe59      1.0  0.26950  0.19778  0.61828  1.0000
  Fe  Fe60      1.0  0.25165  0.17509  0.63476  1.0000
  S   S116      1.0  0.25168  0.15354  0.64995  1.0000
  S   S117      1.0  0.24990  0.21575  0.61815  1.0000
  S   S118      1.0  0.23077  0.19109  0.63452  1.0000
  Fe  Fe61      1.0  0.16628  0.11773  0.71450  1.0000
  S   S119      1.0  0.17137  0.10653  0.69599  1.0000
  C   C273      1.0  0.23203  0.31755  0.51119  1.0000
  Fe  Fe62      1.0  0.19739  0.11204  0.71631  1.0000
  S   S120      1.0  0.20543  0.10084  0.69786  1.0000
  H   H431      1.0  0.23286  0.25429  0.60943  1.0000
  Fe  Fe63      1.0  0.18946  0.11847  0.68721  1.0000
  S   S121      1.0  0.19325  0.13240  0.66488  1.0000
  Fe  Fe64      1.0  0.18683  0.08992  0.70838  1.0000
  S   S122      1.0  0.19320  0.06578  0.71152  1.0000
  S   S123      1.0  0.18325  0.13072  0.70478  1.0000
  H   H432      1.0  0.17802  0.02601  0.70340  1.0000
  Fe  Fe65      1.0  0.32422  0.27969  0.53028  1.0000
  H   H433      1.0  0.27295  0.26610  0.53920  1.0000
  H   H434      1.0  0.13827  0.22123  0.71324  1.0000
  H   H435      1.0  0.99633  0.11764  0.71892  1.0000
  C   C274      1.0  0.30647  0.22489  0.72753  1.0000
  H   H436      1.0  0.23670  0.17859  0.68758  1.0000
  C   C275      1.0  0.21489  0.30628  0.53064  1.0000
  H   H437      1.0  0.26452  0.28613  0.68884  1.0000
  H   H438      1.0  0.32018  0.20867  0.70804  1.0000
  Fe  Fe66      1.0  0.21237  0.28987  0.57710  1.0000
  H   H439      1.0  0.12981  0.23973  0.70730  1.0000
  S   S124      1.0  0.23340  0.27403  0.57416  1.0000
  H   H440      1.0  0.32085  0.20463  0.63823  1.0000
  Fe  Fe67      1.0  0.31773  0.25007  0.53548  1.0000
  Fe  Fe68      1.0  0.14992  0.21988  0.65964  1.0000
  S   S125      1.0  0.14821  0.22780  0.67952  1.0000
  S   S126      1.0  0.16721  0.22396  0.63968  1.0000
  Fe  Fe69      1.0  0.12526  0.20419  0.67373  1.0000
  S   S127      1.0  0.12128  0.21120  0.69456  1.0000
  S   S128      1.0  0.11356  0.18792  0.67274  1.0000
  Fe  Fe70      1.0  0.12443  0.23257  0.68051  1.0000
  S   S129      1.0  0.10991  0.25241  0.68736  1.0000
  Fe  Fe71      1.0  0.14519  0.20570  0.69160  1.0000
  S   S130      1.0  0.15614  0.19290  0.70969  1.0000
  S   S131      1.0  0.12624  0.22624  0.65967  1.0000
  S   S132      1.0  0.14914  0.19715  0.67168  1.0000
  H   H441      1.0  0.25502  0.27717  0.54200  1.0000
  S   S133      1.0  0.26403  0.26128  0.65668  1.0000
  C   C276      1.0  0.21396  0.27254  0.72889  1.0000
  H   H442      1.0  0.16706  0.31286  0.68311  1.0000
  H   H443      1.0  0.28205  0.16148  0.67949  1.0000
  C   C277      1.0  0.12070  0.26428  0.68632  1.0000
  C   C278      1.0  0.13339  0.26448  0.67577  1.0000
  C   C279      1.0  0.14273  0.27304  0.67561  1.0000
  C   C280      1.0  0.13957  0.28107  0.68626  1.0000
  C   C281      1.0  0.12682  0.28097  0.69678  1.0000
  C   C282      1.0  0.11722  0.27280  0.69662  1.0000
  H   H444      1.0  0.13601  0.25801  0.66775  1.0000
  H   H445      1.0  0.15265  0.27305  0.66756  1.0000
  H   H446      1.0  0.24991  0.29831  0.55252  1.0000
  C   C283      1.0  0.28627  0.19588  0.69225  1.0000
  C   C284      1.0  0.12644  0.28601  0.63758  1.0000
  C   C285      1.0  0.16213  0.25250  0.64086  1.0000
  C   C286      1.0  0.16743  0.24228  0.63217  1.0000
  C   C287      1.0  0.17291  0.24676  0.61735  1.0000
  C   C288      1.0  0.17256  0.26148  0.61115  1.0000
  H   H447      1.0  0.15762  0.27505  0.64144  1.0000
  H   H448      1.0  0.15833  0.24908  0.65236  1.0000
  H   H449      1.0  0.17717  0.23886  0.61059  1.0000
  H   H450      1.0  0.17647  0.26490  0.59965  1.0000
  C   C289      1.0  0.07072  0.18913  0.70552  1.0000
  C   C290      1.0  0.07661  0.20148  0.70022  1.0000
  C   C291      1.0  0.08984  0.20109  0.69030  1.0000
  C   C292      1.0  0.09715  0.18840  0.68547  1.0000
  C   C293      1.0  0.09126  0.17603  0.69075  1.0000
  C   C294      1.0  0.07813  0.17634  0.70089  1.0000
  H   H451      1.0  0.07087  0.21141  0.70369  1.0000
  H   H452      1.0  0.09419  0.21074  0.68609  1.0000
  H   H453      1.0  0.09684  0.16620  0.68702  1.0000
  H   H454      1.0  0.07361  0.16678  0.70491  1.0000
  C   C295      1.0  0.14634  0.14786  0.72193  1.0000
  H   H455      1.0  0.13926  0.16885  0.68017  1.0000
  C   C296      1.0  0.16098  0.16408  0.72225  1.0000
  C   C297      1.0  0.15179  0.17577  0.71535  1.0000
  C   C298      1.0  0.13951  0.17357  0.71239  1.0000
  C   C299      1.0  0.13662  0.15968  0.71596  1.0000
  C   C300      1.0  0.29142  0.30604  0.49159  1.0000
  H   H456      1.0  0.13293  0.25685  0.64316  1.0000
  H   H457      1.0  0.13229  0.18248  0.70716  1.0000
  H   H458      1.0  0.12728  0.15805  0.71332  1.0000
  C   C301      1.0  0.22983  0.22692  0.58702  1.0000
  C   C302      1.0  0.24267  0.23085  0.58611  1.0000
  C   C303      1.0  0.24363  0.24534  0.58194  1.0000
  C   C304      1.0  0.23187  0.25599  0.57833  1.0000
  C   C305      1.0  0.21910  0.25209  0.57873  1.0000
  C   C306      1.0  0.21810  0.23750  0.58303  1.0000
  H   H459      1.0  0.25188  0.22267  0.58867  1.0000
  H   H460      1.0  0.25329  0.24841  0.58209  1.0000
  H   H461      1.0  0.20999  0.26023  0.57583  1.0000
  H   H462      1.0  0.20812  0.23450  0.58367  1.0000
  C   C307      1.0  0.23514  0.14825  0.65421  1.0000
  C   C308      1.0  0.23130  0.13884  0.66739  1.0000
  C   C309      1.0  0.21827  0.13425  0.67085  1.0000
  C   C310      1.0  0.20915  0.13883  0.66103  1.0000
  C   C311      1.0  0.21283  0.14849  0.64798  1.0000
  C   C312      1.0  0.22579  0.15326  0.64459  1.0000
  H   H463      1.0  0.23847  0.13496  0.67488  1.0000
  H   H464      1.0  0.21547  0.12689  0.68098  1.0000
  H   H465      1.0  0.20583  0.15206  0.64033  1.0000
  H   H466      1.0  0.22876  0.16042  0.63434  1.0000
  C   C313      1.0  0.30896  0.21982  0.56677  1.0000
  H   H467      1.0  0.22248  0.25511  0.64137  1.0000
  S   S134      1.0  0.29799  0.24067  0.54524  1.0000
  H   H468      1.0  0.31438  0.16837  0.68440  1.0000
  H   H469      1.0  0.25550  0.14940  0.68179  1.0000
  C   C314      1.0  0.25642  0.15362  0.69091  1.0000
  H   H470      1.0  0.16640  0.15600  0.64917  1.0000
  N   N28       1.0  0.24363  0.28475  0.68722  1.0000
  H   H471      1.0  0.15942  0.13283  0.66010  1.0000
  S   S135      1.0  0.29228  0.20031  0.60750  1.0000
  H   H472      1.0  0.13790  0.26390  0.62409  1.0000
  H   H473      1.0  0.21831  0.26787  0.60332  1.0000
  H   H474      1.0  0.09453  0.13584  0.73036  1.0000
  H   H475      1.0  0.27304  0.19692  0.71346  1.0000
  H   H476      1.0  0.20334  0.24980  0.60941  1.0000
  C   C315      1.0  0.16042  0.03926  0.71547  1.0000
  C   C316      1.0  0.17454  0.03568  0.70777  1.0000
  N   N29       1.0  0.25909  0.16842  0.68589  1.0000
  C   C317      1.0  0.18002  0.05669  0.71185  1.0000
  C   C318      1.0  0.16571  0.06073  0.71898  1.0000
  C   C319      1.0  0.15596  0.05185  0.72103  1.0000
  H   H477      1.0  0.13107  0.28124  0.64739  1.0000
  H   H478      1.0  0.26527  0.14605  0.69584  1.0000
  C   C320      1.0  0.31757  0.21852  0.61159  1.0000
  H   H479      1.0  0.28888  0.28782  0.55401  1.0000
  C   C321      1.0  0.21742  0.15992  0.72086  1.0000
  C   C322      1.0  0.21420  0.15506  0.71020  1.0000
  C   C323      1.0  0.21250  0.14085  0.71276  1.0000
  H   H480      1.0  0.10690  0.27600  0.61963  1.0000
  C   C324      1.0  0.29833  0.28362  0.48332  1.0000
  C   C325      1.0  0.20373  0.31784  0.52700  1.0000
  H   H481      1.0  0.21337  0.16212  0.69989  1.0000
  H   H482      1.0  0.21032  0.13705  0.70437  1.0000
  N   N30       1.0  0.14922  0.15249  0.66769  1.0000
  H   H483      1.0  0.08673  0.01466  0.72969  1.0000
  H   H484      1.0  0.25731  0.21946  0.64395  1.0000
  C   C326      1.0  0.30737  0.21054  0.58047  1.0000
  H   H485      1.0  0.24075  0.28229  0.66714  1.0000
  C   C327      1.0  0.19960  0.26597  0.62886  1.0000
  H   H486      1.0  0.28031  0.20596  0.68706  1.0000
  C   C328      1.0  0.14334  0.15698  0.68168  1.0000
  H   H487      1.0  0.26234  0.26608  0.55713  1.0000
  N   N31       1.0  0.26923  0.20358  0.55810  1.0000
  C   C329      1.0  0.26109  0.21869  0.55561  1.0000
  C   C330      1.0  0.28447  0.20304  0.55071  1.0000
  C   C331      1.0  0.26300  0.19476  0.55235  1.0000
  C   C332      1.0  0.26831  0.19784  0.57377  1.0000
  H   H488      1.0  0.24949  0.21947  0.56088  1.0000
  H   H489      1.0  0.26174  0.22347  0.54388  1.0000
  H   H490      1.0  0.28945  0.20953  0.55493  1.0000
  H   H491      1.0  0.29096  0.19180  0.55234  1.0000
  H   H492      1.0  0.28561  0.20748  0.53888  1.0000
  H   H493      1.0  0.25150  0.19495  0.55782  1.0000
  H   H494      1.0  0.26885  0.18327  0.55407  1.0000
  H   H495      1.0  0.26343  0.19881  0.54055  1.0000
  H   H496      1.0  0.27432  0.18645  0.57609  1.0000
  H   H497      1.0  0.24572  0.17425  0.67030  1.0000
  H   H498      1.0  0.07010  0.02493  0.72477  1.0000
  H   H499      1.0  0.28783  0.27915  0.71715  1.0000
  H   H500      1.0  0.29240  0.27215  0.54653  1.0000
  H   H501      1.0  0.31794  0.22565  0.72318  1.0000
  S   S136      1.0  0.31369  0.27024  0.51871  1.0000
  C   C333      1.0  0.13383  0.23180  0.71653  1.0000
  H   H502      1.0  0.10067  0.26625  0.64627  1.0000
  H   H503      1.0  0.28034  0.30425  0.49661  1.0000
  H   H504      1.0  0.30226  0.21637  0.70532  1.0000
  C   C334      1.0  0.15829  0.15013  0.72545  1.0000
  H   H505      1.0  0.24622  0.15328  0.69920  1.0000
  H   H506      1.0  0.25740  0.28784  0.56774  1.0000
  H   H507      1.0  0.22934  0.31826  0.71536  1.0000
  H   H508      1.0  0.17745  0.31510  0.72556  1.0000
  Fe  Fe72      1.0  0.18219  0.27345  0.72353  1.0000
  H   H509      1.0  0.27233  0.16428  0.66553  1.0000
  H   H510      1.0  0.27007  0.23839  0.64178  1.0000
  H   H511      1.0  0.01034  0.13098  0.72644  1.0000
  H   H512      1.0  0.15165  0.15394  0.68834  1.0000
  H   H513      1.0  0.27962  0.30291  0.53268  1.0000
  H   H514      1.0  0.27120  0.30288  0.71911  1.0000
  N   N32       1.0  0.27099  0.28509  0.54712  1.0000
  C   C335      1.0  0.27472  0.29401  0.53248  1.0000
  H   H515      1.0  0.28742  0.28128  0.48823  1.0000
  C   C336      1.0  0.26508  0.27310  0.54627  1.0000
  C   C337      1.0  0.26014  0.29413  0.55649  1.0000
  H   H516      1.0  0.25192  0.26250  0.68576  1.0000
  C   C338      1.0  0.18437  0.04421  0.70620  1.0000
  C   C339      1.0  0.22296  0.26221  0.61298  1.0000
  C   C340      1.0  0.13782  0.15654  0.65929  1.0000
  C   C341      1.0  0.23298  0.23808  0.66787  1.0000
  H   H517      1.0  0.23409  0.05781  0.72075  1.0000
  H   H518      1.0  0.99182  0.11050  0.67971  1.0000
  H   H519      1.0  0.23761  0.29727  0.52579  1.0000
  H   H520      1.0  0.26407  0.30354  0.55702  1.0000
  C   C342      1.0  0.28200  0.19064  0.70715  1.0000
  S   S137      1.0  0.30547  0.25842  0.65444  1.0000
  H   H521      1.0  0.31880  0.22916  0.61247  1.0000
  H   H522      1.0  0.27547  0.24097  0.57013  1.0000
  S   S138      1.0  0.05403  0.18999  0.71778  1.0000
  H   H523      1.0  0.27288  0.22522  0.59474  1.0000
  C   C343      1.0  0.99871  0.13338  0.72935  1.0000
  S   S139      1.0  0.20592  0.26461  0.72000  1.0000
  H   H524      1.0  0.23325  0.29992  0.67089  1.0000
  S   S140      1.0  0.17205  0.29547  0.71287  1.0000
  H   H525      1.0  0.11076  0.26870  0.65779  1.0000
  H   H526      1.0  0.19136  0.26091  0.63736  1.0000
  C   C344      1.0  0.25398  0.24876  0.65751  1.0000
  H   H527      1.0  0.26391  0.28255  0.67205  1.0000
  N   N33       1.0  0.30416  0.21064  0.72756  1.0000
  H   H528      1.0  0.11925  0.29658  0.63909  1.0000
  H   H529      1.0  0.22625  0.27037  0.61665  1.0000
  H   H530      1.0  0.12167  0.28509  0.61224  1.0000
  S   S141      1.0  0.20285  0.29822  0.59746  1.0000
  H   H531      1.0  0.20231  0.27404  0.63320  1.0000
  C   C345      1.0  0.24570  0.26916  0.69382  1.0000
  C   C346      1.0  0.27807  0.30467  0.72552  1.0000
  C   C347      1.0  0.32065  0.31170  0.50697  1.0000
  C   C348      1.0  0.22901  0.30610  0.52271  1.0000
  C   C349      1.0  0.25991  0.23820  0.64929  1.0000
  Fe  Fe73      1.0  0.15701  0.28454  0.70853  1.0000
  H   H532      1.0  0.12431  0.28728  0.70496  1.0000
  H   H533      1.0  0.12312  0.25483  0.63116  1.0000
  H   H534      1.0  0.23419  0.25748  0.72551  1.0000
  Fe  Fe74      1.0  0.28667  0.24876  0.65644  1.0000
  S   S142      1.0  0.31332  0.30105  0.53610  1.0000
  H   H535      1.0  0.21780  0.23606  0.61550  1.0000
  S   S143      1.0  0.22949  0.21493  0.65959  1.0000
  C   C350      1.0  0.28285  0.22351  0.58692  1.0000
  N   N34       1.0  0.19580  0.18746  0.67483  1.0000
  C   C351      1.0  0.18687  0.17644  0.68059  1.0000
  C   C352      1.0  0.19609  0.19403  0.68663  1.0000
  C   C353      1.0  0.18969  0.19886  0.66349  1.0000
  C   C354      1.0  0.21058  0.18060  0.66850  1.0000
  H   H536      1.0  0.18674  0.17104  0.67202  1.0000
  H   H537      1.0  0.17556  0.18129  0.68519  1.0000
  H   H538      1.0  0.19100  0.16788  0.68941  1.0000
  H   H539      1.0  0.20277  0.20238  0.68262  1.0000
  H   H540      1.0  0.18506  0.19925  0.69164  1.0000
  H   H541      1.0  0.20065  0.18585  0.69541  1.0000
  H   H542      1.0  0.19644  0.20711  0.65864  1.0000
  H   H543      1.0  0.17868  0.20461  0.66789  1.0000
  H   H544      1.0  0.18892  0.19437  0.65451  1.0000
  H   H545      1.0  0.21784  0.18838  0.66496  1.0000
  H   H546      1.0  0.21078  0.17640  0.65897  1.0000
  H   H547      1.0  0.21531  0.17127  0.67627  1.0000
  S   S144      1.0  0.26243  0.18849  0.64186  1.0000
  H   H548      1.0  0.23398  0.30486  0.69391  1.0000
  H   H549      1.0  0.19542  0.04107  0.70068  1.0000
  C   C355      1.0  0.16670  0.27173  0.61979  1.0000
  H   H550      1.0  0.19451  0.27204  0.61955  1.0000
  H   H551      1.0  0.26151  0.18502  0.69493  1.0000
  H   H552      1.0  0.25695  0.19812  0.57969  1.0000
  C   C356      1.0  0.28403  0.27911  0.55327  1.0000
  H   H553      1.0  0.20932  0.23090  0.72324  1.0000
  H   H554      1.0  0.27494  0.17947  0.67075  1.0000
  S   S145      1.0  0.15184  0.29083  0.68659  1.0000
  C   C357      1.0  0.10670  0.27370  0.64764  1.0000
  H   H555      1.0  0.22881  0.23919  0.63396  1.0000
  H   H556      1.0  0.10534  0.29359  0.62282  1.0000
  C   C358      1.0  0.29425  0.21228  0.59054  1.0000
  H   H557      1.0  0.27288  0.20420  0.57854  1.0000
  H   H558      1.0  0.25663  0.30031  0.67555  1.0000
  H   H559      1.0  0.22247  0.23813  0.67493  1.0000
  C   C359      1.0  0.22370  0.06345  0.72656  1.0000
  S   S146      1.0  0.29017  0.23227  0.67659  1.0000
  H   H560      1.0  0.10731  0.27279  0.70468  1.0000
  C   C360      1.0  0.25254  0.22755  0.65039  1.0000
  H   H561      1.0  0.10624  0.23326  0.71753  1.0000
  H   H562      1.0  0.25172  0.26629  0.70265  1.0000
  H   H563      1.0  0.23569  0.25701  0.67307  1.0000
  C   C361      1.0  0.28435  0.23252  0.57311  1.0000
  C   C362      1.0  0.16121  0.15971  0.65948  1.0000
  C   C363      1.0  0.16173  0.26718  0.63468  1.0000
  S   S147      1.0  0.14072  0.28624  0.72913  1.0000
  H   H564      1.0  0.30526  0.27834  0.49133  1.0000
  H   H565      1.0  0.29994  0.27128  0.72917  1.0000
  H   H566      1.0  0.18449  0.23317  0.72163  1.0000
  H   H567      1.0  0.13549  0.28827  0.62828  1.0000
  C   C364      1.0  0.20832  0.24447  0.61895  1.0000
  C   C365      1.0  0.32067  0.25880  0.69007  1.0000
  H   H568      1.0  0.21150  0.24194  0.64590  1.0000
  C   C366      1.0  0.26021  0.17363  0.69826  1.0000
  H   H569      1.0  0.22443  0.28523  0.68052  1.0000
  C   C367      1.0  0.21908  0.24752  0.63698  1.0000
  Fe  Fe75      1.0  0.18177  0.29775  0.59308  1.0000
  C   C368      1.0  0.29798  0.18788  0.68404  1.0000
  H   H570      1.0  0.16232  0.07037  0.72339  1.0000
  C   C369      1.0  0.29732  0.23065  0.56301  1.0000
  H   H571      1.0  0.23520  0.26578  0.69848  1.0000
  H   H572      1.0  0.14291  0.23542  0.71825  1.0000
  H   H573      1.0  0.23133  0.08817  0.72368  1.0000
  H   H574      1.0  0.20041  0.23882  0.62732  1.0000
  H   H575      1.0  0.17048  0.16570  0.72459  1.0000
  H   H576      1.0  0.16572  0.14108  0.73030  1.0000
  S   S148      1.0  0.16495  0.29033  0.61238  1.0000
  S   S149      1.0  0.04298  0.15209  0.71988  1.0000
  H   H577      1.0  0.16311  0.13340  0.67676  1.0000
  H   H578      1.0  0.14584  0.13085  0.67653  1.0000
  N   N35       1.0  0.11863  0.27628  0.63510  1.0000
  H   H579      1.0  0.13387  0.16846  0.65669  1.0000
  C   C370      1.0  0.15458  0.13669  0.67037  1.0000
  S   S150      1.0  0.31768  0.24158  0.69234  1.0000
  S   S151      1.0  0.19156  0.28768  0.57367  1.0000
  C   C371      1.0  0.11285  0.28304  0.62187  1.0000
  H   H580      1.0  0.22509  0.29042  0.70360  1.0000
  C   C372      1.0  0.12857  0.26237  0.63328  1.0000
  H   H581      1.0  0.26955  0.16698  0.70302  1.0000
  N   N36       1.0  0.21247  0.25504  0.62444  1.0000
  H   H582      1.0  0.30739  0.19732  0.71231  1.0000
  Fe  Fe76      1.0  0.31788  0.24197  0.64118  1.0000
  C   C373      1.0  0.27269  0.16841  0.67493  1.0000
  C   C374      1.0  0.30532  0.17458  0.69072  1.0000
  C   C375      1.0  0.30125  0.16949  0.70565  1.0000
  S   S152      1.0  0.07534  0.11889  0.72657  1.0000
  S   S153      1.0  0.17990  0.09997  0.72772  1.0000
  H   H583      1.0  0.24193  0.29085  0.70715  1.0000
  C   C376      1.0  0.24705  0.17806  0.67948  1.0000
  Fe  Fe77      1.0  0.19043  0.31052  0.56110  1.0000
  C   C377      1.0  0.21416  0.13147  0.72597  1.0000
  H   H584      1.0  0.14501  0.05476  0.72685  1.0000
  C   C378      1.0  0.22843  0.26712  0.72950  1.0000
  H   H585      1.0  0.28160  0.27229  0.56430  1.0000
  C   C379      1.0  0.31287  0.27086  0.68203  1.0000
  C   C380      1.0  0.28955  0.17747  0.71386  1.0000
  H   H586      1.0  0.24881  0.18930  0.67531  1.0000
  C   C381      1.0  0.25780  0.28861  0.68066  1.0000
  N   N37       1.0  0.12229  0.23066  0.72968  1.0000
  H   H587      1.0  0.09784  0.09404  0.72285  1.0000
  C   C382      1.0  0.23583  0.29308  0.69849  1.0000
  H   H588      1.0  0.12833  0.15179  0.66544  1.0000
  S   S154      1.0  0.14448  0.13025  0.72326  1.0000
  H   H589      1.0  0.30395  0.26984  0.67824  1.0000
  H   H590      1.0  0.16974  0.15728  0.66577  1.0000
  H   H591      1.0  0.21265  0.29756  0.53976  1.0000
  H   H592      1.0  0.30713  0.15932  0.71084  1.0000
  H   H593      1.0  0.15744  0.17164  0.65677  1.0000
  H   H594      1.0  0.13418  0.15185  0.68813  1.0000
  H   H595      1.0  0.14178  0.15286  0.64888  1.0000
  C   C383      1.0  0.23511  0.28819  0.67596  1.0000
  H   H596      1.0  0.25042  0.17322  0.70701  1.0000
  H   H597      1.0  0.14372  0.31511  0.70076  1.0000
  S   S155      1.0  0.30371  0.19450  0.66551  1.0000
  S   S156      1.0  0.16862  0.26235  0.71711  1.0000
  Fe  Fe78      1.0  0.04858  0.16834  0.72858  1.0000
  H   H598      1.0  0.26502  0.29898  0.52767  1.0000
  H   H599      1.0  0.29802  0.30162  0.50000  1.0000
  H   H600      1.0  0.25920  0.23711  0.72695  1.0000
  H   H601      1.0  0.31621  0.20181  0.58310  1.0000
  H   H602      1.0  0.29985  0.23378  0.72082  1.0000
  H   H603      1.0  0.31899  0.21822  0.55892  1.0000
  S   S157      1.0  0.21177  0.11382  0.72951  1.0000
  H   H604      1.0  0.30715  0.21644  0.61873  1.0000
  C   C384      1.0  0.30870  0.20811  0.71267  1.0000
  H   H605      1.0  0.11135  0.25290  0.72521  1.0000
  H   H606      1.0  0.31667  0.21955  0.60031  1.0000
  C   C385      1.0  0.31663  0.28432  0.67888  1.0000
  H   H607      1.0  0.11417  0.21484  0.72457  1.0000
  C   C386      1.0  0.29434  0.28176  0.72341  1.0000
  H   H608      1.0  0.11190  0.13874  0.72973  1.0000
  H   H609      1.0  0.14876  0.99538  0.72534  1.0000
  H   H610      1.0  0.30271  0.28721  0.71551  1.0000
  H   H611      1.0  0.28206  0.21854  0.72586  1.0000
  C   C387      1.0  0.11048  0.22585  0.72694  1.0000
  H   H612      1.0  0.18550  0.21408  0.72641  1.0000
  S   S158      1.0  0.32408  0.22474  0.65991  1.0000
  H   H613      1.0  0.21141  0.21155  0.72668  1.0000
  H   H614      1.0  0.31717  0.19050  0.62263  1.0000
  H   H615      1.0  0.32210  0.27570  0.58773  1.0000
  H   H616      1.0  0.24641  0.07386  0.72729  1.0000
  H   H617      1.0  0.28607  0.31084  0.71798  1.0000
  H   H618      1.0  0.32301  0.30164  0.57741  1.0000
  C   C388      1.0  0.08864  0.09035  0.73028  1.0000
  H   H619      1.0  0.29064  0.31794  0.48853  1.0000
  S   S159      1.0  0.25000  0.31794  0.50265  1.0000
  H   H620      1.0  0.21632  0.05578  0.73070  1.0000
  H   H621      1.0  0.31949  0.29717  0.48082  1.0000
  H   H622      1.0  0.21456  0.17702  0.93433  1.0000
  C   C389      1.0  0.20541  0.01052  0.80359  1.0000
  H   H623      1.0  0.18885  0.05311  0.74301  1.0000
  C   C390      1.0  0.08996  0.12134  0.75807  1.0000
  H   H624      1.0  0.23998  0.11465  0.82829  1.0000
  Fe  Fe79      1.0  0.19763  0.07029  0.81955  1.0000
  S   S160      1.0  0.21954  0.05826  0.81042  1.0000
  S   S161      1.0  0.19256  0.08259  0.83739  1.0000
  Fe  Fe80      1.0  0.18465  0.06836  0.79507  1.0000
  S   S162      1.0  0.20561  0.05649  0.78411  1.0000
  S   S163      1.0  0.16737  0.07581  0.78200  1.0000
  Fe  Fe81      1.0  0.20736  0.04377  0.80639  1.0000
  S   S164      1.0  0.21567  0.01974  0.80869  1.0000
  Fe  Fe82      1.0  0.21547  0.07206  0.78915  1.0000
  S   S165      1.0  0.23119  0.08343  0.77188  1.0000
  S   S166      1.0  0.18556  0.05466  0.81730  1.0000
  S   S167      1.0  0.19438  0.08495  0.79842  1.0000
  C   C391      1.0  0.18183  0.28598  0.82171  1.0000
  C   C392      1.0  0.01857  0.20293  0.79667  1.0000
  H   H625      1.0  0.09135  0.11144  0.76674  1.0000
  H   H626      1.0  0.22400  0.19606  0.91385  1.0000
  C   C393      1.0  0.21713  0.17025  0.92617  1.0000
  S   S168      1.0  0.04124  0.15427  0.78219  1.0000
  H   H627      1.0  0.21811  0.12076  0.80039  1.0000
  Fe  Fe83      1.0  0.05043  0.21927  0.81862  1.0000
  S   S169      1.0  0.06402  0.19846  0.82825  1.0000
  Fe  Fe84      1.0  0.07661  0.23221  0.80232  1.0000
  S   S170      1.0  0.09225  0.21239  0.81040  1.0000
  S   S171      1.0  0.08294  0.25269  0.78817  1.0000
  Fe  Fe85      1.0  0.07791  0.20047  0.80583  1.0000
  S   S172      1.0  0.08679  0.18348  0.79232  1.0000
  Fe  Fe86      1.0  0.07707  0.21245  0.83194  1.0000
  S   S173      1.0  0.08390  0.20956  0.85320  1.0000
  S   S174      1.0  0.06350  0.22041  0.79604  1.0000
  S   S175      1.0  0.06219  0.23307  0.82413  1.0000
  Fe  Fe87      1.0  0.23936  0.12047  0.86036  1.0000
  S   S176      1.0  0.24138  0.14003  0.84255  1.0000
  S   S177      1.0  0.24215  0.09801  0.85686  1.0000
  Fe  Fe88      1.0  0.23641  0.13640  0.88402  1.0000
  S   S178      1.0  0.23813  0.15757  0.86836  1.0000
  S   S179      1.0  0.23024  0.13147  0.90857  1.0000
  Fe  Fe89      1.0  0.22376  0.15182  0.85751  1.0000
  S   S180      1.0  0.20695  0.16957  0.84854  1.0000
  Fe  Fe90      1.0  0.25573  0.14449  0.85431  1.0000
  S   S181      1.0  0.27582  0.15115  0.83975  1.0000
  S   S182      1.0  0.22023  0.13191  0.87426  1.0000
  S   S183      1.0  0.25546  0.12371  0.87096  1.0000
  Fe  Fe91      1.0  0.28469  0.24294  0.76018  1.0000
  H   H628      1.0  0.13363  0.99626  0.79179  1.0000
  C   C394      1.0  0.28874  0.21035  0.73300  1.0000
  Fe  Fe92      1.0  0.29911  0.25236  0.77870  1.0000
  S   S184      1.0  0.30789  0.22967  0.78920  1.0000
  S   S185      1.0  0.30379  0.27096  0.78431  1.0000
  Fe  Fe93      1.0  0.31294  0.22571  0.76662  1.0000
  H   H629      1.0  0.17260  0.01605  0.76869  1.0000
  Fe  Fe94      1.0  0.28587  0.22601  0.79083  1.0000
  S   S186      1.0  0.27032  0.21775  0.81101  1.0000
  S   S187      1.0  0.30592  0.24878  0.75621  1.0000
  S   S188      1.0  0.27685  0.24919  0.78162  1.0000
  H   H630      1.0  0.29435  0.28723  0.80667  1.0000
  Fe  Fe95      1.0  0.13550  0.24437  0.87973  1.0000
  S   S189      1.0  0.15911  0.23648  0.87154  1.0000
  S   S190      1.0  0.12242  0.24740  0.86273  1.0000
  Fe  Fe96      1.0  0.14075  0.24720  0.90857  1.0000
  S   S191      1.0  0.16448  0.23917  0.90228  1.0000
  S   S192      1.0  0.13129  0.25271  0.93077  1.0000
  Fe  Fe97      1.0  0.16247  0.25359  0.88063  1.0000
  S   S193      1.0  0.17895  0.26736  0.87008  1.0000
  Fe  Fe98      1.0  0.15876  0.22288  0.89387  1.0000
  S   S194      1.0  0.16888  0.19929  0.89958  1.0000
  S   S195      1.0  0.13891  0.26281  0.88727  1.0000
  S   S196      1.0  0.13494  0.22965  0.90171  1.0000
  N   N38       1.0  0.04697  0.20693  0.75564  1.0000
  H   H631      1.0  0.17373  0.30691  0.77695  1.0000
  H   H632      1.0  0.13893  0.31051  0.88434  1.0000
  H   H633      1.0  0.13644  0.00745  0.81661  1.0000
  H   H634      1.0  0.21285  0.08112  0.75426  1.0000
  H   H635      1.0  0.12392  0.12709  0.75030  1.0000
  C   C395      1.0  0.17072  0.02803  0.76560  1.0000
  H   H636      1.0  0.17853  0.05362  0.76107  1.0000
  H   H637      1.0  0.27102  0.31172  0.73298  1.0000
  C   C396      1.0  0.13105  0.99821  0.81897  1.0000
  S   S197      1.0  0.25923  0.14681  0.95169  1.0000
  H   H638      1.0  0.10136  0.22549  0.73649  1.0000
  H   H639      1.0  0.02415  0.19389  0.79161  1.0000
  S   S198      1.0  0.16580  0.27026  0.96774  1.0000
  H   H640      1.0  0.01093  0.13742  0.78670  1.0000
  H   H641      1.0  0.07069  0.26333  0.84550  1.0000
  Fe  Fe99      1.0  0.22553  0.30515  0.76515  1.0000
  C   C397      1.0  0.18329  0.22389  0.73093  1.0000
  C   C398      1.0  0.20555  0.21688  0.97071  1.0000
  C   C399      1.0  0.21351  0.29193  0.74007  1.0000
  H   H642      1.0  0.12552  0.24943  0.73464  1.0000
  H   H643      1.0  0.16357  0.27675  0.82426  1.0000
  C   C400      1.0  0.02545  0.20765  0.80483  1.0000
  C   C401      1.0  0.14153  0.25628  0.94135  1.0000
  C   C402      1.0  0.13542  0.25709  0.95587  1.0000
  C   C403      1.0  0.14288  0.26085  0.96427  1.0000
  C   C404      1.0  0.15639  0.26427  0.95809  1.0000
  C   C405      1.0  0.16254  0.26336  0.94360  1.0000
  C   C406      1.0  0.15529  0.25914  0.93535  1.0000
  H   H644      1.0  0.12478  0.25490  0.96063  1.0000
  C   C407      1.0  0.07636  0.02191  0.73341  1.0000
  H   H645      1.0  0.17292  0.26609  0.93864  1.0000
  H   H646      1.0  0.16017  0.25848  0.92425  1.0000
  C   C408      1.0  0.18003  0.27435  0.85145  1.0000
  C   C409      1.0  0.19072  0.28208  0.84354  1.0000
  C   C410      1.0  0.19164  0.28787  0.82867  1.0000
  S   S199      1.0  0.22391  0.29206  0.78781  1.0000
  C   C411      1.0  0.17116  0.27826  0.82962  1.0000
  C   C412      1.0  0.17027  0.27243  0.84446  1.0000
  H   H647      1.0  0.19825  0.28365  0.84893  1.0000
  H   H648      1.0  0.19983  0.29391  0.82265  1.0000
  H   H649      1.0  0.08260  0.12000  0.75192  1.0000
  H   H650      1.0  0.16198  0.26651  0.85049  1.0000
  H   H651      1.0  0.20773  0.30160  0.74397  1.0000
  H   H652      1.0  0.13496  0.98975  0.74029  1.0000
  Fe  Fe100     1.0  0.23827  0.16038  0.76346  1.0000
  C   C413      1.0  0.28747  0.28252  0.78970  1.0000
  C   C414      1.0  0.27610  0.28475  0.78284  1.0000
  C   C415      1.0  0.26271  0.29326  0.78776  1.0000
  C   C416      1.0  0.26064  0.29930  0.79974  1.0000
  S   S200      1.0  0.23776  0.29638  0.74550  1.0000
  H   H653      1.0  0.29927  0.28368  0.74871  1.0000
  H   H654      1.0  0.27762  0.27993  0.77375  1.0000
  H   H655      1.0  0.25397  0.29497  0.78241  1.0000
  H   H656      1.0  0.05281  0.18446  0.75466  1.0000
  H   H657      1.0  0.10837  0.13464  0.76250  1.0000
  H   H658      1.0  0.23696  0.18239  0.90550  1.0000
  S   S201      1.0  0.24362  0.30877  0.80682  1.0000
  C   C417      1.0  0.23881  0.13537  0.92035  1.0000
  C   C418      1.0  0.23282  0.13279  0.93525  1.0000
  C   C419      1.0  0.23894  0.13624  0.94498  1.0000
  C   C420      1.0  0.25122  0.14217  0.93990  1.0000
  C   C421      1.0  0.25728  0.14462  0.92499  1.0000
  C   C422      1.0  0.25108  0.14129  0.91523  1.0000
  H   H659      1.0  0.22332  0.12821  0.93931  1.0000
  H   H660      1.0  0.23423  0.13421  0.95642  1.0000
  H   H661      1.0  0.26682  0.14914  0.92098  1.0000
  H   H662      1.0  0.25584  0.14327  0.90379  1.0000
  C   C423      1.0  0.19643  0.17793  0.86262  1.0000
  C   C424      1.0  0.19054  0.19274  0.85978  1.0000
  C   C425      1.0  0.18237  0.19948  0.87113  1.0000
  C   C426      1.0  0.17968  0.19136  0.88525  1.0000
  C   C427      1.0  0.18555  0.17653  0.88805  1.0000
  C   C428      1.0  0.19408  0.16986  0.87678  1.0000
  H   H663      1.0  0.19250  0.19904  0.84884  1.0000
  H   H664      1.0  0.17820  0.21094  0.86890  1.0000
  H   H665      1.0  0.18345  0.17017  0.89894  1.0000
  H   H666      1.0  0.19856  0.15840  0.87902  1.0000
  C   C429      1.0  0.27473  0.16972  0.83217  1.0000
  C   C430      1.0  0.28507  0.17422  0.82000  1.0000
  C   C431      1.0  0.28398  0.18896  0.81342  1.0000
  C   C432      1.0  0.27265  0.19925  0.81916  1.0000
  C   C433      1.0  0.26253  0.19477  0.83151  1.0000
  C   C434      1.0  0.26347  0.18005  0.83790  1.0000
  H   H667      1.0  0.29385  0.16627  0.81555  1.0000
  H   H668      1.0  0.29188  0.19234  0.80394  1.0000
  H   H669      1.0  0.25384  0.20270  0.83609  1.0000
  H   H670      1.0  0.25556  0.17673  0.84735  1.0000
  C   C435      1.0  0.09553  0.21916  0.85583  1.0000
  C   C436      1.0  0.09452  0.22105  0.86980  1.0000
  C   C437      1.0  0.10330  0.22897  0.87226  1.0000
  C   C438      1.0  0.11323  0.23505  0.86075  1.0000
  C   C439      1.0  0.11463  0.23269  0.84689  1.0000
  C   C440      1.0  0.10586  0.22475  0.84443  1.0000
  H   H671      1.0  0.08662  0.21668  0.87871  1.0000
  H   H672      1.0  0.10194  0.23088  0.88294  1.0000
  H   H673      1.0  0.12237  0.23727  0.83796  1.0000
  H   H674      1.0  0.10700  0.22303  0.83371  1.0000
  H   H675      1.0  0.01353  0.15011  0.76990  1.0000
  C   C441      1.0  0.27209  0.29723  0.80647  1.0000
  H   H676      1.0  0.00888  0.15666  0.79918  1.0000
  C   C442      1.0  0.24381  0.22661  0.74355  1.0000
  N   N39       1.0  0.99493  0.15724  0.78539  1.0000
  C   C443      1.0  0.12056  0.26099  0.76228  1.0000
  C   C444      1.0  0.10628  0.26261  0.77016  1.0000
  C   C445      1.0  0.10078  0.25046  0.77827  1.0000
  C   C446      1.0  0.10961  0.23672  0.77849  1.0000
  H   H677      1.0  0.21012  0.16221  0.93018  1.0000
  H   H678      1.0  0.12470  0.27039  0.75596  1.0000
  H   H679      1.0  0.09947  0.27328  0.76990  1.0000
  H   H680      1.0  0.10542  0.22728  0.78441  1.0000
  C   C447      1.0  0.05397  0.16237  0.78491  1.0000
  C   C448      1.0  0.06763  0.16172  0.77584  1.0000
  C   C449      1.0  0.07772  0.16800  0.77836  1.0000
  C   C450      1.0  0.07410  0.17527  0.78976  1.0000
  C   C451      1.0  0.06038  0.17608  0.79872  1.0000
  C   C452      1.0  0.05041  0.16951  0.79640  1.0000
  C   C453      1.0  0.21139  0.99649  0.80123  1.0000
  C   C454      1.0  0.18977  0.99593  0.79422  1.0000
  H   H681      1.0  0.05756  0.18156  0.80760  1.0000
  H   H682      1.0  0.03990  0.16998  0.80351  1.0000
  Fe  Fe101     1.0  0.13127  0.02790  0.73830  1.0000
  H   H683      1.0  0.21582  0.21978  0.73875  1.0000
  H   H684      1.0  0.07695  0.27627  0.80577  1.0000
  H   H685      1.0  0.18998  0.25021  0.97778  1.0000
  C   C455      1.0  0.19204  0.20925  0.75204  1.0000
  C   C456      1.0  0.19141  0.01707  0.80167  1.0000
  C   C457      1.0  0.18357  0.00971  0.79717  1.0000
  H   H686      1.0  0.18661  0.02777  0.80375  1.0000
  H   H687      1.0  0.17266  0.01470  0.79601  1.0000
  C   C458      1.0  0.20670  0.08723  0.84187  1.0000
  C   C459      1.0  0.22055  0.07850  0.84044  1.0000
  C   C460      1.0  0.23129  0.08183  0.84521  1.0000
  C   C461      1.0  0.22839  0.09413  0.85103  1.0000
  C   C462      1.0  0.21470  0.10312  0.85204  1.0000
  C   C463      1.0  0.20384  0.09954  0.84769  1.0000
  H   H688      1.0  0.22281  0.06888  0.83617  1.0000
  H   H689      1.0  0.24182  0.07475  0.84449  1.0000
  H   H690      1.0  0.21233  0.11265  0.85647  1.0000
  H   H691      1.0  0.19314  0.10631  0.84888  1.0000
  C   C464      1.0  0.15663  0.06325  0.78465  1.0000
  C   C465      1.0  0.14836  0.06473  0.77453  1.0000
  C   C466      1.0  0.14032  0.05439  0.77605  1.0000
  C   C467      1.0  0.14027  0.04269  0.78788  1.0000
  C   C468      1.0  0.14824  0.04143  0.79819  1.0000
  C   C469      1.0  0.15657  0.05156  0.79647  1.0000
  S   S202      1.0  0.28477  0.17099  0.73252  1.0000
  H   H692      1.0  0.10773  0.99243  0.73522  1.0000
  H   H693      1.0  0.14828  0.03240  0.80735  1.0000
  H   H694      1.0  0.16288  0.05036  0.80435  1.0000
  H   H695      1.0  0.30346  0.22705  0.73859  1.0000
  C   C470      1.0  0.24178  0.22927  0.76787  1.0000
  C   C471      1.0  0.25272  0.23711  0.76275  1.0000
  H   H696      1.0  0.26690  0.28997  0.75139  1.0000
  H   H697      1.0  0.20410  0.06898  0.75069  1.0000
  Fe  Fe102     1.0  0.23213  0.17685  0.73425  1.0000
  H   H698      1.0  0.23691  0.22716  0.77927  1.0000
  H   H699      1.0  0.25621  0.24104  0.77023  1.0000
  H   H700      1.0  0.17644  0.03038  0.73733  1.0000
  S   S203      1.0  0.16829  0.27454  0.74550  1.0000
  C   C472      1.0  0.23134  0.12723  0.77946  1.0000
  H   H701      1.0  0.07561  0.99369  0.74258  1.0000
  C   C473      1.0  0.23859  0.10976  0.76408  1.0000
  C   C474      1.0  0.23126  0.10020  0.77493  1.0000
  C   C475      1.0  0.22400  0.10416  0.78808  1.0000
  C   C476      1.0  0.22388  0.11772  0.79025  1.0000
  H   H702      1.0  0.03628  0.20225  0.80608  1.0000
  Fe  Fe103     1.0  0.05653  0.13578  0.73468  1.0000
  H   H703      1.0  0.21859  0.09674  0.79666  1.0000
  N   N40       1.0  0.24386  0.08774  0.90410  1.0000
  C   C477      1.0  0.25382  0.08257  0.89144  1.0000
  C   C478      1.0  0.25102  0.09558  0.91006  1.0000
  C   C479      1.0  0.23966  0.07531  0.91528  1.0000
  C   C480      1.0  0.23089  0.09756  0.89957  1.0000
  H   H704      1.0  0.24864  0.07689  0.88647  1.0000
  H   H705      1.0  0.26372  0.07503  0.89440  1.0000
  H   H706      1.0  0.25723  0.09170  0.88280  1.0000
  H   H707      1.0  0.24372  0.09980  0.91953  1.0000
  H   H708      1.0  0.26087  0.08855  0.91362  1.0000
  H   H709      1.0  0.25425  0.10510  0.90193  1.0000
  H   H710      1.0  0.24919  0.06767  0.91897  1.0000
  H   H711      1.0  0.23420  0.06920  0.91111  1.0000
  H   H712      1.0  0.23209  0.07889  0.92494  1.0000
  H   H713      1.0  0.22314  0.10186  0.90876  1.0000
  H   H714      1.0  0.22524  0.09213  0.89484  1.0000
  H   H715      1.0  0.23378  0.10699  0.89119  1.0000
  H   H716      1.0  0.17821  0.23623  0.75393  1.0000
  H   H717      1.0  0.15916  0.12314  0.78208  1.0000
  H   H718      1.0  0.13797  0.26154  0.97539  1.0000
  C   C481      1.0  0.05471  0.20491  0.76725  1.0000
  C   C482      1.0  0.20808  0.22104  0.73188  1.0000
  C   C483      1.0  0.26621  0.11727  0.81393  1.0000
  C   C484      1.0  0.20361  0.98921  0.79650  1.0000
  C   C485      1.0  0.24215  0.11404  0.81675  1.0000
  N   N41       1.0  0.19317  0.22232  0.74048  1.0000
  C   C486      1.0  0.15796  0.28718  0.89414  1.0000
  S   S204      1.0  0.25146  0.17544  0.76409  1.0000
  H   H719      1.0  0.20373  0.20978  0.96453  1.0000
  C   C487      1.0  0.26176  0.09326  0.81871  1.0000
  Fe  Fe104     1.0  0.02495  0.15053  0.73965  1.0000
  C   C488      1.0  0.07588  0.10037  0.73395  1.0000
  C   C489      1.0  0.19660  0.23870  0.95449  1.0000
  N   N42       1.0  0.10392  0.12361  0.74853  1.0000
  C   C490      1.0  0.22817  0.28677  0.74016  1.0000
  C   C491      1.0  0.11671  0.24494  0.73360  1.0000
  H   H720      1.0  0.09634  0.14651  0.74180  1.0000
  H   H721      1.0  0.20243  0.11421  0.75821  1.0000
  S   S205      1.0  0.23246  0.14338  0.78314  1.0000
  H   H722      1.0  0.15983  0.99021  0.81486  1.0000
  H   H723      1.0  0.16842  0.03212  0.77563  1.0000
  H   H724      1.0  0.30289  0.29915  0.73469  1.0000
  S   S206      1.0  0.03814  0.13306  0.75389  1.0000
  C   C492      1.0  0.06541  0.00149  0.74574  1.0000
  S   S207      1.0  0.10266  0.02179  0.77325  1.0000
  H   H725      1.0  0.18794  0.13872  0.75419  1.0000
  N   N43       1.0  0.22573  0.06895  0.73834  1.0000
  C   C493      1.0  0.17458  0.11763  0.75630  1.0000
  C   C494      1.0  0.27417  0.28331  0.74369  1.0000
  H   H726      1.0  0.26014  0.09230  0.83055  1.0000
  N   N44       1.0  0.23728  0.18198  0.80906  1.0000
  C   C495      1.0  0.25259  0.17453  0.80724  1.0000
  C   C496      1.0  0.22851  0.17212  0.80859  1.0000
  C   C497      1.0  0.23559  0.19492  0.79731  1.0000
  C   C498      1.0  0.23244  0.18644  0.82311  1.0000
  H   H727      1.0  0.25951  0.18184  0.80714  1.0000
  H   H728      1.0  0.25652  0.17075  0.79688  1.0000
  H   H729      1.0  0.25441  0.16497  0.81619  1.0000
  H   H730      1.0  0.21690  0.17743  0.80987  1.0000
  H   H731      1.0  0.23190  0.16844  0.79816  1.0000
  H   H732      1.0  0.22938  0.16236  0.81748  1.0000
  H   H733      1.0  0.22417  0.20080  0.79818  1.0000
  H   H734      1.0  0.23926  0.19202  0.78654  1.0000
  H   H735      1.0  0.24205  0.20262  0.79736  1.0000
  H   H736      1.0  0.22071  0.19130  0.82524  1.0000
  H   H737      1.0  0.23818  0.19457  0.82348  1.0000
  H   H738      1.0  0.23438  0.17708  0.83221  1.0000
  N   N45       1.0  0.24416  0.25764  0.81889  1.0000
  C   C499      1.0  0.23963  0.24581  0.83073  1.0000
  C   C500      1.0  0.25944  0.25744  0.81787  1.0000
  C   C501      1.0  0.23519  0.27163  0.82185  1.0000
  C   C502      1.0  0.24238  0.25570  0.80510  1.0000
  H   H739      1.0  0.22816  0.24564  0.83176  1.0000
  H   H740      1.0  0.24083  0.24694  0.84130  1.0000
  H   H741      1.0  0.24625  0.23510  0.82882  1.0000
  H   H742      1.0  0.26324  0.26618  0.80899  1.0000
  H   H743      1.0  0.26119  0.25902  0.82803  1.0000
  H   H744      1.0  0.26653  0.24701  0.81570  1.0000
  H   H745      1.0  0.23834  0.28074  0.81309  1.0000
  H   H746      1.0  0.23636  0.27360  0.83208  1.0000
  H   H747      1.0  0.22358  0.27221  0.82270  1.0000
  H   H748      1.0  0.24613  0.26420  0.79586  1.0000
  H   H749      1.0  0.23091  0.25626  0.80530  1.0000
  H   H750      1.0  0.24867  0.24505  0.80275  1.0000
  H   H751      1.0  0.22842  0.16414  0.92589  1.0000
  N   N46       1.0  0.13988  0.19279  0.87412  1.0000
  C   C503      1.0  0.14005  0.18467  0.88912  1.0000
  C   C504      1.0  0.12623  0.19303  0.87043  1.0000
  C   C505      1.0  0.15211  0.18576  0.86410  1.0000
  C   C506      1.0  0.14114  0.20774  0.87285  1.0000
  H   H752      1.0  0.13896  0.17337  0.89057  1.0000
  H   H753      1.0  0.13113  0.18986  0.89699  1.0000
  H   H754      1.0  0.15028  0.18419  0.89220  1.0000
  H   H755      1.0  0.12552  0.19948  0.85934  1.0000
  H   H756      1.0  0.12503  0.18197  0.87089  1.0000
  H   H757      1.0  0.11677  0.19790  0.87803  1.0000
  H   H758      1.0  0.15245  0.19176  0.85270  1.0000
  H   H759      1.0  0.15144  0.17450  0.86466  1.0000
  H   H760      1.0  0.16256  0.18522  0.86671  1.0000
  H   H761      1.0  0.14139  0.21419  0.86161  1.0000
  H   H762      1.0  0.15113  0.20791  0.87595  1.0000
  H   H763      1.0  0.13192  0.21349  0.88001  1.0000
  H   H764      1.0  0.21897  0.12905  0.74674  1.0000
  C   C507      1.0  0.21166  0.07640  0.74563  1.0000
  C   C508      1.0  0.25906  0.23987  0.74802  1.0000
  H   H765      1.0  0.00171  0.20882  0.83921  1.0000
  H   H766      1.0  0.10875  0.24435  0.74408  1.0000
  H   H767      1.0  0.07127  0.00590  0.76916  1.0000
  H   H768      1.0  0.19502  0.03124  0.73374  1.0000
  H   H769      1.0  0.13653  0.28024  0.91632  1.0000
  S   S208      1.0  0.18036  0.98800  0.78661  1.0000
  C   C509      1.0  0.00405  0.22593  0.81018  1.0000
  C   C510      1.0  0.11085  0.11106  0.74172  1.0000
  H   H770      1.0  0.14957  0.00080  0.79318  1.0000
  H   H771      1.0  0.99975  0.14010  0.77394  1.0000
  C   C511      1.0  0.08953  0.07552  0.73604  1.0000
  H   H772      1.0  0.18904  0.24941  0.95354  1.0000
  Fe  Fe105     1.0  0.11456  0.00617  0.75892  1.0000
  H   H773      1.0  0.25746  0.12053  0.78948  1.0000
  N   N47       1.0  0.14720  0.29702  0.90274  1.0000
  H   H774      1.0  0.05653  0.03516  0.75294  1.0000
  C   C512      1.0  0.31273  0.19924  0.73699  1.0000
  H   H775      1.0  0.17000  0.05324  0.74725  1.0000
  H   H776      1.0  0.23535  0.10699  0.81600  1.0000
  C   C513      1.0  0.21753  0.13628  0.73656  1.0000
  H   H777      1.0  0.20569  0.03094  0.75439  1.0000
  H   H778      1.0  0.12927  0.28968  0.90070  1.0000
  H   H779      1.0  0.19428  0.23268  0.94757  1.0000
  C   C514      1.0  0.18006  0.04893  0.75148  1.0000
  H   H780      1.0  0.19935  0.20777  0.75946  1.0000
  C   C515      1.0  0.06393  0.09545  0.74329  1.0000
  H   H781      1.0  0.10411  0.10974  0.73490  1.0000
  S   S209      1.0  0.13588  0.01088  0.75777  1.0000
  C   C516      1.0  0.18075  0.13557  0.76485  1.0000
  H   H782      1.0  0.16313  0.30299  0.90998  1.0000
  C   C517      1.0  0.16630  0.31552  0.77094  1.0000
  H   H783      1.0  0.24042  0.22259  0.73607  1.0000
  H   H784      1.0  0.08744  0.00405  0.75552  1.0000
  C   C518      1.0  0.00447  0.20978  0.79515  1.0000
  S   S210      1.0  0.29187  0.21950  0.76942  1.0000
  Fe  Fe106     1.0  0.12366  0.02807  0.77014  1.0000
  H   H785      1.0  0.03724  0.19450  0.74759  1.0000
  H   H786      1.0  0.22218  0.99134  0.80281  1.0000
  C   C519      1.0  0.03373  0.21826  0.75758  1.0000
  H   H787      1.0  0.19687  0.23442  0.75395  1.0000
  S   S211      1.0  0.99633  0.20406  0.78435  1.0000
  H   H788      1.0  0.17384  0.10612  0.75830  1.0000
  C   C520      1.0  0.10156  0.13677  0.73712  1.0000
  H   H789      1.0  0.01068  0.16979  0.78257  1.0000
  S   S212      1.0  0.06330  0.15238  0.74185  1.0000
  H   H790      1.0  0.17787  0.22158  0.96865  1.0000
  H   H791      1.0  0.30958  0.20080  0.74831  1.0000
  H   H792      1.0  0.27165  0.10478  0.79103  1.0000
  N   N48       1.0  0.08524  0.26432  0.82470  1.0000
  C   C521      1.0  0.09648  0.25437  0.81661  1.0000
  C   C522      1.0  0.23754  0.22376  0.75832  1.0000
  C   C523      1.0  0.99721  0.22127  0.80195  1.0000
  C   C524      1.0  0.07323  0.27048  0.81704  1.0000
  H   H793      1.0  0.09241  0.24500  0.81617  1.0000
  H   H794      1.0  0.10604  0.25008  0.82159  1.0000
  H   H795      1.0  0.10025  0.25984  0.80523  1.0000
  C   C525      1.0  0.05632  0.21129  0.74143  1.0000
  H   H796      1.0  0.24458  0.13040  0.75803  1.0000
  C   C526      1.0  0.23558  0.27433  0.73494  1.0000
  H   H797      1.0  0.14533  0.30576  0.92121  1.0000
  H   H798      1.0  0.16064  0.27609  0.90076  1.0000
  H   H799      1.0  0.08838  0.25252  0.84590  1.0000
  H   H800      1.0  0.07054  0.15614  0.76707  1.0000
  H   H801      1.0  0.06832  0.26188  0.81616  1.0000
  H   H802      1.0  0.03618  0.22871  0.75743  1.0000
  C   C527      1.0  0.11332  0.12527  0.75718  1.0000
  H   H803      1.0  0.19493  0.19939  0.74747  1.0000
  S   S213      1.0  0.12070  0.04567  0.75050  1.0000
  N   N49       1.0  0.06831  0.01491  0.74735  1.0000
  H   H804      1.0  0.27050  0.30194  0.81570  1.0000
  N   N50       1.0  0.25758  0.10844  0.81123  1.0000
  H   H805      1.0  0.22912  0.16302  0.90023  1.0000
  H   H806      1.0  0.23652  0.08430  0.74067  1.0000
  N   N51       1.0  0.18001  0.12021  0.76783  1.0000
  C   C528      1.0  0.14363  0.99191  0.79613  1.0000
  H   H807      1.0  0.15612  0.28792  0.92172  1.0000
  C   C529      1.0  0.19454  0.11113  0.76823  1.0000
  H   H808      1.0  0.12151  0.11234  0.73460  1.0000
  N   N52       1.0  0.21528  0.17907  0.91176  1.0000
  C   C530      1.0  0.22565  0.18870  0.90642  1.0000
  C   C531      1.0  0.21791  0.16952  0.90157  1.0000
  H   H809      1.0  0.16938  0.10492  0.78437  1.0000
  H   H810      1.0  0.20649  0.08543  0.73788  1.0000
  H   H811      1.0  0.22458  0.19549  0.89553  1.0000
  H   H812      1.0  0.21060  0.16176  0.90543  1.0000
  H   H813      1.0  0.21620  0.17579  0.89068  1.0000
  C   C532      1.0  0.12393  0.23511  0.77083  1.0000
  H   H814      1.0  0.19235  0.18089  0.91652  1.0000
  H   H815      1.0  0.12087  0.00257  0.81493  1.0000
  H   H816      1.0  0.16821  0.29102  0.88946  1.0000
  C   C533      1.0  0.20046  0.18783  0.91282  1.0000
  H   H817      1.0  0.22117  0.15422  0.74252  1.0000
  H   H818      1.0  0.15921  0.31003  0.76818  1.0000
  C   C534      1.0  0.04309  0.19325  0.75624  1.0000
  H   H819      1.0  0.08832  0.16734  0.77141  1.0000
  H   H820      1.0  0.19876  0.19478  0.90216  1.0000
  H   H821      1.0  0.19793  0.19506  0.92055  1.0000
  S   S214      1.0  0.02609  0.22459  0.82284  1.0000
  H   H822      1.0  0.26463  0.11674  0.82572  1.0000
  H   H823      1.0  0.14836  0.07376  0.76537  1.0000
  H   H824      1.0  0.19834  0.01573  0.76547  1.0000
  H   H825      1.0  0.17411  0.11801  0.79094  1.0000
  C   C535      1.0  0.12938  0.24721  0.76260  1.0000
  H   H826      1.0  0.22498  0.04895  0.75395  1.0000
  S   S215      1.0  0.22516  0.21246  0.76504  1.0000
  C   C536      1.0  0.29419  0.29379  0.74197  1.0000
  C   C537      1.0  0.18611  0.02717  0.74216  1.0000
  H   H827      1.0  0.02770  0.22011  0.74892  1.0000
  H   H828      1.0  0.12575  0.29807  0.91584  1.0000
  H   H829      1.0  0.13071  0.22442  0.77117  1.0000
  C   C538      1.0  0.09141  0.27608  0.82569  1.0000
  S   S216      1.0  0.00071  0.15447  0.74231  1.0000
  H   H830      1.0  0.13259  0.20919  0.73887  1.0000
  C   C539      1.0  0.07754  0.07057  0.74522  1.0000
  C   C540      1.0  0.01818  0.21914  0.81165  1.0000
  Fe  Fe107     1.0  0.15384  0.26493  0.73837  1.0000
  H   H831      1.0  0.06456  0.27817  0.82269  1.0000
  H   H832      1.0  0.11977  0.21883  0.75173  1.0000
  C   C541      1.0  0.15322  0.29852  0.91440  1.0000
  H   H833      1.0  0.18903  0.01516  0.74463  1.0000
  H   H834      1.0  0.09562  0.28223  0.81475  1.0000
  Fe  Fe108     1.0  0.20104  0.30420  0.79156  1.0000
  S   S217      1.0  0.20223  0.31559  0.76834  1.0000
  H   H835      1.0  0.19419  0.03212  0.77183  1.0000
  S   S218      1.0  0.02949  0.16834  0.74685  1.0000
  C   C542      1.0  0.07691  0.01137  0.75853  1.0000
  S   S219      1.0  0.24931  0.15783  0.74086  1.0000
  H   H836      1.0  0.08438  0.13062  0.76335  1.0000
  H   H837      1.0  0.05402  0.10308  0.74608  1.0000
  Fe  Fe109     1.0  0.26091  0.17454  0.74084  1.0000
  C   C543      1.0  0.18927  0.23508  0.74707  1.0000
  S   S220      1.0  0.13124  0.02893  0.78956  1.0000
  S   S221      1.0  0.18255  0.29332  0.80318  1.0000
  C   C544      1.0  0.26019  0.10920  0.79553  1.0000
  C   C545      1.0  0.07987  0.25640  0.83944  1.0000
  S   S222      1.0  0.07824  0.05194  0.75196  1.0000
  S   S223      1.0  0.22014  0.17804  0.75682  1.0000
  H   H838      1.0  0.11256  0.10084  0.74994  1.0000
  H   H839      1.0  0.07614  0.24675  0.83919  1.0000
  Fe  Fe110     1.0  0.04381  0.15121  0.75963  1.0000
  C   C546      1.0  0.14357  0.98609  0.73131  1.0000
  H   H840      1.0  0.12822  0.99452  0.83091  1.0000
  H   H841      1.0  0.10052  0.27175  0.83144  1.0000
  H   H842      1.0  0.08324  0.28381  0.83172  1.0000
  C   C547      1.0  0.12817  0.22004  0.74160  1.0000
  H   H843      1.0  0.16995  0.14278  0.76460  1.0000
  H   H844      1.0  0.03608  0.18951  0.76681  1.0000
  C   C548      1.0  0.14353  0.31131  0.89323  1.0000
  C   C549      1.0  0.23865  0.12324  0.76635  1.0000
  H   H845      1.0  0.27328  0.08861  0.81468  1.0000
  H   H846      1.0  0.26730  0.28072  0.73780  1.0000
  C   C550      1.0  0.28556  0.28897  0.80134  1.0000
  C   C551      1.0  0.20641  0.28486  0.73434  1.0000
  H   H847      1.0  0.06493  0.19670  0.76589  1.0000
  Fe  Fe111     1.0  0.23424  0.19294  0.75537  1.0000
  H   H848      1.0  0.15400  0.28619  0.88491  1.0000
  H   H849      1.0  0.20766  0.24072  0.94998  1.0000
  H   H850      1.0  0.24422  0.10676  0.75388  1.0000
  C   C552      1.0  0.17023  0.11644  0.78192  1.0000
  H   H851      1.0  0.25520  0.08639  0.81715  1.0000
  C   C553      1.0  0.21894  0.15055  0.73410  1.0000
  C   C554      1.0  0.19595  0.02773  0.76199  1.0000
  H   H852      1.0  0.25353  0.10296  0.79310  1.0000
  N   N53       1.0  0.18324  0.03297  0.75529  1.0000
  H   H853      1.0  0.11545  0.11546  0.76578  1.0000
  Fe  Fe112     1.0  0.22847  0.31128  0.79255  1.0000
  S   S224      1.0  0.11078  0.02196  0.73851  1.0000
  H   H854      1.0  0.05539  0.07678  0.75583  1.0000
  C   C555      1.0  0.19754  0.23951  0.97853  1.0000
  C   C556      1.0  0.25441  0.23486  0.73837  1.0000
  N   N54       1.0  0.19499  0.23077  0.96971  1.0000
  H   H855      1.0  0.23835  0.12511  0.81064  1.0000
  H   H856      1.0  0.04814  0.20118  0.77810  1.0000
  C   C557      1.0  0.99153  0.14402  0.73734  1.0000
  C   C558      1.0  0.06471  0.08056  0.74877  1.0000
  Fe  Fe113     1.0  0.15666  0.29571  0.73425  1.0000
  H   H857      1.0  0.28477  0.21272  0.74401  1.0000
  H   H858      1.0  0.20867  0.24147  0.97508  1.0000
  H   H859      1.0  0.26310  0.12883  0.80863  1.0000
  H   H860      1.0  0.05067  0.21319  0.73245  1.0000
  H   H861      1.0  0.18182  0.12021  0.74555  1.0000
  H   H862      1.0  0.19466  0.09955  0.76933  1.0000
  Fe  Fe114     1.0  0.10046  0.03816  0.75262  1.0000
  H   H863      1.0  0.13415  0.05550  0.76810  1.0000
  H   H864      1.0  0.27791  0.11352  0.80972  1.0000
  C   C559      1.0  0.00275  0.16446  0.79129  1.0000
  S   S225      1.0  0.14686  0.24467  0.75193  1.0000
  H   H865      1.0  0.21679  0.21848  0.96657  1.0000
  H   H866      1.0  0.16365  0.12435  0.75559  1.0000
  H   H867      1.0  0.19866  0.11217  0.77730  1.0000
  H   H868      1.0  0.18509  0.13780  0.77321  1.0000
  S   S226      1.0  0.14851  0.31596  0.74300  1.0000
  H   H869      1.0  0.15321  0.31605  0.88813  1.0000
  S   S227      1.0  0.27350  0.24863  0.74185  1.0000
  H   H870      1.0  0.05745  0.21511  0.76744  1.0000
  H   H871      1.0  0.04827  0.02008  0.76228  1.0000
  C   C560      1.0  0.00521  0.14566  0.77874  1.0000
  H   H872      1.0  0.99844  0.23492  0.81532  1.0000
  H   H873      1.0  0.18090  0.20995  0.75869  1.0000
  H   H874      1.0  0.16083  0.03193  0.76104  1.0000
  H   H875      1.0  0.05931  0.99594  0.75605  1.0000
  H   H876      1.0  0.07910  0.02128  0.76017  1.0000
  C   C561      1.0  0.13411  0.29104  0.90915  1.0000
  H   H877      1.0  0.02629  0.21520  0.76805  1.0000
  H   H878      1.0  0.27908  0.27292  0.75015  1.0000
  H   H879      1.0  0.04777  0.02784  0.74356  1.0000
  H   H880      1.0  0.28764  0.30105  0.74942  1.0000
  H   H881      1.0  0.32258  0.27601  0.75771  1.0000
  H   H882      1.0  0.05979  0.22138  0.74068  1.0000
  H   H883      1.0  0.07889  0.03199  0.73430  1.0000
  H   H884      1.0  0.99571  0.17265  0.76515  1.0000
  H   H885      1.0  0.31127  0.18833  0.73722  1.0000
  C   C562      1.0  0.05459  0.02490  0.75172  1.0000
  N   N55       1.0  0.28521  0.29087  0.73363  1.0000
  H   H886      1.0  0.15521  0.31048  0.79939  1.0000
  H   H887      1.0  0.06614  0.20271  0.73936  1.0000
  H   H888      1.0  0.13708  0.22337  0.74398  1.0000
  H   H889      1.0  0.99531  0.17300  0.79678  1.0000
  H   H890      1.0  0.24688  0.27026  0.73506  1.0000
  Fe  Fe115     1.0  0.24958  0.14618  0.97563  1.0000
  N   N56       1.0  0.14040  0.98643  0.81194  1.0000
  C   C563      1.0  0.18027  0.22803  0.97512  1.0000
  H   H891      1.0  0.17202  0.23830  0.97467  1.0000
  H   H892      1.0  0.23389  0.06068  0.75784  1.0000
  H   H893      1.0  0.24271  0.05088  0.74380  1.0000
  C   C564      1.0  0.23210  0.05680  0.74892  1.0000
  H   H894      1.0  0.09939  0.06790  0.73305  1.0000
  H   H895      1.0  0.05904  0.00369  0.73730  1.0000
  H   H896      1.0  0.19522  0.28912  0.73384  1.0000
  H   H897      1.0  0.99943  0.18351  0.84758  1.0000
  H   H898      1.0  0.16635  0.98627  0.74105  1.0000
  H   H899      1.0  0.17186  0.22574  0.73685  1.0000
  H   H900      1.0  0.28665  0.19962  0.73357  1.0000
  H   H901      1.0  0.14106  0.31458  0.78974  1.0000
  S   S228      1.0  0.24475  0.19342  0.73204  1.0000
  H   H902      1.0  0.32173  0.31320  0.75831  1.0000
  H   H903      1.0  0.18958  0.24518  0.73869  1.0000
  H   H904      1.0  0.99243  0.21274  0.85649  1.0000
  C   C565      1.0  0.23545  0.07923  0.73222  1.0000
  H   H905      1.0  0.32442  0.19930  0.73329  1.0000
  C   C566      1.0  0.31894  0.31807  0.74789  1.0000
  Fe  Fe116     1.0  0.31554  0.42621  0.19395  1.0000
  H   H906      1.0  0.24800  0.62066  0.19921  1.0000
  S   S229      1.0  0.15086  0.64596  0.21872  1.0000
  H   H907      1.0  0.04830  0.35901  0.13844  1.0000
  H   H908      1.0  0.30037  0.45423  0.21360  1.0000
  H   H909      1.0  0.23697  0.40254  0.19007  1.0000
  H   H910      1.0  0.29008  0.39092  0.17315  1.0000
  H   H911      1.0  0.25143  0.38380  0.16777  1.0000
  N   N57       1.0  0.19524  0.62776  0.15983  1.0000
  Fe  Fe117     1.0  0.17442  0.38201  0.21677  1.0000
  H   H912      1.0  0.20936  0.35694  0.03086  1.0000
  S   S230      1.0  0.30075  0.41126  0.20657  1.0000
  S   S231      1.0  0.30637  0.44790  0.18168  1.0000
  Fe  Fe118     1.0  0.21064  0.33451  0.07760  1.0000
  S   S232      1.0  0.22487  0.33567  0.05548  1.0000
  S   S233      1.0  0.18979  0.35014  0.08231  1.0000
  H   H913      1.0  0.21777  0.38876  0.19615  1.0000
  C   C567      1.0  0.23199  0.64649  0.21899  1.0000
  H   H914      1.0  0.19339  0.34025  0.01041  1.0000
  H   H915      1.0  0.32038  0.62472  0.17359  1.0000
  H   H916      1.0  0.16070  0.34683  0.09556  1.0000
  Fe  Fe119     1.0  0.24286  0.32744  0.06765  1.0000
  S   S234      1.0  0.23799  0.63551  0.16606  1.0000
  H   H917      1.0  0.30836  0.36189  0.18319  1.0000
  Fe  Fe120     1.0  0.30263  0.35776  0.13934  1.0000
  S   S235      1.0  0.29837  0.37837  0.12325  1.0000
  H   H918      1.0  0.07202  0.35231  0.11213  1.0000
  Fe  Fe121     1.0  0.27216  0.35345  0.14559  1.0000
  S   S236      1.0  0.26500  0.37417  0.13035  1.0000
  S   S237      1.0  0.25838  0.33779  0.15896  1.0000
  Fe  Fe122     1.0  0.28588  0.36679  0.11552  1.0000
  S   S238      1.0  0.29045  0.36651  0.09181  1.0000
  Fe  Fe123     1.0  0.27810  0.38357  0.13965  1.0000
  S   S239      1.0  0.27049  0.40325  0.14956  1.0000
  S   S240      1.0  0.29216  0.34562  0.13028  1.0000
  S   S241      1.0  0.28323  0.36344  0.15627  1.0000
  H   H919      1.0  0.20182  0.61053  0.14827  1.0000
  S   S242      1.0  0.12837  0.32805  0.17038  1.0000
  H   H920      1.0  0.12961  0.35650  0.20880  1.0000
  H   H921      1.0  0.24492  0.40893  0.17149  1.0000
  H   H922      1.0  0.14127  0.32124  0.19726  1.0000
  H   H923      1.0  0.11487  0.34648  0.19846  1.0000
  S   S243      1.0  0.19057  0.62665  0.20269  1.0000
  Fe  Fe124     1.0  0.11139  0.34119  0.15841  1.0000
  S   S244      1.0  0.10160  0.36417  0.16028  1.0000
  H   H924      1.0  0.30689  0.36947  0.16472  1.0000
  H   H925      1.0  0.30385  0.64349  0.15043  1.0000
  H   H926      1.0  0.06066  0.37024  0.12766  1.0000
  S   S245      1.0  0.18982  0.36320  0.20841  1.0000
  H   H927      1.0  0.29049  0.61573  0.15636  1.0000
  Fe  Fe125     1.0  0.15165  0.38122  0.20080  1.0000
  S   S246      1.0  0.16543  0.36245  0.19161  1.0000
  S   S247      1.0  0.12926  0.39011  0.19653  1.0000
  Fe  Fe126     1.0  0.17043  0.35354  0.21356  1.0000
  Fe  Fe127     1.0  0.18307  0.37422  0.18736  1.0000
  S   S248      1.0  0.19658  0.37725  0.16494  1.0000
  S   S249      1.0  0.16908  0.39388  0.19519  1.0000
  S   S250      1.0  0.31775  0.47631  0.19439  1.0000
  S   S251      1.0  0.22619  0.64548  0.12882  1.0000
  C   C568      1.0  0.24106  0.38194  0.17519  1.0000
  C   C569      1.0  0.19273  0.33530  0.02210  1.0000
  C   C570      1.0  0.20196  0.63575  0.16606  1.0000
  H   H928      1.0  0.15041  0.33358  0.11974  1.0000
  H   H929      1.0  0.19022  0.61272  0.17987  1.0000
  C   C571      1.0  0.10984  0.37128  0.16993  1.0000
  C   C572      1.0  0.10186  0.38283  0.17641  1.0000
  C   C573      1.0  0.10799  0.38848  0.18444  1.0000
  C   C574      1.0  0.12222  0.38275  0.18601  1.0000
  C   C575      1.0  0.13034  0.37134  0.17932  1.0000
  C   C576      1.0  0.12418  0.36564  0.17127  1.0000
  H   H930      1.0  0.09082  0.38734  0.17535  1.0000
  H   H931      1.0  0.10164  0.39734  0.18950  1.0000
  H   H932      1.0  0.14133  0.36696  0.18029  1.0000
  H   H933      1.0  0.13056  0.35706  0.16591  1.0000
  C   C577      1.0  0.24046  0.34698  0.16013  1.0000
  C   C578      1.0  0.23054  0.34506  0.17328  1.0000
  C   C579      1.0  0.21673  0.35396  0.17471  1.0000
  C   C580      1.0  0.21293  0.36474  0.16298  1.0000
  C   C581      1.0  0.22258  0.36610  0.14964  1.0000
  C   C582      1.0  0.23631  0.35718  0.14821  1.0000
  H   H934      1.0  0.23370  0.33707  0.18249  1.0000
  H   H935      1.0  0.20920  0.35262  0.18492  1.0000
  H   H936      1.0  0.21959  0.37427  0.14047  1.0000
  H   H937      1.0  0.24371  0.35820  0.13786  1.0000
  C   C583      1.0  0.18185  0.34266  0.09994  1.0000
  C   C584      1.0  0.31423  0.64574  0.15077  1.0000
  C   C585      1.0  0.16146  0.33454  0.11725  1.0000
  H   H938      1.0  0.11457  0.32759  0.20388  1.0000
  C   C586      1.0  0.29519  0.60723  0.16437  1.0000
  N   N58       1.0  0.12896  0.33403  0.21283  1.0000
  C   C587      1.0  0.18772  0.63800  0.14878  1.0000
  C   C588      1.0  0.31011  0.60398  0.16336  1.0000
  C   C589      1.0  0.29263  0.45994  0.22186  1.0000
  H   H939      1.0  0.31155  0.63520  0.18712  1.0000
  H   H940      1.0  0.18348  0.36421  0.01647  1.0000
  S   S252      1.0  0.09817  0.32423  0.16491  1.0000
  C   C590      1.0  0.22743  0.40092  0.15981  1.0000
  H   H941      1.0  0.19126  0.32404  0.13178  1.0000
  N   N59       1.0  0.19378  0.34556  0.03019  1.0000
  C   C591      1.0  0.23482  0.40635  0.17896  1.0000
  C   C592      1.0  0.27101  0.34249  0.07001  1.0000
  C   C593      1.0  0.26482  0.34361  0.08445  1.0000
  C   C594      1.0  0.27072  0.35072  0.09155  1.0000
  C   C595      1.0  0.28266  0.35690  0.08411  1.0000
  C   C596      1.0  0.28879  0.35561  0.06980  1.0000
  C   C597      1.0  0.28310  0.34838  0.06288  1.0000
  H   H942      1.0  0.25551  0.33905  0.09010  1.0000
  H   H943      1.0  0.26587  0.35171  0.10260  1.0000
  H   H944      1.0  0.29794  0.36037  0.06394  1.0000
  H   H945      1.0  0.28797  0.34758  0.05177  1.0000
  C   C598      1.0  0.07022  0.34365  0.12195  1.0000
  H   H946      1.0  0.18246  0.33144  0.02636  1.0000
  C   C599      1.0  0.21639  0.39254  0.18476  1.0000
  H   H947      1.0  0.21051  0.63910  0.21236  1.0000
  C   C600      1.0  0.19337  0.41206  0.21772  1.0000
  C   C601      1.0  0.28645  0.59929  0.17558  1.0000
  S   S253      1.0  0.12323  0.33495  0.13744  1.0000
  C   C602      1.0  0.30385  0.43015  0.14410  1.0000
  C   C603      1.0  0.29304  0.42878  0.15664  1.0000
  C   C604      1.0  0.28267  0.42078  0.15807  1.0000
  C   C605      1.0  0.28340  0.41358  0.14725  1.0000
  C   C606      1.0  0.29438  0.41470  0.13484  1.0000
  C   C607      1.0  0.20649  0.61677  0.15310  1.0000
  H   H948      1.0  0.29245  0.43419  0.16509  1.0000
  H   H949      1.0  0.27417  0.42006  0.16765  1.0000
  H   H950      1.0  0.29491  0.40940  0.12632  1.0000
  H   H951      1.0  0.21259  0.38409  0.18209  1.0000
  S   S254      1.0  0.26875  0.64357  0.16473  1.0000
  H   H952      1.0  0.32262  0.56458  0.15985  1.0000
  H   H953      1.0  0.30241  0.33479  0.16462  1.0000
  H   H954      1.0  0.08694  0.36036  0.12422  1.0000
  H   H955      1.0  0.28966  0.58946  0.21725  1.0000
  H   H956      1.0  0.20160  0.33682  0.10751  1.0000
  C   C608      1.0  0.22139  0.63665  0.20536  1.0000
  H   H957      1.0  0.12049  0.34940  0.22664  1.0000
  C   C609      1.0  0.24706  0.63015  0.20382  1.0000
  H   H958      1.0  0.20761  0.40240  0.18432  1.0000
  H   H959      1.0  0.24319  0.37737  0.18625  1.0000
  C   C610      1.0  0.16730  0.34203  0.10354  1.0000
  H   H960      1.0  0.31362  0.50143  0.20593  1.0000
  H   H961      1.0  0.08554  0.35441  0.14341  1.0000
  H   H962      1.0  0.23752  0.40302  0.15193  1.0000
  S   S255      1.0  0.26781  0.60333  0.17695  1.0000
  H   H963      1.0  0.21921  0.41118  0.15892  1.0000
  N   N60       1.0  0.22992  0.39544  0.17469  1.0000
  C   C611      1.0  0.18240  0.35873  0.02808  1.0000
  H   H964      1.0  0.19248  0.34632  0.05225  1.0000
  C   C612      1.0  0.05918  0.36111  0.13709  1.0000
  N   N61       1.0  0.23287  0.63362  0.21349  1.0000
  C   C613      1.0  0.18453  0.32899  0.12393  1.0000
  H   H965      1.0  0.28586  0.58211  0.19453  1.0000
  H   H966      1.0  0.10585  0.33927  0.21635  1.0000
  H   H967      1.0  0.18815  0.41218  0.20929  1.0000
  H   H968      1.0  0.22355  0.39302  0.15631  1.0000
  C   C614      1.0  0.30753  0.58509  0.18490  1.0000
  H   H969      1.0  0.17633  0.62841  0.17694  1.0000
  C   C615      1.0  0.11548  0.33698  0.20765  1.0000
  H   H970      1.0  0.18144  0.33548  0.05016  1.0000
  N   N62       1.0  0.16940  0.36667  0.14281  1.0000
  C   C616      1.0  0.16909  0.35329  0.15411  1.0000
  C   C617      1.0  0.16037  0.36732  0.13273  1.0000
  C   C618      1.0  0.18439  0.36671  0.13478  1.0000
  C   C619      1.0  0.16377  0.37934  0.14962  1.0000
  H   H971      1.0  0.17596  0.35240  0.16179  1.0000
  H   H972      1.0  0.17312  0.34352  0.14932  1.0000
  H   H973      1.0  0.15798  0.35290  0.16046  1.0000
  H   H974      1.0  0.16015  0.37741  0.12421  1.0000
  H   H975      1.0  0.16452  0.35813  0.12713  1.0000
  H   H976      1.0  0.14906  0.36691  0.13848  1.0000
  H   H977      1.0  0.18509  0.37664  0.12615  1.0000
  H   H978      1.0  0.18898  0.35727  0.12951  1.0000
  H   H979      1.0  0.19150  0.36625  0.14208  1.0000
  H   H980      1.0  0.15231  0.37999  0.15531  1.0000
  H   H981      1.0  0.16442  0.38961  0.14148  1.0000
  H   H982      1.0  0.16997  0.37895  0.15772  1.0000
  N   N63       1.0  0.07055  0.34810  0.13509  1.0000
  C   C620      1.0  0.08475  0.35132  0.13355  1.0000
  H   H983      1.0  0.21247  0.60899  0.16113  1.0000
  H   H984      1.0  0.19375  0.64364  0.17186  1.0000
  C   C621      1.0  0.06808  0.33626  0.14779  1.0000
  C   C622      1.0  0.12925  0.32135  0.22501  1.0000
  H   H985      1.0  0.15176  0.32890  0.20444  1.0000
  H   H986      1.0  0.31687  0.60997  0.15455  1.0000
  C   C623      1.0  0.27278  0.45488  0.21545  1.0000
  H   H987      1.0  0.29767  0.46835  0.22295  1.0000
  H   H988      1.0  0.27167  0.41131  0.22171  1.0000
  H   H989      1.0  0.06798  0.33930  0.15796  1.0000
  H   H990      1.0  0.24890  0.63940  0.19461  1.0000
  H   H991      1.0  0.09358  0.34178  0.13176  1.0000
  H   H992      1.0  0.20936  0.64189  0.15755  1.0000
  S   S256      1.0  0.31667  0.44055  0.14185  1.0000
  H   H993      1.0  0.17151  0.35615  0.03194  1.0000
  C   C624      1.0  0.31295  0.36889  0.17299  1.0000
  S   S257      1.0  0.22870  0.32833  0.08948  1.0000
  H   H994      1.0  0.20826  0.62832  0.17398  1.0000
  C   C625      1.0  0.20807  0.34938  0.02486  1.0000
  C   C626      1.0  0.29263  0.58818  0.18580  1.0000
  H   H995      1.0  0.28037  0.44914  0.20714  1.0000
  S   S258      1.0  0.15528  0.37150  0.22328  1.0000
  H   H996      1.0  0.20982  0.35459  0.01316  1.0000
  Fe  Fe128     1.0  0.24260  0.64263  0.14188  1.0000
  Fe  Fe129     1.0  0.32229  0.44108  0.16249  1.0000
  C   C627      1.0  0.29710  0.39012  0.18066  1.0000
  C   C628      1.0  0.32099  0.38220  0.18558  1.0000
  H   H997      1.0  0.31216  0.57672  0.19298  1.0000
  H   H998      1.0  0.05767  0.33318  0.14906  1.0000
  H   H999      1.0  0.22182  0.62728  0.20083  1.0000
  H   H1000     1.0  0.05927  0.36478  0.14686  1.0000
  H   H1001     1.0  0.30959  0.42053  0.22774  1.0000
  H   H1002     1.0  0.23779  0.37356  0.17180  1.0000
  H   H1003     1.0  0.21688  0.33959  0.02623  1.0000
  H   H1004     1.0  0.30132  0.63168  0.17625  1.0000
  H   H1005     1.0  0.18285  0.36662  0.03417  1.0000
  H   H1006     1.0  0.17943  0.61452  0.16708  1.0000
  H   H1007     1.0  0.22125  0.64967  0.22593  1.0000
  H   H1008     1.0  0.22662  0.41665  0.17879  1.0000
  H   H1009     1.0  0.29616  0.40125  0.18203  1.0000
  C   C629      1.0  0.19041  0.33621  0.11018  1.0000
  C   C630      1.0  0.18484  0.62052  0.17139  1.0000
  H   H1010     1.0  0.07671  0.32643  0.14675  1.0000
  S   S259      1.0  0.16968  0.33032  0.22351  1.0000
  H   H1011     1.0  0.05973  0.34092  0.12280  1.0000
  H   H1012     1.0  0.07875  0.33389  0.12012  1.0000
  C   C631      1.0  0.31158  0.32651  0.16149  1.0000
  Fe  Fe130     1.0  0.26133  0.62475  0.16270  1.0000
  H   H1013     1.0  0.30751  0.33714  0.10312  1.0000
  H   H1014     1.0  0.31683  0.40372  0.16217  1.0000
  H   H1015     1.0  0.31519  0.33689  0.08456  1.0000
  C   C632      1.0  0.20092  0.42289  0.21616  1.0000
  H   H1016     1.0  0.27003  0.48247  0.20071  1.0000
  N   N64       1.0  0.31220  0.38343  0.17509  1.0000
  H   H1017     1.0  0.20156  0.43127  0.20643  1.0000
  Fe  Fe131     1.0  0.17184  0.64576  0.20274  1.0000
  C   C633      1.0  0.30443  0.42314  0.13318  1.0000
  C   C634      1.0  0.17009  0.32801  0.12743  1.0000
  H   H1018     1.0  0.28800  0.47258  0.19517  1.0000
  C   C635      1.0  0.31628  0.59296  0.17367  1.0000
  H   H1019     1.0  0.20055  0.32903  0.04776  1.0000
  H   H1020     1.0  0.29266  0.38385  0.19142  1.0000
  N   N65       1.0  0.31416  0.64756  0.16525  1.0000
  H   H1021     1.0  0.26235  0.45932  0.21192  1.0000
  S   S260      1.0  0.26548  0.63017  0.13840  1.0000
  S   S261      1.0  0.26447  0.33371  0.06027  1.0000
  C   C636      1.0  0.20464  0.60499  0.22138  1.0000
  H   H1022     1.0  0.20166  0.32560  0.02285  1.0000
  H   H1023     1.0  0.21454  0.62180  0.14431  1.0000
  H   H1024     1.0  0.21307  0.60329  0.21198  1.0000
  C   C637      1.0  0.19196  0.33882  0.04576  1.0000
  C   C638      1.0  0.14141  0.33096  0.20096  1.0000
  H   H1025     1.0  0.22231  0.64611  0.19619  1.0000
  C   C639      1.0  0.23104  0.62121  0.22575  1.0000
  C   C640      1.0  0.31174  0.63423  0.17604  1.0000
  C   C641      1.0  0.28042  0.47736  0.20416  1.0000
  H   H1026     1.0  0.25598  0.62747  0.20968  1.0000
  H   H1027     1.0  0.31399  0.57422  0.21843  1.0000
  H   H1028     1.0  0.14141  0.34016  0.19148  1.0000
  C   C642      1.0  0.31774  0.39251  0.16111  1.0000
  C   C643      1.0  0.29148  0.41556  0.22321  1.0000
  H   H1029     1.0  0.31271  0.42423  0.12342  1.0000
  C   C644      1.0  0.19225  0.61581  0.21988  1.0000
  Fe  Fe132     1.0  0.27064  0.65021  0.14077  1.0000
  H   H1030     1.0  0.19879  0.32696  0.22848  1.0000
  H   H1031     1.0  0.28504  0.48603  0.20537  1.0000
  H   H1032     1.0  0.31724  0.37526  0.19619  1.0000
  H   H1033     1.0  0.31158  0.39332  0.15284  1.0000
  N   N66       1.0  0.27856  0.46632  0.21770  1.0000
  H   H1034     1.0  0.32293  0.63660  0.14754  1.0000
  H   H1035     1.0  0.32035  0.39292  0.18773  1.0000
  C   C645      1.0  0.31746  0.33293  0.09564  1.0000
  C   C646      1.0  0.26844  0.47306  0.22935  1.0000
  C   C647      1.0  0.27698  0.41474  0.22813  1.0000
  H   H1036     1.0  0.18246  0.63242  0.14384  1.0000
  H   H1037     1.0  0.31920  0.53936  0.17024  1.0000
  H   H1038     1.0  0.23204  0.61124  0.22192  1.0000
  H   H1039     1.0  0.29991  0.53439  0.22316  1.0000
  C   C648      1.0  0.29245  0.58428  0.22763  1.0000
  H   H1040     1.0  0.13976  0.34485  0.22173  1.0000
  H   H1041     1.0  0.17927  0.64651  0.15353  1.0000
  H   H1042     1.0  0.31765  0.35833  0.10133  1.0000
  H   H1043     1.0  0.31925  0.32094  0.09822  1.0000
  H   H1044     1.0  0.32308  0.54867  0.14374  1.0000
  H   H1045     1.0  0.24018  0.64454  0.22558  1.0000
  C   C649      1.0  0.30618  0.57558  0.22829  1.0000
  H   H1046     1.0  0.19535  0.64357  0.13988  1.0000
  H   H1047     1.0  0.32314  0.33639  0.11974  1.0000
  H   H1048     1.0  0.27085  0.44665  0.22558  1.0000
  C   C650      1.0  0.12974  0.34674  0.21771  1.0000
  C   C651      1.0  0.20714  0.42327  0.22734  1.0000
  S   S262      1.0  0.21537  0.43776  0.22554  1.0000
  H   H1049     1.0  0.25766  0.47794  0.22665  1.0000
  Fe  Fe133     1.0  0.13936  0.32029  0.15004  1.0000
  H   H1050     1.0  0.32423  0.36335  0.16921  1.0000
  C   C652      1.0  0.32412  0.33030  0.15225  1.0000
  H   H1051     1.0  0.13939  0.31874  0.22905  1.0000
  Fe  Fe134     1.0  0.32432  0.45538  0.18597  1.0000
  H   H1052     1.0  0.32432  0.35835  0.08253  1.0000
  C   C653      1.0  0.19203  0.40152  0.23051  1.0000
  Fe  Fe135     1.0  0.25458  0.36538  0.46612  1.0000
  C   C654      1.0  0.19678  0.60749  0.29373  1.0000
  S   S263      1.0  0.25037  0.37411  0.44325  1.0000
  H   H1053     1.0  0.28359  0.55405  0.35533  1.0000
  H   H1054     1.0  0.25613  0.33991  0.41924  1.0000
  C   C655      1.0  0.28214  0.58560  0.24038  1.0000
  H   H1055     1.0  0.20692  0.54264  0.25394  1.0000
  N   N67       1.0  0.25753  0.39373  0.29718  1.0000
  C   C656      1.0  0.19876  0.40158  0.24142  1.0000
  C   C657      1.0  0.29602  0.53142  0.25925  1.0000
  H   H1056     1.0  0.16038  0.45158  0.27313  1.0000
  Fe  Fe136     1.0  0.21651  0.34581  0.35825  1.0000
  Fe  Fe137     1.0  0.28041  0.61564  0.34055  1.0000
  S   S264      1.0  0.26494  0.61533  0.36199  1.0000
  S   S265      1.0  0.28426  0.59945  0.32656  1.0000
  H   H1057     1.0  0.21129  0.33418  0.23339  1.0000
  C   C658      1.0  0.18137  0.61780  0.23208  1.0000
  H   H1058     1.0  0.15536  0.42062  0.28280  1.0000
  Fe  Fe138     1.0  0.28312  0.61843  0.36976  1.0000
  S   S266      1.0  0.28687  0.60577  0.39169  1.0000
  Fe  Fe139     1.0  0.29128  0.64088  0.34291  1.0000
  C   C659      1.0  0.30024  0.63647  0.40210  1.0000
  S   S267      1.0  0.29915  0.61693  0.34886  1.0000
  H   H1059     1.0  0.19398  0.42284  0.27015  1.0000
  Fe  Fe140     1.0  0.21891  0.57847  0.26709  1.0000
  S   S268      1.0  0.22277  0.56277  0.28757  1.0000
  S   S269      1.0  0.19623  0.58681  0.26416  1.0000
  Fe  Fe141     1.0  0.24990  0.58114  0.25694  1.0000
  S   S270      1.0  0.25649  0.56542  0.27651  1.0000
  S   S271      1.0  0.26426  0.59400  0.23961  1.0000
  Fe  Fe142     1.0  0.24244  0.55237  0.27316  1.0000
  S   S272      1.0  0.24954  0.52806  0.27573  1.0000
  Fe  Fe143     1.0  0.23629  0.57733  0.28885  1.0000
  S   S273      1.0  0.23236  0.58738  0.30812  1.0000
  S   S274      1.0  0.23757  0.56718  0.25250  1.0000
  S   S275      1.0  0.23074  0.59379  0.26942  1.0000
  H   H1060     1.0  0.14116  0.33711  0.31557  1.0000
  H   H1061     1.0  0.17517  0.54513  0.26657  1.0000
  C   C660      1.0  0.29562  0.63412  0.41717  1.0000
  C   C661      1.0  0.30954  0.56824  0.24169  1.0000
  H   H1062     1.0  0.16616  0.43824  0.28821  1.0000
  C   C662      1.0  0.28930  0.32852  0.39970  1.0000
  H   H1063     1.0  0.30349  0.57581  0.36565  1.0000
  H   H1064     1.0  0.17992  0.54895  0.29472  1.0000
  H   H1065     1.0  0.27934  0.38590  0.30003  1.0000
  S   S276      1.0  0.18116  0.38881  0.23393  1.0000
  S   S277      1.0  0.20200  0.33998  0.34704  1.0000
  C   C663      1.0  0.29756  0.62779  0.39428  1.0000
  Fe  Fe144     1.0  0.21231  0.44114  0.27693  1.0000
  S   S278      1.0  0.20448  0.45718  0.25810  1.0000
  S   S279      1.0  0.19745  0.43033  0.29592  1.0000
  Fe  Fe145     1.0  0.24328  0.43924  0.26203  1.0000
  C   C664      1.0  0.20614  0.59628  0.23503  1.0000
  S   S280      1.0  0.26602  0.43012  0.26459  1.0000
  Fe  Fe146     1.0  0.22250  0.46787  0.25690  1.0000
  S   S281      1.0  0.22032  0.49229  0.25067  1.0000
  Fe  Fe147     1.0  0.22079  0.44260  0.24463  1.0000
  H   H1066     1.0  0.24075  0.38700  0.31476  1.0000
  S   S282      1.0  0.22871  0.45312  0.27710  1.0000
  S   S283      1.0  0.22753  0.42593  0.26352  1.0000
  H   H1067     1.0  0.18016  0.32801  0.31514  1.0000
  H   H1068     1.0  0.22211  0.61493  0.29020  1.0000
  H   H1069     1.0  0.19400  0.55882  0.28656  1.0000
  S   S284      1.0  0.23539  0.35396  0.34280  1.0000
  H   H1070     1.0  0.13541  0.33690  0.33458  1.0000
  Fe  Fe148     1.0  0.22496  0.35065  0.38453  1.0000
  S   S285      1.0  0.24418  0.35914  0.37073  1.0000
  S   S286      1.0  0.22163  0.34624  0.40911  1.0000
  Fe  Fe149     1.0  0.22975  0.37142  0.35525  1.0000
  S   S287      1.0  0.23264  0.39397  0.34380  1.0000
  H   H1071     1.0  0.20892  0.52278  0.27675  1.0000
  H   H1072     1.0  0.18752  0.62020  0.31663  1.0000
  S   S288      1.0  0.20992  0.36438  0.36984  1.0000
  C   C665      1.0  0.18367  0.41913  0.27289  1.0000
  C   C666      1.0  0.15876  0.42528  0.27109  1.0000
  H   H1073     1.0  0.25962  0.60998  0.26282  1.0000
  H   H1074     1.0  0.25783  0.41885  0.24450  1.0000
  H   H1075     1.0  0.27003  0.54484  0.25343  1.0000
  C   C667      1.0  0.27173  0.63243  0.25977  1.0000
  C   C668      1.0  0.26508  0.33219  0.41402  1.0000
  H   H1076     1.0  0.28989  0.56956  0.34362  1.0000
  N   N68       1.0  0.19906  0.62149  0.29454  1.0000
  H   H1077     1.0  0.27246  0.48173  0.23136  1.0000
  H   H1078     1.0  0.28761  0.58775  0.37293  1.0000
  C   C669      1.0  0.15844  0.33563  0.26477  1.0000
  C   C670      1.0  0.16259  0.33825  0.24966  1.0000
  H   H1079     1.0  0.21012  0.55478  0.26296  1.0000
  H   H1080     1.0  0.20526  0.32813  0.32246  1.0000
  H   H1081     1.0  0.15826  0.34372  0.27046  1.0000
  H   H1082     1.0  0.19798  0.39329  0.25121  1.0000
  C   C671      1.0  0.20646  0.42051  0.30993  1.0000
  C   C672      1.0  0.21703  0.42576  0.31276  1.0000
  C   C673      1.0  0.22439  0.41784  0.32374  1.0000
  C   C674      1.0  0.22162  0.40437  0.33165  1.0000
  C   C675      1.0  0.21101  0.39908  0.32889  1.0000
  C   C676      1.0  0.20330  0.40725  0.31815  1.0000
  H   H1083     1.0  0.21934  0.43609  0.30668  1.0000
  H   H1084     1.0  0.23243  0.42208  0.32599  1.0000
  H   H1085     1.0  0.20882  0.38868  0.33496  1.0000
  H   H1086     1.0  0.19509  0.40315  0.31605  1.0000
  C   C677      1.0  0.26613  0.62669  0.28588  1.0000
  H   H1087     1.0  0.21535  0.63409  0.28604  1.0000
  H   H1088     1.0  0.17768  0.42870  0.24605  1.0000
  S   S289      1.0  0.30418  0.34598  0.47852  1.0000
  H   H1089     1.0  0.19742  0.60698  0.28236  1.0000
  Fe  Fe150     1.0  0.30891  0.64628  0.47161  1.0000
  H   H1090     1.0  0.30727  0.54370  0.23190  1.0000
  H   H1091     1.0  0.29427  0.50957  0.24856  1.0000
  H   H1092     1.0  0.28123  0.60017  0.28213  1.0000
  C   C678      1.0  0.29224  0.58108  0.36457  1.0000
  C   C679      1.0  0.27601  0.42354  0.24925  1.0000
  C   C680      1.0  0.25733  0.61473  0.27251  1.0000
  H   H1093     1.0  0.29597  0.42718  0.25108  1.0000
  H   H1094     1.0  0.26644  0.41176  0.29631  1.0000
  Fe  Fe151     1.0  0.29420  0.64090  0.45060  1.0000
  C   C681      1.0  0.17610  0.43692  0.25254  1.0000
  C   C682      1.0  0.29952  0.57036  0.25443  1.0000
  C   C683      1.0  0.26917  0.41896  0.24104  1.0000
  C   C684      1.0  0.24193  0.51810  0.26823  1.0000
  C   C685      1.0  0.24288  0.50325  0.27397  1.0000
  C   C686      1.0  0.23656  0.49511  0.26854  1.0000
  C   C687      1.0  0.22931  0.50176  0.25723  1.0000
  C   C688      1.0  0.22877  0.51652  0.25120  1.0000
  C   C689      1.0  0.23505  0.52467  0.25666  1.0000
  H   H1095     1.0  0.24829  0.49805  0.28285  1.0000
  H   H1096     1.0  0.23709  0.48375  0.27326  1.0000
  H   H1097     1.0  0.22338  0.52168  0.24229  1.0000
  H   H1098     1.0  0.23457  0.53601  0.25191  1.0000
  H   H1099     1.0  0.16579  0.34825  0.24385  1.0000
  S   S290      1.0  0.27792  0.63065  0.46840  1.0000
  C   C690      1.0  0.29067  0.42370  0.24469  1.0000
  C   C691      1.0  0.19504  0.59810  0.24714  1.0000
  C   C692      1.0  0.18266  0.60885  0.24563  1.0000
  C   C693      1.0  0.26863  0.57797  0.36510  1.0000
  N   N69       1.0  0.27666  0.33945  0.40467  1.0000
  H   H1100     1.0  0.29464  0.55450  0.38150  1.0000
  H   H1101     1.0  0.17232  0.32754  0.34168  1.0000
  H   H1102     1.0  0.17405  0.61035  0.25495  1.0000
  H   H1103     1.0  0.28154  0.52009  0.23760  1.0000
  H   H1104     1.0  0.27423  0.62837  0.24963  1.0000
  C   C694      1.0  0.19056  0.64987  0.24469  1.0000
  C   C695      1.0  0.27934  0.54545  0.24409  1.0000
  C   C696      1.0  0.26970  0.59634  0.32148  1.0000
  C   C697      1.0  0.25550  0.60292  0.32670  1.0000
  C   C698      1.0  0.24413  0.60006  0.32255  1.0000
  C   C699      1.0  0.24691  0.59076  0.31303  1.0000
  C   C700      1.0  0.26112  0.58432  0.30768  1.0000
  C   C701      1.0  0.27247  0.58702  0.31200  1.0000
  H   H1105     1.0  0.25326  0.61015  0.33400  1.0000
  H   H1106     1.0  0.23316  0.60507  0.32675  1.0000
  H   H1107     1.0  0.26337  0.57705  0.30043  1.0000
  H   H1108     1.0  0.28345  0.58185  0.30798  1.0000
  H   H1109     1.0  0.30221  0.56492  0.26481  1.0000
  H   H1110     1.0  0.26589  0.38151  0.31596  1.0000
  C   C702      1.0  0.21342  0.62348  0.28593  1.0000
  C   C703      1.0  0.29068  0.61637  0.40153  1.0000
  C   C704      1.0  0.28672  0.61352  0.41669  1.0000
  C   C705      1.0  0.28906  0.62247  0.42451  1.0000
  H   H1111     1.0  0.16050  0.41661  0.26506  1.0000
  C   C706      1.0  0.16326  0.32768  0.24226  1.0000
  C   C707      1.0  0.24165  0.36658  0.43425  1.0000
  C   C708      1.0  0.23525  0.35473  0.44117  1.0000
  C   C709      1.0  0.22872  0.34894  0.43347  1.0000
  C   C710      1.0  0.22876  0.35473  0.41870  1.0000
  C   C711      1.0  0.23505  0.36665  0.41183  1.0000
  C   C712      1.0  0.24140  0.37255  0.41957  1.0000
  H   H1112     1.0  0.23524  0.35007  0.45248  1.0000
  H   H1113     1.0  0.22382  0.33977  0.43893  1.0000
  H   H1114     1.0  0.23496  0.37138  0.40055  1.0000
  H   H1115     1.0  0.24615  0.38182  0.41414  1.0000
  C   C713      1.0  0.24360  0.38918  0.30274  1.0000
  H   H1116     1.0  0.18128  0.41498  0.28481  1.0000
  H   H1117     1.0  0.26180  0.57028  0.36602  1.0000
  H   H1118     1.0  0.19826  0.52648  0.29371  1.0000
  S   S291      1.0  0.22954  0.33142  0.37423  1.0000
  H   H1119     1.0  0.27815  0.58061  0.26363  1.0000
  H   H1120     1.0  0.27534  0.54672  0.23415  1.0000
  H   H1121     1.0  0.19440  0.55944  0.25553  1.0000
  C   C714      1.0  0.16925  0.33434  0.31390  1.0000
  H   H1122     1.0  0.21133  0.41238  0.24837  1.0000
  H   H1123     1.0  0.20654  0.61287  0.31443  1.0000
  H   H1124     1.0  0.25631  0.63549  0.28621  1.0000
  H   H1125     1.0  0.22060  0.32189  0.25581  1.0000
  H   H1126     1.0  0.28433  0.34063  0.42280  1.0000
  H   H1127     1.0  0.24769  0.41624  0.29609  1.0000
  H   H1128     1.0  0.17377  0.64952  0.23472  1.0000
  H   H1129     1.0  0.24727  0.62318  0.27228  1.0000
  H   H1130     1.0  0.27906  0.56643  0.38934  1.0000
  H   H1131     1.0  0.26864  0.34344  0.38534  1.0000
  H   H1132     1.0  0.27505  0.63139  0.28636  1.0000
  S   S292      1.0  0.23820  0.45460  0.24175  1.0000
  S   S293      1.0  0.31291  0.62802  0.46054  1.0000
  H   H1133     1.0  0.19822  0.64155  0.23969  1.0000
  H   H1134     1.0  0.17892  0.44682  0.27449  1.0000
  H   H1135     1.0  0.20505  0.59832  0.29801  1.0000
  H   H1136     1.0  0.29279  0.58855  0.35381  1.0000
  H   H1137     1.0  0.25356  0.40695  0.31266  1.0000
  C   C715      1.0  0.26868  0.38280  0.30396  1.0000
  S   S294      1.0  0.26865  0.34332  0.47033  1.0000
  H   H1138     1.0  0.21570  0.58793  0.23608  1.0000
  S   S295      1.0  0.27698  0.64252  0.36453  1.0000
  Fe  Fe152     1.0  0.24787  0.34103  0.35963  1.0000
  H   H1139     1.0  0.18815  0.63324  0.27730  1.0000
  H   H1140     1.0  0.26202  0.64137  0.25951  1.0000
  C   C716      1.0  0.28354  0.56044  0.38039  1.0000
  H   H1141     1.0  0.29826  0.33362  0.39266  1.0000
  N   N70       1.0  0.28356  0.57042  0.36614  1.0000
  C   C717      1.0  0.16916  0.44242  0.27633  1.0000
  C   C718      1.0  0.20163  0.55026  0.26129  1.0000
  H   H1142     1.0  0.27694  0.55233  0.38208  1.0000
  C   C719      1.0  0.18621  0.55386  0.28421  1.0000
  C   C720      1.0  0.16177  0.33417  0.33946  1.0000
  H   H1143     1.0  0.18957  0.64407  0.28871  1.0000
  H   H1144     1.0  0.28079  0.63728  0.25960  1.0000
  H   H1145     1.0  0.19995  0.63209  0.31072  1.0000
  H   H1146     1.0  0.28570  0.60484  0.26273  1.0000
  H   H1147     1.0  0.27984  0.35531  0.38483  1.0000
  H   H1148     1.0  0.28949  0.35329  0.40634  1.0000
  H   H1149     1.0  0.31395  0.63789  0.35693  1.0000
  H   H1150     1.0  0.30581  0.64508  0.39644  1.0000
  H   H1151     1.0  0.17693  0.63237  0.29509  1.0000
  C   C721      1.0  0.18296  0.53672  0.27236  1.0000
  H   H1152     1.0  0.26894  0.32344  0.42283  1.0000
  S   S296      1.0  0.29745  0.64655  0.42621  1.0000
  H   H1153     1.0  0.26828  0.58576  0.35456  1.0000
  H   H1154     1.0  0.16777  0.44627  0.24872  1.0000
  H   H1155     1.0  0.30116  0.55655  0.35481  1.0000
  Fe  Fe153     1.0  0.26019  0.63943  0.35490  1.0000
  H   H1156     1.0  0.26265  0.38485  0.27816  1.0000
  H   H1157     1.0  0.29194  0.61342  0.27320  1.0000
  H   H1158     1.0  0.25518  0.60603  0.28222  1.0000
  H   H1159     1.0  0.14966  0.43393  0.26771  1.0000
  H   H1160     1.0  0.28554  0.62053  0.43615  1.0000
  H   H1161     1.0  0.25344  0.40349  0.27591  1.0000
  C   C722      1.0  0.14399  0.33940  0.32489  1.0000
  H   H1162     1.0  0.30097  0.62983  0.38264  1.0000
  H   H1163     1.0  0.26352  0.58418  0.37380  1.0000
  N   N71       1.0  0.29106  0.53254  0.24598  1.0000
  C   C723      1.0  0.19821  0.62168  0.30975  1.0000
  H   H1164     1.0  0.17674  0.53120  0.28259  1.0000
  C   C724      1.0  0.28266  0.60929  0.27269  1.0000
  H   H1165     1.0  0.26434  0.61822  0.29588  1.0000
  H   H1166     1.0  0.17869  0.56288  0.27863  1.0000
  S   S297      1.0  0.27401  0.63956  0.33273  1.0000
  H   H1167     1.0  0.27205  0.39866  0.27676  1.0000
  H   H1168     1.0  0.24389  0.37908  0.29952  1.0000
  C   C725      1.0  0.27152  0.34938  0.39199  1.0000
  H   H1169     1.0  0.18639  0.44069  0.24981  1.0000
  C   C726      1.0  0.25625  0.40777  0.30074  1.0000
  H   H1170     1.0  0.25579  0.32294  0.38374  1.0000
  H   H1171     1.0  0.18827  0.52854  0.26554  1.0000
  H   H1172     1.0  0.23468  0.39766  0.29874  1.0000
  H   H1173     1.0  0.30476  0.52172  0.26113  1.0000
  N   N72       1.0  0.17192  0.43095  0.26820  1.0000
  C   C727      1.0  0.28983  0.56224  0.35449  1.0000
  H   H1174     1.0  0.21261  0.53576  0.28433  1.0000
  C   C728      1.0  0.18792  0.63330  0.28870  1.0000
  H   H1175     1.0  0.28146  0.60463  0.42236  1.0000
  C   C729      1.0  0.28584  0.57907  0.25376  1.0000
  N   N73       1.0  0.26946  0.62078  0.27272  1.0000
  C   C730      1.0  0.20630  0.41238  0.23985  1.0000
  S   S298      1.0  0.21237  0.65148  0.25602  1.0000
  H   H1176     1.0  0.18549  0.40990  0.26767  1.0000
  H   H1177     1.0  0.26990  0.37203  0.30159  1.0000
  H   H1178     1.0  0.29338  0.32067  0.40896  1.0000
  H   H1179     1.0  0.16245  0.34569  0.33737  1.0000
  C   C731      1.0  0.26159  0.39519  0.28132  1.0000
  N   N74       1.0  0.19366  0.54309  0.27518  1.0000
  C   C732      1.0  0.20379  0.53156  0.28283  1.0000
  C   C733      1.0  0.28070  0.34773  0.41297  1.0000
  C   C734      1.0  0.20238  0.32824  0.23782  1.0000
  H   H1180     1.0  0.26176  0.35755  0.39531  1.0000
  H   H1181     1.0  0.12010  0.32328  0.23425  1.0000
  H   H1182     1.0  0.26035  0.32744  0.40778  1.0000
  S   S299      1.0  0.26770  0.37567  0.47480  1.0000
  H   H1183     1.0  0.14364  0.35118  0.32259  1.0000
  H   H1184     1.0  0.27140  0.35622  0.41670  1.0000
  H   H1185     1.0  0.21452  0.62318  0.27443  1.0000
  H   H1186     1.0  0.23938  0.61882  0.23228  1.0000
  N   N75       1.0  0.15830  0.33081  0.32713  1.0000
  H   H1187     1.0  0.29155  0.45203  0.23234  1.0000
  H   H1188     1.0  0.18604  0.60561  0.30008  1.0000
  H   H1189     1.0  0.28659  0.32220  0.39331  1.0000
  H   H1190     1.0  0.27666  0.51814  0.25687  1.0000
  H   H1191     1.0  0.31241  0.52447  0.23460  1.0000
  C   C735      1.0  0.15525  0.32231  0.27251  1.0000
  Fe  Fe154     1.0  0.27682  0.64856  0.47916  1.0000
  H   H1192     1.0  0.22031  0.62328  0.23311  1.0000
  C   C736      1.0  0.28566  0.51950  0.24728  1.0000
  C   C737      1.0  0.20186  0.32245  0.34568  1.0000
  S   S300      1.0  0.27004  0.32773  0.35373  1.0000
  H   H1193     1.0  0.30043  0.54094  0.25853  1.0000
  H   H1194     1.0  0.28303  0.55547  0.24314  1.0000
  H   H1195     1.0  0.16695  0.33191  0.30440  1.0000
  C   C738      1.0  0.30317  0.53380  0.23335  1.0000
  C   C739      1.0  0.31747  0.64781  0.35537  1.0000
  C   C740      1.0  0.29834  0.42003  0.23147  1.0000
  Fe  Fe155     1.0  0.29651  0.61945  0.47931  1.0000
  H   H1196     1.0  0.20243  0.32302  0.26613  1.0000
  H   H1197     1.0  0.19320  0.33526  0.24379  1.0000
  H   H1198     1.0  0.17182  0.62606  0.23113  1.0000
  H   H1199     1.0  0.28707  0.53075  0.26897  1.0000
  H   H1200     1.0  0.26681  0.46497  0.23974  1.0000
  H   H1201     1.0  0.16967  0.34597  0.31127  1.0000
  H   H1202     1.0  0.15356  0.33195  0.34957  1.0000
  C   C741      1.0  0.20263  0.31998  0.33203  1.0000
  H   H1203     1.0  0.19797  0.33777  0.51202  1.0000
  N   N76       1.0  0.27176  0.64154  0.63462  1.0000
  H   H1204     1.0  0.29752  0.38508  0.52318  1.0000
  C   C742      1.0  0.14507  0.33382  0.67521  1.0000
  H   H1205     1.0  0.29045  0.59825  0.62161  1.0000
  C   C743      1.0  0.29440  0.57275  0.65813  1.0000
  H   H1206     1.0  0.13362  0.33260  0.70359  1.0000
  H   H1207     1.0  0.31343  0.53862  0.66757  1.0000
  Fe  Fe156     1.0  0.28218  0.42478  0.54887  1.0000
  S   S301      1.0  0.26097  0.43077  0.56384  1.0000
  S   S302      1.0  0.28339  0.41971  0.52705  1.0000
  Fe  Fe157     1.0  0.29927  0.42452  0.57137  1.0000
  S   S303      1.0  0.27917  0.42999  0.58766  1.0000
  H   H1208     1.0  0.26025  0.32584  0.68597  1.0000
  Fe  Fe158     1.0  0.27129  0.41418  0.58077  1.0000
  S   S304      1.0  0.26433  0.39433  0.59513  1.0000
  Fe  Fe159     1.0  0.27141  0.44620  0.56900  1.0000
  S   S305      1.0  0.26027  0.46844  0.57350  1.0000
  S   S306      1.0  0.29192  0.40747  0.56567  1.0000
  S   S307      1.0  0.29203  0.44154  0.55274  1.0000
  H   H1209     1.0  0.15020  0.32506  0.70963  1.0000
  H   H1210     1.0  0.25122  0.62809  0.52829  1.0000
  H   H1211     1.0  0.21233  0.35731  0.70986  1.0000
  S   S308      1.0  0.32274  0.58417  0.66891  1.0000
  H   H1212     1.0  0.30102  0.37052  0.49096  1.0000
  H   H1213     1.0  0.30846  0.54298  0.64344  1.0000
  Fe  Fe160     1.0  0.19251  0.36218  0.68606  1.0000
  S   S309      1.0  0.19603  0.34180  0.67844  1.0000
  S   S310      1.0  0.18147  0.36564  0.70825  1.0000
  Fe  Fe161     1.0  0.20734  0.37790  0.65747  1.0000
  S   S311      1.0  0.21267  0.35883  0.64701  1.0000
  S   S312      1.0  0.21210  0.40000  0.64757  1.0000
  Fe  Fe162     1.0  0.19013  0.35650  0.65810  1.0000
  S   S313      1.0  0.17512  0.35096  0.64784  1.0000
  Fe  Fe163     1.0  0.21810  0.34576  0.66808  1.0000
  S   S314      1.0  0.23751  0.32837  0.67147  1.0000
  S   S315      1.0  0.18431  0.37658  0.66685  1.0000
  S   S316      1.0  0.21511  0.36500  0.67744  1.0000
  Fe  Fe164     1.0  0.27782  0.37152  0.68444  1.0000
  S   S317      1.0  0.27970  0.36905  0.66198  1.0000
  S   S318      1.0  0.30706  0.39707  0.69917  1.0000
  S   S319      1.0  0.29639  0.36385  0.69549  1.0000
  C   C744      1.0  0.23350  0.61179  0.69914  1.0000
  S   S320      1.0  0.26197  0.36279  0.70371  1.0000
  H   H1214     1.0  0.15929  0.34710  0.69566  1.0000
  S   S321      1.0  0.30013  0.45935  0.65845  1.0000
  Fe  Fe165     1.0  0.20414  0.62874  0.67215  1.0000
  H   H1215     1.0  0.26556  0.63465  0.51465  1.0000
  S   S322      1.0  0.19518  0.63071  0.69537  1.0000
  Fe  Fe166     1.0  0.23025  0.61275  0.65398  1.0000
  C   C745      1.0  0.16875  0.64491  0.68928  1.0000
  S   S323      1.0  0.25128  0.59663  0.65284  1.0000
  H   H1216     1.0  0.29202  0.34721  0.50851  1.0000
  C   C746      1.0  0.24013  0.33557  0.72469  1.0000
  C   C747      1.0  0.31480  0.57185  0.60616  1.0000
  S   S324      1.0  0.19610  0.64368  0.65302  1.0000
  S   S325      1.0  0.20802  0.60858  0.66371  1.0000
  Fe  Fe167     1.0  0.26698  0.55000  0.60173  1.0000
  S   S326      1.0  0.27530  0.57033  0.59218  1.0000
  S   S327      1.0  0.24890  0.54969  0.62112  1.0000
  Fe  Fe168     1.0  0.28762  0.53378  0.57970  1.0000
  S   S328      1.0  0.29789  0.55279  0.56843  1.0000
  S   S329      1.0  0.29722  0.51355  0.57073  1.0000
  Fe  Fe169     1.0  0.29696  0.55549  0.59067  1.0000
  H   H1217     1.0  0.20372  0.64572  0.62106  1.0000
  Fe  Fe170     1.0  0.27534  0.56590  0.57096  1.0000
  S   S330      1.0  0.26508  0.58383  0.55474  1.0000
  S   S331      1.0  0.28862  0.53531  0.60181  1.0000
  S   S332      1.0  0.26507  0.54674  0.58061  1.0000
  S   S333      1.0  0.31858  0.41859  0.58160  1.0000
  H   H1218     1.0  0.22336  0.41108  0.67107  1.0000
  H   H1219     1.0  0.30703  0.35904  0.52114  1.0000
  C   C748      1.0  0.29721  0.58201  0.51905  1.0000
  H   H1220     1.0  0.13395  0.34041  0.67721  1.0000
  H   H1221     1.0  0.29586  0.41535  0.61165  1.0000
  Fe  Fe171     1.0  0.32127  0.46559  0.64741  1.0000
  C   C749      1.0  0.29112  0.59270  0.50843  1.0000
  C   C750      1.0  0.30808  0.33447  0.49466  1.0000
  H   H1222     1.0  0.29361  0.38031  0.60594  1.0000
  C   C751      1.0  0.27519  0.58686  0.53692  1.0000
  H   H1223     1.0  0.27851  0.64926  0.53882  1.0000
  H   H1224     1.0  0.17967  0.64324  0.71984  1.0000
  N   N77       1.0  0.31084  0.37754  0.50425  1.0000
  C   C752      1.0  0.27698  0.60033  0.51203  1.0000
  C   C753      1.0  0.26893  0.59718  0.52618  1.0000
  H   H1225     1.0  0.26577  0.39930  0.49613  1.0000
  H   H1226     1.0  0.32438  0.52543  0.56965  1.0000
  H   H1227     1.0  0.27216  0.60843  0.50379  1.0000
  H   H1228     1.0  0.25786  0.60278  0.52882  1.0000
  H   H1229     1.0  0.31983  0.64333  0.69153  1.0000
  S   S334      1.0  0.22686  0.63184  0.66366  1.0000
  H   H1230     1.0  0.21976  0.63998  0.69378  1.0000
  H   H1231     1.0  0.28017  0.62351  0.54808  1.0000
  H   H1232     1.0  0.26162  0.52803  0.54207  1.0000
  H   H1233     1.0  0.29430  0.57137  0.54151  1.0000
  C   C754      1.0  0.25075  0.58286  0.64486  1.0000
  C   C755      1.0  0.26335  0.57606  0.63658  1.0000
  C   C756      1.0  0.26294  0.56534  0.62982  1.0000
  C   C757      1.0  0.24989  0.56151  0.63119  1.0000
  C   C758      1.0  0.23736  0.56807  0.63972  1.0000
  C   C759      1.0  0.23776  0.57884  0.64643  1.0000
  H   H1234     1.0  0.27332  0.57940  0.63496  1.0000
  H   H1235     1.0  0.27269  0.56020  0.62337  1.0000
  H   H1236     1.0  0.22726  0.56509  0.64084  1.0000
  H   H1237     1.0  0.22801  0.58396  0.65287  1.0000
  H   H1238     1.0  0.30483  0.55140  0.67904  1.0000
  C   C760      1.0  0.22690  0.32995  0.71023  1.0000
  C   C761      1.0  0.30503  0.41446  0.68798  1.0000
  C   C762      1.0  0.29155  0.42212  0.68525  1.0000
  C   C763      1.0  0.29011  0.43593  0.67623  1.0000
  C   C764      1.0  0.30215  0.44213  0.66989  1.0000
  C   C765      1.0  0.20313  0.64319  0.61124  1.0000
  H   H1239     1.0  0.24639  0.63220  0.55298  1.0000
  H   H1240     1.0  0.28216  0.41757  0.69032  1.0000
  H   H1241     1.0  0.27964  0.44183  0.67423  1.0000
  H   H1242     1.0  0.25846  0.55430  0.53165  1.0000
  S   S335      1.0  0.22493  0.62628  0.63318  1.0000
  Fe  Fe172     1.0  0.21907  0.64508  0.64380  1.0000
  C   C766      1.0  0.25127  0.33778  0.66740  1.0000
  C   C767      1.0  0.26056  0.33489  0.67686  1.0000
  C   C768      1.0  0.26971  0.34428  0.67496  1.0000
  C   C769      1.0  0.26984  0.35623  0.66337  1.0000
  C   C770      1.0  0.26121  0.35854  0.65345  1.0000
  C   C771      1.0  0.25177  0.34943  0.65559  1.0000
  N   N78       1.0  0.22616  0.33901  0.72033  1.0000
  H   H1243     1.0  0.27656  0.34240  0.68253  1.0000
  H   H1244     1.0  0.26129  0.36779  0.64454  1.0000
  H   H1245     1.0  0.24468  0.35154  0.64822  1.0000
  H   H1246     1.0  0.31577  0.38728  0.51910  1.0000
  H   H1247     1.0  0.27388  0.40501  0.61986  1.0000
  S   S336      1.0  0.27479  0.37819  0.72231  1.0000
  H   H1248     1.0  0.27756  0.55542  0.65772  1.0000
  H   H1249     1.0  0.15953  0.35288  0.67666  1.0000
  S   S337      1.0  0.31131  0.60419  0.63369  1.0000
  C   C772      1.0  0.29496  0.63152  0.70152  1.0000
  C   C773      1.0  0.31889  0.32197  0.49420  1.0000
  H   H1250     1.0  0.28609  0.57828  0.65161  1.0000
  C   C774      1.0  0.31563  0.43454  0.67271  1.0000
  C   C775      1.0  0.27066  0.48089  0.57266  1.0000
  C   C776      1.0  0.26395  0.49352  0.57798  1.0000
  C   C777      1.0  0.27196  0.50356  0.57760  1.0000
  C   C778      1.0  0.28672  0.50120  0.57157  1.0000
  C   C779      1.0  0.29340  0.48867  0.56612  1.0000
  C   C780      1.0  0.28546  0.47847  0.56682  1.0000
  H   H1251     1.0  0.25251  0.49546  0.58254  1.0000
  H   H1252     1.0  0.26669  0.51312  0.58192  1.0000
  H   H1253     1.0  0.30480  0.48677  0.56140  1.0000
  H   H1254     1.0  0.29076  0.46881  0.56268  1.0000
  C   C781      1.0  0.30936  0.55032  0.66763  1.0000
  H   H1255     1.0  0.27914  0.61991  0.64594  1.0000
  H   H1256     1.0  0.29926  0.63216  0.71033  1.0000
  H   H1257     1.0  0.29441  0.38906  0.49225  1.0000
  H   H1258     1.0  0.28914  0.37506  0.50722  1.0000
  C   C782      1.0  0.28136  0.53661  0.51858  1.0000
  H   H1259     1.0  0.27012  0.53028  0.55515  1.0000
  H   H1260     1.0  0.24921  0.62998  0.71344  1.0000
  H   H1261     1.0  0.31924  0.39293  0.48599  1.0000
  H   H1262     1.0  0.31465  0.55948  0.63883  1.0000
  C   C783      1.0  0.25108  0.39651  0.61064  1.0000
  C   C784      1.0  0.24758  0.38413  0.62044  1.0000
  C   C785      1.0  0.23593  0.38534  0.63211  1.0000
  C   C786      1.0  0.22767  0.39887  0.63396  1.0000
  C   C787      1.0  0.23151  0.41136  0.62451  1.0000
  C   C788      1.0  0.24332  0.41018  0.61283  1.0000
  H   H1263     1.0  0.25371  0.37355  0.61888  1.0000
  H   H1264     1.0  0.23329  0.37577  0.63965  1.0000
  H   H1265     1.0  0.22513  0.42188  0.62599  1.0000
  H   H1266     1.0  0.24605  0.41978  0.60524  1.0000
  C   C789      1.0  0.20662  0.32891  0.51496  1.0000
  C   C790      1.0  0.19766  0.34275  0.60290  1.0000
  C   C791      1.0  0.18671  0.33559  0.61120  1.0000
  C   C792      1.0  0.17957  0.33837  0.62490  1.0000
  C   C793      1.0  0.18348  0.34821  0.63035  1.0000
  C   C794      1.0  0.19424  0.35557  0.62192  1.0000
  C   C795      1.0  0.20139  0.35275  0.60826  1.0000
  C   C796      1.0  0.32260  0.38176  0.49217  1.0000
  H   H1267     1.0  0.31884  0.55549  0.66375  1.0000
  H   H1268     1.0  0.19692  0.36354  0.62585  1.0000
  H   H1269     1.0  0.20995  0.35813  0.60196  1.0000
  C   C797      1.0  0.25540  0.39346  0.53272  1.0000
  C   C798      1.0  0.26345  0.40194  0.53554  1.0000
  C   C799      1.0  0.27236  0.40951  0.52413  1.0000
  C   C800      1.0  0.27309  0.40846  0.50992  1.0000
  H   H1270     1.0  0.20393  0.33895  0.73041  1.0000
  H   H1271     1.0  0.26283  0.40259  0.54652  1.0000
  H   H1272     1.0  0.27975  0.41445  0.50099  1.0000
  C   C801      1.0  0.19538  0.63302  0.61180  1.0000
  C   C802      1.0  0.29831  0.37806  0.49843  1.0000
  H   H1273     1.0  0.18375  0.32786  0.60711  1.0000
  C   C803      1.0  0.28583  0.55058  0.66445  1.0000
  H   H1274     1.0  0.30022  0.52881  0.53611  1.0000
  H   H1275     1.0  0.22305  0.33754  0.49803  1.0000
  C   C804      1.0  0.25632  0.39225  0.51852  1.0000
  H   H1276     1.0  0.32316  0.46883  0.57318  1.0000
  N   N79       1.0  0.21318  0.35567  0.53849  1.0000
  C   C805      1.0  0.22544  0.34314  0.53838  1.0000
  C   C806      1.0  0.19967  0.35066  0.54575  1.0000
  C   C807      1.0  0.21241  0.36333  0.52346  1.0000
  C   C808      1.0  0.21525  0.36557  0.54638  1.0000
  H   H1277     1.0  0.23573  0.34650  0.53245  1.0000
  H   H1278     1.0  0.22395  0.33515  0.53304  1.0000
  H   H1279     1.0  0.22663  0.33745  0.54957  1.0000
  H   H1280     1.0  0.19017  0.35980  0.54603  1.0000
  H   H1281     1.0  0.19778  0.34313  0.54010  1.0000
  H   H1282     1.0  0.19987  0.34481  0.55711  1.0000
  H   H1283     1.0  0.22237  0.36743  0.51774  1.0000
  H   H1284     1.0  0.20319  0.37276  0.52309  1.0000
  H   H1285     1.0  0.21108  0.35611  0.51713  1.0000
  H   H1286     1.0  0.21573  0.36012  0.55781  1.0000
  H   H1287     1.0  0.20627  0.37523  0.54653  1.0000
  H   H1288     1.0  0.22544  0.36945  0.54122  1.0000
  N   N80       1.0  0.28923  0.47044  0.61482  1.0000
  C   C809      1.0  0.29687  0.48062  0.60337  1.0000
  C   C810      1.0  0.27781  0.46760  0.60946  1.0000
  C   C811      1.0  0.28275  0.47679  0.62773  1.0000
  C   C812      1.0  0.29951  0.45675  0.61866  1.0000
  H   H1289     1.0  0.30605  0.48248  0.60663  1.0000
  H   H1290     1.0  0.28961  0.49129  0.60065  1.0000
  H   H1291     1.0  0.30138  0.47643  0.59327  1.0000
  H   H1292     1.0  0.28234  0.46288  0.59964  1.0000
  H   H1293     1.0  0.27180  0.45994  0.61777  1.0000
  H   H1294     1.0  0.26989  0.47772  0.60641  1.0000
  H   H1295     1.0  0.29109  0.47917  0.63195  1.0000
  H   H1296     1.0  0.27715  0.46928  0.63673  1.0000
  H   H1297     1.0  0.27482  0.48707  0.62531  1.0000
  H   H1298     1.0  0.30416  0.45140  0.60929  1.0000
  H   H1299     1.0  0.29426  0.44905  0.62774  1.0000
  H   H1300     1.0  0.30861  0.45859  0.62216  1.0000
  N   N81       1.0  0.15265  0.33287  0.68665  1.0000
  H   H1301     1.0  0.28228  0.62016  0.53042  1.0000
  H   H1302     1.0  0.28860  0.52587  0.51784  1.0000
  H   H1303     1.0  0.29220  0.39916  0.59825  1.0000
  H   H1304     1.0  0.22289  0.63203  0.72480  1.0000
  H   H1305     1.0  0.29871  0.37050  0.63084  1.0000
  C   C813      1.0  0.31162  0.33078  0.72098  1.0000
  H   H1306     1.0  0.24156  0.61162  0.68876  1.0000
  C   C814      1.0  0.29268  0.53950  0.53627  1.0000
  H   H1307     1.0  0.31962  0.52676  0.60151  1.0000
  C   C815      1.0  0.27996  0.39553  0.62650  1.0000
  H   H1308     1.0  0.17351  0.32861  0.67275  1.0000
  H   H1309     1.0  0.23129  0.35705  0.70339  1.0000
  H   H1310     1.0  0.26207  0.62921  0.65476  1.0000
  C   C816      1.0  0.31282  0.59186  0.62291  1.0000
  N   N82       1.0  0.23359  0.59864  0.59893  1.0000
  C   C817      1.0  0.24621  0.59896  0.60414  1.0000
  C   C818      1.0  0.23626  0.58525  0.59361  1.0000
  C   C819      1.0  0.23108  0.61126  0.58704  1.0000
  C   C820      1.0  0.22083  0.59911  0.61094  1.0000
  H   H1311     1.0  0.25600  0.59891  0.59532  1.0000
  H   H1312     1.0  0.24858  0.58944  0.61290  1.0000
  H   H1313     1.0  0.24437  0.60874  0.60861  1.0000
  H   H1314     1.0  0.22686  0.58464  0.58974  1.0000
  H   H1315     1.0  0.24576  0.58454  0.58447  1.0000
  H   H1316     1.0  0.23831  0.57550  0.60229  1.0000
  H   H1317     1.0  0.22141  0.61160  0.58306  1.0000
  H   H1318     1.0  0.24039  0.61103  0.57768  1.0000
  H   H1319     1.0  0.22936  0.62152  0.59063  1.0000
  H   H1320     1.0  0.21872  0.60887  0.61547  1.0000
  H   H1321     1.0  0.22224  0.58957  0.61998  1.0000
  H   H1322     1.0  0.21093  0.59936  0.60741  1.0000
  C   C821      1.0  0.30311  0.38027  0.62925  1.0000
  H   H1323     1.0  0.24585  0.65107  0.54622  1.0000
  C   C822      1.0  0.25798  0.65141  0.63225  1.0000
  H   H1324     1.0  0.31482  0.37768  0.62451  1.0000
  N   N83       1.0  0.29863  0.55708  0.65847  1.0000
  C   C823      1.0  0.17926  0.33729  0.71753  1.0000
  H   H1325     1.0  0.27239  0.65056  0.65206  1.0000
  C   C824      1.0  0.24834  0.62112  0.70885  1.0000
  H   H1326     1.0  0.19516  0.40083  0.67624  1.0000
  H   H1327     1.0  0.28869  0.53875  0.66489  1.0000
  H   H1328     1.0  0.22209  0.36151  0.72056  1.0000
  H   H1329     1.0  0.19324  0.39632  0.70901  1.0000
  C   C825      1.0  0.30672  0.38761  0.51418  1.0000
  Fe  Fe173     1.0  0.20222  0.62399  0.64355  1.0000
  C   C826      1.0  0.20611  0.41829  0.69558  1.0000
  H   H1330     1.0  0.19003  0.33468  0.71122  1.0000
  C   C827      1.0  0.19387  0.63060  0.59891  1.0000
  C   C828      1.0  0.30184  0.32716  0.52080  1.0000
  C   C829      1.0  0.29984  0.33723  0.50800  1.0000
  C   C830      1.0  0.17266  0.35167  0.71810  1.0000
  H   H1331     1.0  0.19546  0.42153  0.70266  1.0000
  C   C831      1.0  0.30122  0.40570  0.61874  1.0000
  C   C832      1.0  0.30499  0.55469  0.64365  1.0000
  S   S338      1.0  0.26616  0.34825  0.50259  1.0000
  N   N84       1.0  0.22431  0.39103  0.58624  1.0000
  C   C833      1.0  0.23204  0.39217  0.57098  1.0000
  C   C834      1.0  0.22388  0.40420  0.59103  1.0000
  C   C835      1.0  0.23192  0.37826  0.59530  1.0000
  C   C836      1.0  0.20946  0.38951  0.58766  1.0000
  H   H1332     1.0  0.23260  0.38242  0.56697  1.0000
  H   H1333     1.0  0.24332  0.39327  0.56962  1.0000
  H   H1334     1.0  0.22672  0.40177  0.56380  1.0000
  H   H1335     1.0  0.21900  0.40337  0.60277  1.0000
  H   H1336     1.0  0.23488  0.40616  0.58920  1.0000
  H   H1337     1.0  0.21756  0.41398  0.58497  1.0000
  H   H1338     1.0  0.22661  0.37722  0.60697  1.0000
  H   H1339     1.0  0.24324  0.37894  0.59427  1.0000
  H   H1340     1.0  0.23227  0.36809  0.59215  1.0000
  H   H1341     1.0  0.20349  0.38824  0.59915  1.0000
  H   H1342     1.0  0.20936  0.37988  0.58380  1.0000
  H   H1343     1.0  0.20328  0.39911  0.58126  1.0000
  N   N85       1.0  0.23388  0.62343  0.70587  1.0000
  Fe  Fe174     1.0  0.25779  0.38435  0.70925  1.0000
  S   S339      1.0  0.23501  0.39545  0.71694  1.0000
  H   H1344     1.0  0.17238  0.64098  0.67935  1.0000
  H   H1345     1.0  0.25218  0.64698  0.62671  1.0000
  S   S340      1.0  0.20678  0.33925  0.58585  1.0000
  H   H1346     1.0  0.30375  0.57802  0.65323  1.0000
  H   H1347     1.0  0.27376  0.56261  0.52533  1.0000
  C   C837      1.0  0.28235  0.64126  0.69830  1.0000
  H   H1348     1.0  0.30335  0.39899  0.50848  1.0000
  H   H1349     1.0  0.25680  0.62089  0.69876  1.0000
  H   H1350     1.0  0.31681  0.51269  0.59455  1.0000
  C   C838      1.0  0.30215  0.62111  0.69320  1.0000
  H   H1351     1.0  0.27925  0.62851  0.67056  1.0000
  H   H1352     1.0  0.19758  0.41903  0.67123  1.0000
  H   H1353     1.0  0.18448  0.41345  0.68716  1.0000
  H   H1354     1.0  0.27917  0.51741  0.54403  1.0000
  H   H1355     1.0  0.28996  0.57498  0.66917  1.0000
  Fe  Fe175     1.0  0.25355  0.34029  0.49184  1.0000
  H   H1356     1.0  0.29216  0.58047  0.60706  1.0000
  C   C839      1.0  0.17774  0.64127  0.69912  1.0000
  C   C840      1.0  0.27212  0.52836  0.54404  1.0000
  C   C841      1.0  0.22285  0.35440  0.71318  1.0000
  H   H1357     1.0  0.22276  0.61319  0.69671  1.0000
  S   S341      1.0  0.31839  0.60955  0.69655  1.0000
  C   C842      1.0  0.30161  0.58108  0.61024  1.0000
  N   N86       1.0  0.26444  0.63727  0.53606  1.0000
  H   H1358     1.0  0.27533  0.38608  0.62745  1.0000
  S   S342      1.0  0.24578  0.38169  0.51541  1.0000
  C   C843      1.0  0.16732  0.32399  0.68346  1.0000
  H   H1359     1.0  0.20829  0.42785  0.68692  1.0000
  H   H1360     1.0  0.21436  0.41554  0.70228  1.0000
  N   N87       1.0  0.27882  0.53959  0.53313  1.0000
  C   C844      1.0  0.22090  0.40201  0.68028  1.0000
  H   H1361     1.0  0.30818  0.57614  0.51628  1.0000
  C   C845      1.0  0.20947  0.64723  0.58514  1.0000
  C   C846      1.0  0.28371  0.62956  0.67905  1.0000
  H   H1362     1.0  0.31517  0.39125  0.72749  1.0000
  H   H1363     1.0  0.19987  0.63580  0.57558  1.0000
  H   H1364     1.0  0.30194  0.61213  0.67554  1.0000
  C   C847      1.0  0.27674  0.64026  0.68702  1.0000
  H   H1365     1.0  0.29962  0.40830  0.62948  1.0000
  H   H1366     1.0  0.27111  0.53663  0.51583  1.0000
  C   C848      1.0  0.22081  0.32884  0.50714  1.0000
  H   H1367     1.0  0.28646  0.54489  0.51010  1.0000
  H   H1368     1.0  0.22168  0.39272  0.67551  1.0000
  H   H1369     1.0  0.21227  0.38948  0.70750  1.0000
  H   H1370     1.0  0.23847  0.63789  0.68535  1.0000
  C   C849      1.0  0.26916  0.55390  0.53364  1.0000
  C   C850      1.0  0.28935  0.57927  0.53333  1.0000
  C   C851      1.0  0.22296  0.62330  0.71952  1.0000
  H   H1371     1.0  0.29723  0.55965  0.63638  1.0000
  H   H1372     1.0  0.29805  0.54790  0.52832  1.0000
  H   H1373     1.0  0.26731  0.55669  0.54436  1.0000
  H   H1374     1.0  0.24910  0.33711  0.71515  1.0000
  S   S343      1.0  0.18669  0.31937  0.53859  1.0000
  C   C852      1.0  0.29783  0.38990  0.60546  1.0000
  S   S344      1.0  0.29421  0.63663  0.49136  1.0000
  H   H1375     1.0  0.18777  0.62282  0.59928  1.0000
  S   S345      1.0  0.18946  0.62213  0.62854  1.0000
  C   C853      1.0  0.15357  0.34748  0.68715  1.0000
  H   H1376     1.0  0.25100  0.61074  0.71659  1.0000
  C   C854      1.0  0.26894  0.62768  0.64405  1.0000
  H   H1377     1.0  0.31493  0.44913  0.56841  1.0000
  H   H1378     1.0  0.22954  0.39900  0.68657  1.0000
  S   S346      1.0  0.17847  0.32061  0.58006  1.0000
  H   H1379     1.0  0.24855  0.38767  0.54158  1.0000
  C   C855      1.0  0.26521  0.39983  0.50713  1.0000
  C   C856      1.0  0.30066  0.59114  0.61850  1.0000
  H   H1380     1.0  0.27783  0.39750  0.63762  1.0000
  H   H1381     1.0  0.30944  0.38803  0.60010  1.0000
  C   C857      1.0  0.20358  0.39352  0.70130  1.0000
  Fe  Fe176     1.0  0.25285  0.37029  0.49639  1.0000
  C   C858      1.0  0.28097  0.63889  0.62060  1.0000
  S   S347      1.0  0.27186  0.39379  0.68874  1.0000
  H   H1382     1.0  0.26812  0.61448  0.54496  1.0000
  Fe  Fe177     1.0  0.28941  0.38562  0.70127  1.0000
  C   C859      1.0  0.14469  0.32613  0.70077  1.0000
  C   C860      1.0  0.29651  0.62019  0.68194  1.0000
  S   S348      1.0  0.30121  0.59611  0.49070  1.0000
  N   N88       1.0  0.20650  0.40597  0.68945  1.0000
  C   C861      1.0  0.20081  0.63785  0.58555  1.0000
  N   N89       1.0  0.29553  0.39285  0.61999  1.0000
  H   H1383     1.0  0.29112  0.54161  0.54721  1.0000
  H   H1384     1.0  0.20282  0.38439  0.69712  1.0000
  C   C862      1.0  0.19542  0.41005  0.68066  1.0000
  H   H1385     1.0  0.17346  0.32320  0.69173  1.0000
  H   H1386     1.0  0.31928  0.35489  0.50489  1.0000
  H   H1387     1.0  0.23579  0.60099  0.70637  1.0000
  Fe  Fe178     1.0  0.28007  0.35712  0.71533  1.0000
  C   C863      1.0  0.21056  0.64985  0.59802  1.0000
  C   C864      1.0  0.32335  0.43298  0.58547  1.0000
  H   H1388     1.0  0.31294  0.40402  0.61381  1.0000
  H   H1389     1.0  0.24992  0.64706  0.52156  1.0000
  C   C865      1.0  0.25321  0.64040  0.54886  1.0000
  H   H1390     1.0  0.21658  0.33231  0.70664  1.0000
  S   S349      1.0  0.26068  0.65162  0.68297  1.0000
  C   C866      1.0  0.32028  0.36492  0.72181  1.0000
  S   S350      1.0  0.31651  0.55880  0.59611  1.0000
  H   H1391     1.0  0.23541  0.33194  0.70035  1.0000
  H   H1392     1.0  0.28067  0.55227  0.67559  1.0000
  C   C867      1.0  0.23074  0.63755  0.69594  1.0000
  H   H1393     1.0  0.30182  0.38228  0.64022  1.0000
  S   S351      1.0  0.23852  0.36186  0.48737  1.0000
  H   H1394     1.0  0.26329  0.62245  0.63912  1.0000
  H   H1395     1.0  0.29527  0.32925  0.53108  1.0000
  Fe  Fe179     1.0  0.20035  0.32016  0.58294  1.0000
  C   C868      1.0  0.25751  0.63671  0.52466  1.0000
  C   C869      1.0  0.31705  0.42075  0.68181  1.0000
  H   H1396     1.0  0.14271  0.35452  0.68949  1.0000
  H   H1397     1.0  0.29141  0.63137  0.62203  1.0000
  C   C870      1.0  0.27419  0.62325  0.54005  1.0000
  H   H1398     1.0  0.30889  0.33550  0.71053  1.0000
  H   H1399     1.0  0.15371  0.36608  0.72695  1.0000
  H   H1400     1.0  0.17121  0.33270  0.63135  1.0000
  H   H1401     1.0  0.25796  0.64063  0.55785  1.0000
  H   H1402     1.0  0.23148  0.64649  0.70044  1.0000
  H   H1403     1.0  0.15081  0.33884  0.66439  1.0000
  C   C871      1.0  0.15884  0.35495  0.72652  1.0000
  C   C872      1.0  0.17206  0.32620  0.72549  1.0000
  H   H1404     1.0  0.21193  0.62501  0.71757  1.0000
  C   C873      1.0  0.32037  0.44699  0.57722  1.0000
  C   C874      1.0  0.27916  0.64818  0.64157  1.0000
  H   H1405     1.0  0.31067  0.36611  0.71738  1.0000
  S   S352      1.0  0.32091  0.48371  0.62807  1.0000
  H   H1406     1.0  0.14436  0.32291  0.67452  1.0000
  H   H1407     1.0  0.27563  0.63407  0.61497  1.0000
  H   H1408     1.0  0.28953  0.64095  0.64370  1.0000
  C   C875      1.0  0.17278  0.64611  0.71215  1.0000
  C   C876      1.0  0.27277  0.64878  0.53068  1.0000
  H   H1409     1.0  0.28341  0.64909  0.61323  1.0000
  H   H1410     1.0  0.22493  0.61282  0.72732  1.0000
  H   H1411     1.0  0.27688  0.64936  0.70462  1.0000
  H   H1412     1.0  0.28091  0.64717  0.52060  1.0000
  C   C877      1.0  0.31577  0.36271  0.51217  1.0000
  H   H1413     1.0  0.24267  0.32420  0.73066  1.0000
  Fe  Fe180     1.0  0.28018  0.35309  0.48075  1.0000
  H   H1414     1.0  0.15549  0.34372  0.76116  1.0000
  H   H1415     1.0  0.30511  0.38697  0.74572  1.0000
  H   H1416     1.0  0.16169  0.34102  0.79031  1.0000
  C   C878      1.0  0.16769  0.33268  0.78391  1.0000
  H   H1417     1.0  0.14187  0.34610  0.77711  1.0000
  C   C879      1.0  0.14877  0.33794  0.77082  1.0000
  N   N90       1.0  0.15786  0.32638  0.77959  1.0000
  S   S353      1.0  0.20535  0.32249  0.79810  1.0000
  H   H1418     1.0  0.21409  0.34233  0.74132  1.0000
  H   H1419     1.0  0.17462  0.32428  0.79069  1.0000
  H   H1420     1.0  0.22926  0.35237  0.75541  1.0000
  C   C880      1.0  0.22398  0.36264  0.74993  1.0000
  C   C881      1.0  0.20898  0.36712  0.75366  1.0000
  H   H1421     1.0  0.29605  0.32217  0.75661  1.0000
  H   H1422     1.0  0.29702  0.35987  0.74187  1.0000
  S   S354      1.0  0.19810  0.35577  0.76616  1.0000
  C   C882      1.0  0.14864  0.31938  0.79264  1.0000
  H   H1423     1.0  0.21672  0.32444  0.73861  1.0000
  S   S355      1.0  0.23233  0.32326  0.76949  1.0000
  Fe  Fe181     1.0  0.20876  0.33288  0.77448  1.0000
  H   H1424     1.0  0.30273  0.36192  0.75698  1.0000
  C   C883      1.0  0.30081  0.32973  0.73347  1.0000
  C   C884      1.0  0.23219  0.37147  0.73895  1.0000
  H   H1425     1.0  0.24372  0.36783  0.73591  1.0000
  C   C885      1.0  0.20234  0.38074  0.74684  1.0000
  C   C886      1.0  0.22541  0.38490  0.73186  1.0000
  H   H1426     1.0  0.14222  0.32718  0.79953  1.0000
  H   H1427     1.0  0.19079  0.38434  0.74976  1.0000
  C   C887      1.0  0.30443  0.32310  0.74691  1.0000
  H   H1428     1.0  0.14058  0.34657  0.74017  1.0000
  H   H1429     1.0  0.17491  0.33796  0.77432  1.0000
  H   H1430     1.0  0.17282  0.32051  0.76060  1.0000
  C   C888      1.0  0.21053  0.38965  0.73610  1.0000
  S   S356      1.0  0.28278  0.33668  0.73234  1.0000
  C   C889      1.0  0.21471  0.33604  0.73323  1.0000
  C   C890      1.0  0.30664  0.35910  0.74616  1.0000
  H   H1431     1.0  0.14163  0.33347  0.76686  1.0000
  H   H1432     1.0  0.24018  0.34254  0.73192  1.0000
  N   N91       1.0  0.31613  0.36855  0.73623  1.0000
  H   H1433     1.0  0.31240  0.34761  0.74777  1.0000
  C   C891      1.0  0.15145  0.34392  0.73404  1.0000
  C   C892      1.0  0.15805  0.32954  0.73356  1.0000
  H   H1434     1.0  0.13545  0.31903  0.89936  1.0000
  C   C893      1.0  0.30840  0.38380  0.73507  1.0000
  H   H1435     1.0  0.29850  0.38582  0.73081  1.0000
  H   H1436     1.0  0.20526  0.40011  0.73083  1.0000
  Fe  Fe182     1.0  0.05420  0.88269  0.15112  1.0000
  S   S357      1.0  0.06431  0.90090  0.13655  1.0000
  Fe  Fe183     1.0  0.08283  0.86071  0.14862  1.0000
  S   S358      1.0  0.09506  0.87691  0.13351  1.0000
  S   S359      1.0  0.09340  0.83718  0.15306  1.0000
  Fe  Fe184     1.0  0.08256  0.89187  0.14856  1.0000
  S   S360      1.0  0.09417  0.90146  0.15997  1.0000
  Fe  Fe185     1.0  0.07595  0.88434  0.12298  1.0000
  S   S361      1.0  0.07724  0.88582  0.09940  1.0000
  S   S362      1.0  0.07126  0.87493  0.16435  1.0000
  S   S363      1.0  0.06488  0.86685  0.13693  1.0000
  Fe  Fe186     1.0  0.02999  0.84051  0.05455  1.0000
  S   S364      1.0  0.02719  0.81796  0.06579  1.0000
  S   S365      1.0  0.03827  0.84859  0.03090  1.0000
  Fe  Fe187     1.0  0.02390  0.85114  0.08225  1.0000
  S   S366      1.0  0.02045  0.82966  0.09597  1.0000
  S   S367      1.0  0.02157  0.86933  0.09325  1.0000
  Fe  Fe188     1.0  0.03972  0.82028  0.08073  1.0000
  S   S368      1.0  0.05869  0.80401  0.08771  1.0000
  Fe  Fe189     1.0  0.00785  0.82914  0.08010  1.0000
  H   H1437     1.0  0.07844  0.67023  0.17788  1.0000
  S   S369      1.0  0.04422  0.84175  0.06831  1.0000
  S   S370      1.0  0.00963  0.85165  0.06762  1.0000
  Fe  Fe190     1.0  0.08431  0.74157  0.17621  1.0000
  S   S371      1.0  0.06590  0.73303  0.17498  1.0000
  S   S372      1.0  0.08983  0.74247  0.19659  1.0000
  Fe  Fe191     1.0  0.09636  0.74614  0.14431  1.0000
  S   S373      1.0  0.07949  0.73778  0.13976  1.0000
  S   S374      1.0  0.11285  0.75535  0.12644  1.0000
  Fe  Fe192     1.0  0.06425  0.75080  0.15524  1.0000
  S   S375      1.0  0.04349  0.76331  0.14887  1.0000
  Fe  Fe193     1.0  0.08239  0.72068  0.15957  1.0000
  H   H1438     1.0  0.30198  0.66149  0.17989  1.0000
  S   S376      1.0  0.08088  0.76081  0.15813  1.0000
  S   S377      1.0  0.10108  0.72755  0.16254  1.0000
  Fe  Fe194     1.0  0.13081  0.96236  0.16576  1.0000
  S   S378      1.0  0.15190  0.94667  0.16584  1.0000
  S   S379      1.0  0.11512  0.95946  0.15377  1.0000
  Fe  Fe195     1.0  0.14950  0.94967  0.18822  1.0000
  S   S380      1.0  0.15317  0.93056  0.20643  1.0000
  H   H1439     1.0  0.10925  0.69745  0.16291  1.0000
  Fe  Fe196     1.0  0.22711  0.84954  0.19140  1.0000
  H   H1440     1.0  0.18091  0.93935  0.15555  1.0000
  S   S381      1.0  0.23040  0.84587  0.16915  1.0000
  H   H1441     1.0  0.02162  0.85942  0.12975  1.0000
  S   S382      1.0  0.20634  0.86330  0.20013  1.0000
  Fe  Fe197     1.0  0.25873  0.90822  0.09181  1.0000
  S   S383      1.0  0.25794  0.92217  0.06976  1.0000
  S   S384      1.0  0.28071  0.89650  0.09583  1.0000
  Fe  Fe198     1.0  0.24010  0.91171  0.07011  1.0000
  S   S385      1.0  0.24241  0.90217  0.05067  1.0000
  S   S386      1.0  0.24215  0.89669  0.09148  1.0000
  Fe  Fe199     1.0  0.29728  0.80184  0.15357  1.0000
  S   S387      1.0  0.30488  0.81098  0.16808  1.0000
  S   S388      1.0  0.27881  0.79065  0.16097  1.0000
  H   H1442     1.0  0.13088  0.96500  0.22467  1.0000
  S   S389      1.0  0.16183  0.65702  0.18348  1.0000
  Fe  Fe200     1.0  0.10060  0.79927  0.99000  1.0000
  C   C894      1.0  0.24643  0.81468  0.01939  1.0000
  H   H1443     1.0  0.19354  0.89471  0.05571  1.0000
  Fe  Fe201     1.0  0.30240  0.83152  0.15106  1.0000
  S   S390      1.0  0.28934  0.85322  0.15510  1.0000
  C   C895      1.0  0.24747  0.96716  0.09853  1.0000
  S   S391      1.0  0.29321  0.82269  0.13774  1.0000
  C   C896      1.0  0.21614  0.88560  0.15339  1.0000
  Fe  Fe202     1.0  0.26930  0.79445  0.08222  1.0000
  S   S392      1.0  0.26742  0.81814  0.08022  1.0000
  Fe  Fe203     1.0  0.26268  0.76591  0.10007  1.0000
  S   S393      1.0  0.25059  0.75500  0.12096  1.0000
  Fe  Fe204     1.0  0.26181  0.77392  0.06861  1.0000
  S   S394      1.0  0.24886  0.77287  0.05352  1.0000
  C   C897      1.0  0.16488  0.83089  0.00705  1.0000
  S   S395      1.0  0.25006  0.78480  0.08694  1.0000
  H   H1444     1.0  0.22748  0.72279  0.11337  1.0000
  S   S396      1.0  0.12753  0.96415  0.18888  1.0000
  H   H1445     1.0  0.03026  0.70715  0.14876  1.0000
  Fe  Fe205     1.0  0.12659  0.78152  0.00196  1.0000
  S   S397      1.0  0.11364  0.80386  0.00308  1.0000
  S   S398      1.0  0.13044  0.76795  0.02359  1.0000
  C   C898      1.0  0.19382  0.80197  0.20280  1.0000
  S   S399      1.0  0.31370  0.75715  0.07071  1.0000
  H   H1446     1.0  0.22573  0.85742  0.04042  1.0000
  S   S400      1.0  0.20576  0.84578  0.02392  1.0000
  H   H1447     1.0  0.16868  0.69465  0.05370  1.0000
  C   C899      1.0  0.25977  0.83751  0.03988  1.0000
  Fe  Fe206     1.0  0.17924  0.72103  0.08599  1.0000
  S   S401      1.0  0.19567  0.71647  0.06612  1.0000
  S   S402      1.0  0.16012  0.71052  0.09476  1.0000
  Fe  Fe207     1.0  0.19431  0.74196  0.09077  1.0000
  S   S403      1.0  0.21171  0.73986  0.07089  1.0000
  S   S404      1.0  0.19167  0.75411  0.10794  1.0000
  Fe  Fe208     1.0  0.19394  0.74044  0.06021  1.0000
  S   S405      1.0  0.19268  0.75143  0.03709  1.0000
  Fe  Fe209     1.0  0.21180  0.71623  0.07854  1.0000
  S   S406      1.0  0.23307  0.70094  0.07934  1.0000
  S   S407      1.0  0.17657  0.74505  0.07938  1.0000
  S   S408      1.0  0.19559  0.71828  0.09907  1.0000
  H   H1448     1.0  0.25952  0.83014  0.03313  1.0000
  H   H1449     1.0  0.20833  0.68834  0.09428  1.0000
  C   C900      1.0  0.14775  0.76495  0.02690  1.0000
  C   C901      1.0  0.14936  0.76178  0.04122  1.0000
  C   C902      1.0  0.16309  0.75782  0.04439  1.0000
  C   C903      1.0  0.17534  0.75701  0.03326  1.0000
  C   C904      1.0  0.17375  0.76070  0.01886  1.0000
  C   C905      1.0  0.15996  0.76466  0.01567  1.0000
  H   H1450     1.0  0.13993  0.76231  0.04991  1.0000
  H   H1451     1.0  0.16413  0.75540  0.05546  1.0000
  H   H1452     1.0  0.18317  0.76016  0.01017  1.0000
  H   H1453     1.0  0.15879  0.76706  0.00458  1.0000
  C   C906      1.0  0.15534  0.82151  0.01109  1.0000
  C   C907      1.0  0.14768  0.82073  0.00123  1.0000
  H   H1454     1.0  0.15386  0.81479  0.02185  1.0000
  H   H1455     1.0  0.14039  0.81342  0.00442  1.0000
  C   C908      1.0  0.20807  0.75424  0.11152  1.0000
  C   C909      1.0  0.20867  0.75503  0.12537  1.0000
  C   C910      1.0  0.22182  0.75487  0.12843  1.0000
  C   C911      1.0  0.23425  0.75445  0.11749  1.0000
  C   C912      1.0  0.23362  0.75372  0.10364  1.0000
  C   C913      1.0  0.22059  0.75343  0.10070  1.0000
  H   H1456     1.0  0.19897  0.75579  0.13374  1.0000
  H   H1457     1.0  0.22224  0.75557  0.13912  1.0000
  H   H1458     1.0  0.24314  0.75353  0.09512  1.0000
  H   H1459     1.0  0.22013  0.75311  0.08992  1.0000
  C   C914      1.0  0.24797  0.78903  0.04055  1.0000
  C   C915      1.0  0.23381  0.81069  0.02818  1.0000
  C   C916      1.0  0.23460  0.79789  0.03881  1.0000
  H   H1460     1.0  0.22349  0.81746  0.02685  1.0000
  H   H1461     1.0  0.22491  0.79496  0.04589  1.0000
  S   S409      1.0  0.99337  0.85448  0.14062  1.0000
  H   H1462     1.0  0.28727  0.83716  0.06939  1.0000
  C   C917      1.0  0.28975  0.83000  0.07931  1.0000
  C   C918      1.0  0.28134  0.81988  0.08703  1.0000
  C   C919      1.0  0.28453  0.81067  0.09985  1.0000
  C   C920      1.0  0.29630  0.81136  0.10484  1.0000
  Fe  Fe210     1.0  0.16184  0.96613  0.15900  1.0000
  H   H1463     1.0  0.27782  0.80310  0.10602  1.0000
  H   H1464     1.0  0.29885  0.80408  0.11467  1.0000
  C   C921      1.0  0.10597  0.68772  0.16953  1.0000
  C   C922      1.0  0.22881  0.89715  0.04555  1.0000
  C   C923      1.0  0.23235  0.89189  0.03280  1.0000
  C   C924      1.0  0.21477  0.89810  0.05383  1.0000
  H   H1465     1.0  0.24315  0.89125  0.02626  1.0000
  H   H1466     1.0  0.21191  0.90217  0.06365  1.0000
  C   C925      1.0  0.28669  0.86530  0.13872  1.0000
  C   C926      1.0  0.27558  0.87769  0.13865  1.0000
  C   C927      1.0  0.27331  0.88717  0.12550  1.0000
  C   C928      1.0  0.28248  0.88451  0.11246  1.0000
  C   C929      1.0  0.29366  0.87223  0.11260  1.0000
  C   C930      1.0  0.29557  0.86251  0.12563  1.0000
  H   H1467     1.0  0.26878  0.87995  0.14876  1.0000
  H   H1468     1.0  0.26484  0.89678  0.12545  1.0000
  H   H1469     1.0  0.30084  0.87016  0.10256  1.0000
  H   H1470     1.0  0.30421  0.85304  0.12555  1.0000
  H   H1471     1.0  0.09934  0.71648  0.21624  1.0000
  C   C931      1.0  0.24291  0.82963  0.16809  1.0000
  C   C932      1.0  0.25386  0.82551  0.17584  1.0000
  C   C933      1.0  0.26463  0.81317  0.17403  1.0000
  C   C934      1.0  0.26423  0.80473  0.16477  1.0000
  C   C935      1.0  0.25290  0.80848  0.15753  1.0000
  C   C936      1.0  0.24227  0.82100  0.15912  1.0000
  H   H1472     1.0  0.25433  0.83217  0.18279  1.0000
  H   H1473     1.0  0.27339  0.81030  0.17962  1.0000
  H   H1474     1.0  0.25261  0.80206  0.15026  1.0000
  H   H1475     1.0  0.23361  0.82407  0.15335  1.0000
  C   C937      1.0  0.20440  0.93971  0.11705  1.0000
  C   C938      1.0  0.19843  0.95268  0.12180  1.0000
  H   H1476     1.0  0.21114  0.93987  0.10637  1.0000
  H   H1477     1.0  0.20045  0.96274  0.11466  1.0000
  C   C939      1.0  0.17108  0.92084  0.20552  1.0000
  C   C940      1.0  0.18261  0.92728  0.19747  1.0000
  C   C941      1.0  0.19683  0.91958  0.19758  1.0000
  C   C942      1.0  0.19956  0.90526  0.20534  1.0000
  S   S410      1.0  0.08025  0.69835  0.16059  1.0000
  C   C943      1.0  0.15888  0.95407  0.22464  1.0000
  H   H1478     1.0  0.18060  0.93828  0.19140  1.0000
  H   H1479     1.0  0.20571  0.92469  0.19159  1.0000
  C   C944      1.0  0.22199  0.88770  0.02827  1.0000
  C   C945      1.0  0.21509  0.90123  0.16902  1.0000
  C   C946      1.0  0.12446  0.74251  0.11698  1.0000
  C   C947      1.0  0.12571  0.72769  0.12279  1.0000
  C   C948      1.0  0.13622  0.71769  0.11558  1.0000
  C   C949      1.0  0.14535  0.72258  0.10257  1.0000
  C   C950      1.0  0.14329  0.73732  0.09637  1.0000
  C   C951      1.0  0.13306  0.74728  0.10365  1.0000
  H   H1480     1.0  0.11898  0.72394  0.13305  1.0000
  H   H1481     1.0  0.13767  0.70627  0.12039  1.0000
  H   H1482     1.0  0.14956  0.74117  0.08596  1.0000
  H   H1483     1.0  0.13191  0.75872  0.09901  1.0000
  H   H1484     1.0  0.25643  0.75182  0.16493  1.0000
  Fe  Fe211     1.0  0.20613  0.84573  0.22002  1.0000
  H   H1485     1.0  0.03659  0.92220  0.19763  1.0000
  H   H1486     1.0  0.23033  0.80637  0.19586  1.0000
  S   S411      1.0  0.24579  0.83074  0.00623  1.0000
  H   H1487     1.0  0.13734  0.93707  0.11499  1.0000
  S   S412      1.0  0.13656  0.77278  0.20991  1.0000
  C   C952      1.0  0.10369  0.78385  0.18609  1.0000
  H   H1488     1.0  0.07202  0.80661  0.19620  1.0000
  H   H1489     1.0  0.01161  0.81799  0.12862  1.0000
  C   C953      1.0  0.04915  0.83524  0.02161  1.0000
  C   C954      1.0  0.04422  0.82299  0.02219  1.0000
  C   C955      1.0  0.05274  0.81271  0.01416  1.0000
  C   C956      1.0  0.06635  0.81446  0.00583  1.0000
  C   C957      1.0  0.07145  0.82652  0.00552  1.0000
  C   C958      1.0  0.06276  0.83702  0.01324  1.0000
  H   H1490     1.0  0.03366  0.82166  0.02851  1.0000
  C   C959      1.0  0.17249  0.69953  0.21514  1.0000
  S   S413      1.0  0.14222  0.78847  0.98158  1.0000
  H   H1491     1.0  0.06653  0.84656  0.01270  1.0000
  C   C960      1.0  0.05422  0.79271  0.10462  1.0000
  C   C961      1.0  0.03986  0.79225  0.11128  1.0000
  C   C962      1.0  0.03657  0.78324  0.12493  1.0000
  C   C963      1.0  0.04759  0.77479  0.13194  1.0000
  C   C964      1.0  0.06191  0.77533  0.12527  1.0000
  C   C965      1.0  0.06522  0.78419  0.11160  1.0000
  H   H1492     1.0  0.03135  0.79862  0.10581  1.0000
  H   H1493     1.0  0.02554  0.78270  0.13003  1.0000
  H   H1494     1.0  0.07052  0.76895  0.13058  1.0000
  H   H1495     1.0  0.07634  0.78449  0.10650  1.0000
  C   C966      1.0  0.10022  0.91763  0.15754  1.0000
  C   C967      1.0  0.09665  0.92994  0.14699  1.0000
  C   C968      1.0  0.10124  0.94267  0.14603  1.0000
  C   C969      1.0  0.10955  0.94319  0.15546  1.0000
  C   C970      1.0  0.11327  0.93081  0.16585  1.0000
  C   C971      1.0  0.10854  0.91817  0.16693  1.0000
  H   H1496     1.0  0.09028  0.92972  0.13968  1.0000
  H   H1497     1.0  0.09829  0.95218  0.13795  1.0000
  H   H1498     1.0  0.11962  0.93103  0.17320  1.0000
  H   H1499     1.0  0.11134  0.90873  0.17515  1.0000
  C   C972      1.0  0.06170  0.88189  0.09707  1.0000
  C   C973      1.0  0.06256  0.87482  0.08611  1.0000
  C   C974      1.0  0.05034  0.87086  0.08482  1.0000
  C   C975      1.0  0.03712  0.87428  0.09425  1.0000
  C   C976      1.0  0.03620  0.88176  0.10489  1.0000
  C   C977      1.0  0.04847  0.88536  0.10644  1.0000
  H   H1500     1.0  0.07274  0.87224  0.07875  1.0000
  H   H1501     1.0  0.05110  0.86540  0.07637  1.0000
  H   H1502     1.0  0.02603  0.88453  0.11218  1.0000
  H   H1503     1.0  0.04767  0.89090  0.11487  1.0000
  C   C978      1.0  0.10729  0.74570  0.19105  1.0000
  C   C979      1.0  0.11265  0.75068  0.17638  1.0000
  C   C980      1.0  0.12630  0.75389  0.17167  1.0000
  H   H1504     1.0  0.10618  0.75254  0.16856  1.0000
  H   H1505     1.0  0.13006  0.75822  0.16033  1.0000
  C   C981      1.0  0.10320  0.83234  0.16674  1.0000
  C   C982      1.0  0.11431  0.82003  0.16711  1.0000
  N   N92       1.0  0.16094  0.73555  0.14023  1.0000
  C   C983      1.0  0.16384  0.72969  0.12714  1.0000
  C   C984      1.0  0.14994  0.72887  0.15149  1.0000
  C   C985      1.0  0.15566  0.75137  0.13660  1.0000
  H   H1506     1.0  0.15395  0.73207  0.12287  1.0000
  H   H1507     1.0  0.16785  0.71778  0.12935  1.0000
  H   H1508     1.0  0.17197  0.73461  0.11838  1.0000
  H   H1509     1.0  0.13941  0.73184  0.14815  1.0000
  C   C986      1.0  0.20438  0.89387  0.04929  1.0000
  H   H1510     1.0  0.15327  0.71688  0.15385  1.0000
  H   H1511     1.0  0.16355  0.75666  0.12780  1.0000
  H   H1512     1.0  0.15390  0.75628  0.14605  1.0000
  H   H1513     1.0  0.14531  0.75422  0.13290  1.0000
  N   N93       1.0  0.15142  0.94444  0.12347  1.0000
  C   C987      1.0  0.15065  0.93290  0.13669  1.0000
  H   H1514     1.0  0.27874  0.92749  0.09089  1.0000
  C   C988      1.0  0.16440  0.93998  0.11263  1.0000
  C   C989      1.0  0.15221  0.95787  0.12699  1.0000
  C   C990      1.0  0.15886  0.83895  0.98333  1.0000
  H   H1515     1.0  0.17401  0.84684  0.98992  1.0000
  H   H1516     1.0  0.30431  0.82387  0.21171  1.0000
  H   H1517     1.0  0.26512  0.94264  0.08533  1.0000
  N   N94       1.0  0.23717  0.78689  0.21092  1.0000
  H   H1518     1.0  0.16172  0.95628  0.13171  1.0000
  H   H1519     1.0  0.16429  0.92979  0.10980  1.0000
  H   H1520     1.0  0.07891  0.80012  0.17965  1.0000
  H   H1521     1.0  0.16534  0.94840  0.10247  1.0000
  H   H1522     1.0  0.15303  0.96677  0.11725  1.0000
  C   C991      1.0  0.30176  0.83043  0.08410  1.0000
  C   C992      1.0  0.30509  0.82102  0.09679  1.0000
  N   N95       1.0  0.15467  0.86909  0.04048  1.0000
  C   C993      1.0  0.16823  0.85932  0.04360  1.0000
  C   C994      1.0  0.14956  0.86388  0.03034  1.0000
  C   C995      1.0  0.15723  0.88382  0.03392  1.0000
  C   C996      1.0  0.14371  0.86931  0.05408  1.0000
  H   H1523     1.0  0.17664  0.85899  0.03354  1.0000
  H   H1524     1.0  0.16682  0.84805  0.04845  1.0000
  H   H1525     1.0  0.17257  0.86299  0.05106  1.0000
  H   H1526     1.0  0.13928  0.87091  0.02777  1.0000
  H   H1527     1.0  0.15757  0.86358  0.01994  1.0000
  H   H1528     1.0  0.14779  0.85267  0.03484  1.0000
  H   H1529     1.0  0.14724  0.89156  0.03144  1.0000
  H   H1530     1.0  0.16550  0.88405  0.02366  1.0000
  H   H1531     1.0  0.16133  0.88798  0.04120  1.0000
  H   H1532     1.0  0.14727  0.87316  0.06198  1.0000
  H   H1533     1.0  0.14156  0.85834  0.05933  1.0000
  H   H1534     1.0  0.13332  0.87660  0.05215  1.0000
  S   S414      1.0  0.28833  0.66133  0.12739  1.0000
  H   H1535     1.0  0.14824  0.73229  0.16184  1.0000
  H   H1536     1.0  0.02049  0.72544  0.14440  1.0000
  S   S415      1.0  0.18622  0.86830  0.00154  1.0000
  H   H1537     1.0  0.14152  0.72136  0.07230  1.0000
  S   S416      1.0  0.22065  0.86778  0.99561  1.0000
  C   C997      1.0  0.28761  0.94039  0.06323  1.0000
  N   N96       1.0  0.15085  0.84112  0.20497  1.0000
  H   H1538     1.0  0.13946  0.85585  0.18915  1.0000
  H   H1539     1.0  0.04875  0.80341  0.01436  1.0000
  H   H1540     1.0  0.16495  0.90155  0.21962  1.0000
  H   H1541     1.0  0.30422  0.92899  0.08297  1.0000
  H   H1542     1.0  0.30677  0.83673  0.17923  1.0000
  H   H1543     1.0  0.01005  0.80290  0.14366  1.0000
  C   C998      1.0  0.10118  0.68159  0.21579  1.0000
  C   C999      1.0  0.00407  0.81339  0.13832  1.0000
  Fe  Fe212     1.0  0.15473  0.76609  0.22158  1.0000
  H   H1544     1.0  0.23368  0.65596  0.20999  1.0000
  H   H1545     1.0  0.14252  0.96167  0.13501  1.0000
  C   C1000     1.0  0.00552  0.87725  0.16285  1.0000
  Fe  Fe213     1.0  0.31587  0.81605  0.12632  1.0000
  H   H1546     1.0  0.30527  0.74603  0.22597  1.0000
  N   N97       1.0  0.06311  0.83209  0.11700  1.0000
  C   C1001     1.0  0.05884  0.81813  0.12397  1.0000
  C   C1002     1.0  0.07548  0.83291  0.12234  1.0000
  C   C1003     1.0  0.05090  0.84401  0.12050  1.0000
  C   C1004     1.0  0.06716  0.83337  0.10116  1.0000
  H   H1547     1.0  0.05560  0.81682  0.13593  1.0000
  H   H1548     1.0  0.06782  0.80888  0.12158  1.0000
  H   H1549     1.0  0.04960  0.81716  0.12004  1.0000
  H   H1550     1.0  0.07901  0.84332  0.11722  1.0000
  H   H1551     1.0  0.07276  0.83220  0.13425  1.0000
  H   H1552     1.0  0.08490  0.82403  0.12002  1.0000
  H   H1553     1.0  0.05395  0.85466  0.11580  1.0000
  H   H1554     1.0  0.04724  0.84323  0.13238  1.0000
  H   H1555     1.0  0.04154  0.84415  0.11612  1.0000
  H   H1556     1.0  0.07065  0.84370  0.09557  1.0000
  H   H1557     1.0  0.05795  0.83311  0.09675  1.0000
  H   H1558     1.0  0.07611  0.82435  0.09812  1.0000
  H   H1559     1.0  0.25204  0.78645  0.22367  1.0000
  H   H1560     1.0  0.00079  0.79077  0.12932  1.0000
  H   H1561     1.0  0.17571  0.73110  0.22052  1.0000
  N   N98       1.0  0.17335  0.70936  0.22378  1.0000
  H   H1562     1.0  0.31584  0.65565  0.14234  1.0000
  H   H1563     1.0  0.27208  0.96540  0.06947  1.0000
  C   C1005     1.0  0.11103  0.66483  0.18634  1.0000
  Fe  Fe214     1.0  0.23757  0.84167  0.21967  1.0000
  C   C1006     1.0  0.19003  0.82211  0.21966  1.0000
  H   H1564     1.0  0.16280  0.85755  0.19314  1.0000
  C   C1007     1.0  0.23676  0.85201  0.03562  1.0000
  C   C1008     1.0  0.11519  0.67755  0.17791  1.0000
  H   H1565     1.0  0.15176  0.82360  0.19528  1.0000
  H   H1566     1.0  0.19989  0.83507  0.19995  1.0000
  N   N99       1.0  0.27542  0.75463  0.14845  1.0000
  C   C1009     1.0  0.26920  0.76984  0.14255  1.0000
  C   C1010     1.0  0.26370  0.74684  0.15595  1.0000
  C   C1011     1.0  0.28469  0.74780  0.13648  1.0000
  H   H1567     1.0  0.27773  0.77612  0.13708  1.0000
  H   H1568     1.0  0.26200  0.77526  0.15126  1.0000
  H   H1569     1.0  0.25702  0.74687  0.14845  1.0000
  H   H1570     1.0  0.26800  0.73535  0.16063  1.0000
  H   H1571     1.0  0.29364  0.75343  0.13060  1.0000
  H   H1572     1.0  0.27847  0.74796  0.12850  1.0000
  H   H1573     1.0  0.28955  0.73632  0.14051  1.0000
  N   N100      1.0  0.20201  0.79133  0.01837  1.0000
  C   C1012     1.0  0.20668  0.78222  0.00750  1.0000
  C   C1013     1.0  0.20605  0.80543  0.01177  1.0000
  C   C1014     1.0  0.20905  0.78413  0.03073  1.0000
  C   C1015     1.0  0.18622  0.79356  0.02350  1.0000
  H   H1574     1.0  0.21854  0.78032  0.00341  1.0000
  H   H1575     1.0  0.20150  0.78734  0.99806  1.0000
  H   H1576     1.0  0.07219  0.78166  0.21044  1.0000
  H   H1577     1.0  0.20284  0.81250  0.01974  1.0000
  H   H1578     1.0  0.21788  0.80422  0.00757  1.0000
  H   H1579     1.0  0.22052  0.80157  0.22227  1.0000
  H   H1580     1.0  0.20645  0.77335  0.03585  1.0000
  H   H1581     1.0  0.20543  0.79058  0.03927  1.0000
  H   H1582     1.0  0.22097  0.78249  0.02732  1.0000
  H   H1583     1.0  0.18229  0.80066  0.03149  1.0000
  H   H1584     1.0  0.18279  0.78320  0.02887  1.0000
  H   H1585     1.0  0.18055  0.79873  0.01443  1.0000
  N   N101      1.0  0.08408  0.80018  0.04557  1.0000
  C   C1016     1.0  0.09171  0.81197  0.03771  1.0000
  C   C1017     1.0  0.08689  0.78962  0.03636  1.0000
  C   C1018     1.0  0.06846  0.80624  0.04913  1.0000
  C   C1019     1.0  0.08924  0.79294  0.05907  1.0000
  H   H1586     1.0  0.08969  0.82024  0.04426  1.0000
  H   H1587     1.0  0.08808  0.81760  0.02744  1.0000
  H   H1588     1.0  0.10354  0.80781  0.03491  1.0000
  H   H1589     1.0  0.08118  0.78065  0.04186  1.0000
  H   H1590     1.0  0.08319  0.79476  0.02603  1.0000
  H   H1591     1.0  0.09859  0.78479  0.03348  1.0000
  H   H1592     1.0  0.06232  0.79776  0.05539  1.0000
  H   H1593     1.0  0.06418  0.81152  0.03921  1.0000
  H   H1594     1.0  0.06598  0.81454  0.05574  1.0000
  H   H1595     1.0  0.08349  0.78418  0.06541  1.0000
  H   H1596     1.0  0.08734  0.80066  0.06621  1.0000
  H   H1597     1.0  0.10097  0.78809  0.05681  1.0000
  N   N102      1.0  0.23807  0.70778  0.12965  1.0000
  C   C1020     1.0  0.24576  0.69751  0.12014  1.0000
  C   C1021     1.0  0.24752  0.71736  0.12920  1.0000
  C   C1022     1.0  0.23407  0.69974  0.14466  1.0000
  C   C1023     1.0  0.22490  0.71647  0.12462  1.0000
  H   H1598     1.0  0.23900  0.68995  0.12046  1.0000
  H   H1599     1.0  0.25592  0.69090  0.12342  1.0000
  H   H1600     1.0  0.24861  0.70319  0.10867  1.0000
  H   H1601     1.0  0.25758  0.71111  0.13290  1.0000
  H   H1602     1.0  0.25069  0.72371  0.11808  1.0000
  H   H1603     1.0  0.24207  0.72524  0.13629  1.0000
  H   H1604     1.0  0.22820  0.70716  0.15212  1.0000
  H   H1605     1.0  0.24371  0.69306  0.14889  1.0000
  H   H1606     1.0  0.22697  0.69234  0.14545  1.0000
  H   H1607     1.0  0.21874  0.72428  0.13160  1.0000
  H   H1608     1.0  0.21761  0.70952  0.12472  1.0000
  S   S417      1.0  0.17441  0.83164  0.01956  1.0000
  H   H1609     1.0  0.09066  0.84933  0.17773  1.0000
  S   S418      1.0  0.24334  0.92484  0.10338  1.0000
  H   H1610     1.0  0.29061  0.96661  0.06468  1.0000
  C   C1024     1.0  0.09930  0.83988  0.17790  1.0000
  S   S419      1.0  0.16144  0.96768  0.18145  1.0000
  Fe  Fe215     1.0  0.22653  0.91469  0.10089  1.0000
  H   H1611     1.0  0.28039  0.73304  0.04372  1.0000
  H   H1612     1.0  0.28151  0.84619  0.11113  1.0000
  H   H1613     1.0  0.27136  0.86395  0.10512  1.0000
  H   H1614     1.0  0.08624  0.71455  0.19797  1.0000
  Fe  Fe216     1.0  0.17369  0.78348  0.19812  1.0000
  C   C1025     1.0  0.17383  0.90657  0.21334  1.0000
  S   S420      1.0  0.21014  0.84001  0.99148  1.0000
  H   H1615     1.0  0.23884  0.90774  0.14929  1.0000
  H   H1616     1.0  0.10235  0.70263  0.19122  1.0000
  C   C1026     1.0  0.27142  0.85222  0.10736  1.0000
  H   H1617     1.0  0.27207  0.84953  0.09687  1.0000
  H   H1618     1.0  0.29910  0.85501  0.18085  1.0000
  C   C1027     1.0  0.20796  0.88862  0.03652  1.0000
  C   C1028     1.0  0.03057  0.71767  0.14094  1.0000
  H   H1619     1.0  0.03042  0.71606  0.13019  1.0000
  H   H1620     1.0  0.16978  0.97658  0.22449  1.0000
  H   H1621     1.0  0.06647  0.71600  0.13524  1.0000
  S   S421      1.0  0.18109  0.96901  0.14092  1.0000
  C   C1029     1.0  0.18965  0.95263  0.13557  1.0000
  C   C1030     1.0  0.20134  0.92672  0.12594  1.0000
  H   H1622     1.0  0.03381  0.74534  0.13325  1.0000
  S   S422      1.0  0.28105  0.77652  0.09726  1.0000
  C   C1031     1.0  0.13735  0.84959  0.20048  1.0000
  S   S423      1.0  0.20863  0.91054  0.11994  1.0000
  Fe  Fe217     1.0  0.24113  0.93812  0.08133  1.0000
  H   H1623     1.0  0.05256  0.72909  0.15466  1.0000
  H   H1624     1.0  0.04350  0.73603  0.11887  1.0000
  H   H1625     1.0  0.18441  0.78876  0.22253  1.0000
  H   H1626     1.0  0.24867  0.84958  0.14030  1.0000
  H   H1627     1.0  0.03617  0.87178  0.13739  1.0000
  S   S424      1.0  0.22306  0.92905  0.07956  1.0000
  N   N103      1.0  0.04342  0.72298  0.14035  1.0000
  C   C1032     1.0  0.04314  0.72491  0.15484  1.0000
  C   C1033     1.0  0.04341  0.73698  0.12993  1.0000
  H   H1628     1.0  0.07887  0.77485  0.19409  1.0000
  S   S425      1.0  0.22586  0.83116  0.21037  1.0000
  N   N104      1.0  0.25851  0.84864  0.11813  1.0000
  H   H1629     1.0  0.24471  0.86896  0.11140  1.0000
  H   H1630     1.0  0.25813  0.86371  0.13060  1.0000
  H   H1631     1.0  0.03340  0.73286  0.15871  1.0000
  H   H1632     1.0  0.05299  0.74128  0.12920  1.0000
  C   C1034     1.0  0.12128  0.81506  0.17878  1.0000
  C   C1035     1.0  0.16670  0.83955  0.99312  1.0000
  C   C1036     1.0  0.18751  0.79900  0.21754  1.0000
  H   H1633     1.0  0.24528  0.72519  0.07921  1.0000
  S   S426      1.0  0.15151  0.75689  0.17545  1.0000
  H   H1634     1.0  0.03377  0.91732  0.16901  1.0000
  C   C1037     1.0  0.26059  0.79315  0.03196  1.0000
  Fe  Fe218     1.0  0.31106  0.70870  0.15853  1.0000
  H   H1635     1.0  0.31938  0.73420  0.12052  1.0000
  H   H1636     1.0  0.05715  0.71052  0.12492  1.0000
  C   C1038     1.0  0.13479  0.75200  0.18160  1.0000
  H   H1637     1.0  0.05621  0.90063  0.19690  1.0000
  C   C1039     1.0  0.25829  0.85209  0.13195  1.0000
  H   H1638     1.0  0.24543  0.85520  0.10219  1.0000
  H   H1639     1.0  0.24929  0.83002  0.12848  1.0000
  H   H1640     1.0  0.26857  0.82629  0.12424  1.0000
  S   S427      1.0  0.19474  0.88325  0.03115  1.0000
  C   C1040     1.0  0.18705  0.93956  0.14466  1.0000
  C   C1041     1.0  0.19260  0.92665  0.13973  1.0000
  C   C1042     1.0  0.05655  0.71236  0.13577  1.0000
  H   H1641     1.0  0.04349  0.71454  0.16298  1.0000
  H   H1642     1.0  0.05705  0.70174  0.14356  1.0000
  H   H1643     1.0  0.20572  0.66650  0.11367  1.0000
  Fe  Fe219     1.0  0.13978  0.98217  0.18039  1.0000
  Fe  Fe220     1.0  0.19173  0.84447  0.00995  1.0000
  C   C1043     1.0  0.24545  0.85720  0.11282  1.0000
  C   C1044     1.0  0.25881  0.83311  0.12035  1.0000
  C   C1045     1.0  0.06173  0.90629  0.18631  1.0000
  C   C1046     1.0  0.04175  0.90963  0.17509  1.0000
  C   C1047     1.0  0.28507  0.84913  0.20857  1.0000
  H   H1644     1.0  0.17438  0.93808  0.11674  1.0000
  H   H1645     1.0  0.19023  0.91664  0.14668  1.0000
  S   S428      1.0  0.03035  0.88601  0.16137  1.0000
  N   N105      1.0  0.05136  0.91704  0.17833  1.0000
  H   H1646     1.0  0.19611  0.70155  0.22257  1.0000
  H   H1647     1.0  0.06806  0.89787  0.18011  1.0000
  H   H1648     1.0  0.06965  0.91136  0.18830  1.0000
  H   H1649     1.0  0.25112  0.65690  0.11234  1.0000
  H   H1650     1.0  0.26272  0.77066  0.13454  1.0000
  H   H1651     1.0  0.27715  0.94398  0.05967  1.0000
  H   H1652     1.0  0.27096  0.78636  0.03333  1.0000
  H   H1653     1.0  0.29317  0.75966  0.15358  1.0000
  H   H1654     1.0  0.28866  0.74270  0.16374  1.0000
  C   C1048     1.0  0.01982  0.87754  0.15550  1.0000
  C   C1049     1.0  0.28409  0.75405  0.15885  1.0000
  H   H1655     1.0  0.26793  0.84583  0.13639  1.0000
  H   H1656     1.0  0.23057  0.87425  0.17446  1.0000
  H   H1657     1.0  0.23552  0.85454  0.12055  1.0000
  H   H1658     1.0  0.25877  0.83023  0.11014  1.0000
  C   C1050     1.0  0.02548  0.87115  0.14351  1.0000
  H   H1659     1.0  0.22295  0.87942  0.14511  1.0000
  Fe  Fe221     1.0  0.20167  0.86947  0.01426  1.0000
  S   S429      1.0  0.28007  0.78529  0.06251  1.0000
  C   C1051     1.0  0.10616  0.83479  0.18967  1.0000
  H   H1660     1.0  0.21098  0.87782  0.16250  1.0000
  C   C1052     1.0  0.23569  0.88184  0.16522  1.0000
  H   H1661     1.0  0.24217  0.88679  0.16949  1.0000
  H   H1662     1.0  0.10276  0.84036  0.19853  1.0000
  C   C1053     1.0  0.25981  0.80594  0.02134  1.0000
  H   H1663     1.0  0.22481  0.88394  0.01828  1.0000
  H   H1664     1.0  0.24316  0.87527  0.15754  1.0000
  H   H1665     1.0  0.20745  0.89351  0.14850  1.0000
  H   H1666     1.0  0.23850  0.89683  0.13734  1.0000
  C   C1054     1.0  0.04272  0.92759  0.18724  1.0000
  C   C1055     1.0  0.08871  0.67227  0.17778  1.0000
  C   C1056     1.0  0.05925  0.92466  0.16466  1.0000
  H   H1667     1.0  0.25853  0.72821  0.03971  1.0000
  H   H1668     1.0  0.16036  0.93056  0.14135  1.0000
  N   N106      1.0  0.22468  0.89285  0.15837  1.0000
  Fe  Fe222     1.0  0.20562  0.86407  0.98381  1.0000
  H   H1669     1.0  0.25112  0.86297  0.04830  1.0000
  H   H1670     1.0  0.27750  0.75940  0.16784  1.0000
  C   C1057     1.0  0.23179  0.90265  0.14595  1.0000
  H   H1671     1.0  0.23496  0.85918  0.06067  1.0000
  H   H1672     1.0  0.26960  0.80903  0.01458  1.0000
  C   C1058     1.0  0.24587  0.85404  0.05531  1.0000
  C   C1059     1.0  0.08214  0.77798  0.20265  1.0000
  H   H1673     1.0  0.30699  0.68133  0.12089  1.0000
  H   H1674     1.0  0.29946  0.81658  0.19917  1.0000
  C   C1060     1.0  0.29832  0.69446  0.13694  1.0000
  H   H1675     1.0  0.25214  0.84834  0.06386  1.0000
  H   H1676     1.0  0.20674  0.90983  0.16424  1.0000
  C   C1061     1.0  0.01720  0.86416  0.13915  1.0000
  N   N107      1.0  0.24508  0.84400  0.04684  1.0000
  H   H1677     1.0  0.26626  0.83110  0.04808  1.0000
  H   H1678     1.0  0.28655  0.82054  0.21514  1.0000
  C   C1062     1.0  0.29835  0.68375  0.12993  1.0000
  C   C1063     1.0  0.18803  0.89871  0.21307  1.0000
  H   H1679     1.0  0.23740  0.82457  0.05041  1.0000
  Fe  Fe223     1.0  0.22365  0.84389  0.00455  1.0000
  C   C1064     1.0  0.09202  0.70307  0.19935  1.0000
  N   N108      1.0  0.09072  0.78926  0.19642  1.0000
  H   H1680     1.0  0.17030  0.84508  0.20757  1.0000
  S   S430      1.0  0.31912  0.79412  0.14072  1.0000
  S   S431      1.0  0.24096  0.85890  0.19954  1.0000
  C   C1065     1.0  0.16328  0.70264  0.06065  1.0000
  H   H1681     1.0  0.11155  0.67976  0.20791  1.0000
  S   S432      1.0  0.27304  0.75416  0.08207  1.0000
  N   N109      1.0  0.26248  0.72730  0.06048  1.0000
  H   H1682     1.0  0.23558  0.84471  0.02932  1.0000
  H   H1683     1.0  0.27633  0.70864  0.07060  1.0000
  H   H1684     1.0  0.22675  0.83690  0.06178  1.0000
  H   H1685     1.0  0.10345  0.67669  0.22678  1.0000
  N   N110      1.0  0.29045  0.83917  0.19846  1.0000
  C   C1066     1.0  0.30253  0.84391  0.18714  1.0000
  C   C1067     1.0  0.27872  0.83930  0.19166  1.0000
  C   C1068     1.0  0.16003  0.85106  0.20427  1.0000
  H   H1686     1.0  0.24391  0.72472  0.05471  1.0000
  C   C1069     1.0  0.11578  0.74371  0.20109  1.0000
  C   C1070     1.0  0.24913  0.79198  0.21303  1.0000
  H   H1687     1.0  0.11459  0.70406  0.20878  1.0000
  S   S433      1.0  0.14096  0.98188  0.15726  1.0000
  S   S434      1.0  0.24108  0.96220  0.07455  1.0000
  H   H1688     1.0  0.22377  0.91153  0.14098  1.0000
  H   H1689     1.0  0.28243  0.83222  0.18368  1.0000
  H   H1690     1.0  0.17140  0.71528  0.03278  1.0000
  C   C1071     1.0  0.12960  0.74679  0.19633  1.0000
  Fe  Fe224     1.0  0.29029  0.76650  0.07788  1.0000
  H   H1691     1.0  0.18146  0.75888  0.22775  1.0000
  H   H1692     1.0  0.21657  0.69861  0.18322  1.0000
  H   H1693     1.0  0.16026  0.73284  0.03392  1.0000
  H   H1694     1.0  0.08812  0.81114  0.18422  1.0000
  C   C1072     1.0  0.23370  0.79449  0.19669  1.0000
  H   H1695     1.0  0.12957  0.80534  0.17913  1.0000
  H   H1696     1.0  0.26110  0.72855  0.08237  1.0000
  Fe  Fe225     1.0  0.14101  0.65891  0.19991  1.0000
  C   C1073     1.0  0.17433  0.73229  0.14564  1.0000
  H   H1697     1.0  0.17423  0.72554  0.04401  1.0000
  C   C1074     1.0  0.16580  0.72271  0.04029  1.0000
  H   H1698     1.0  0.19110  0.67081  0.16678  1.0000
  C   C1075     1.0  0.27583  0.93951  0.08824  1.0000
  C   C1076     1.0  0.08203  0.80233  0.18881  1.0000
  H   H1699     1.0  0.14921  0.70518  0.03983  1.0000
  H   H1700     1.0  0.06687  0.93013  0.16665  1.0000
  H   H1701     1.0  0.12543  0.67959  0.17790  1.0000
  H   H1702     1.0  0.17851  0.72044  0.14860  1.0000
  H   H1703     1.0  0.27534  0.70845  0.05262  1.0000
  H   H1704     1.0  0.20380  0.77148  0.01214  1.0000
  H   H1705     1.0  0.18497  0.72249  0.20562  1.0000
  H   H1706     1.0  0.03568  0.90360  0.18509  1.0000
  C   C1077     1.0  0.28736  0.69730  0.14888  1.0000
  H   H1707     1.0  0.11170  0.73986  0.21247  1.0000
  C   C1078     1.0  0.11704  0.82227  0.19020  1.0000
  H   H1708     1.0  0.11736  0.81418  0.15848  1.0000
  N   N111      1.0  0.28668  0.94563  0.07630  1.0000
  C   C1079     1.0  0.25103  0.97586  0.10581  1.0000
  S   S435      1.0  0.31886  0.70275  0.17919  1.0000
  C   C1080     1.0  0.23793  0.83243  0.05649  1.0000
  C   C1081     1.0  0.09506  0.79280  0.20814  1.0000
  H   H1709     1.0  0.18287  0.73712  0.13737  1.0000
  H   H1710     1.0  0.13841  0.72288  0.04100  1.0000
  H   H1711     1.0  0.30679  0.70046  0.13313  1.0000
  Fe  Fe226     1.0  0.12822  0.81049  0.98180  1.0000
  C   C1082     1.0  0.09788  0.66214  0.18612  1.0000
  H   H1712     1.0  0.20941  0.89419  0.17847  1.0000
  H   H1713     1.0  0.26760  0.69214  0.16262  1.0000
  H   H1714     1.0  0.00515  0.89851  0.10115  1.0000
  S   S436      1.0  0.23545  0.67129  0.17956  1.0000
  C   C1083     1.0  0.21109  0.69266  0.17939  1.0000
  C   C1084     1.0  0.14439  0.71289  0.04717  1.0000
  N   N112      1.0  0.15553  0.71612  0.05261  1.0000
  Fe  Fe227     1.0  0.15409  0.76897  0.19057  1.0000
  H   H1715     1.0  0.17168  0.70476  0.06497  1.0000
  H   H1716     1.0  0.13134  0.85733  0.20757  1.0000
  H   H1717     1.0  0.10088  0.78042  0.17745  1.0000
  H   H1718     1.0  0.11014  0.79219  0.18068  1.0000
  C   C1085     1.0  0.16021  0.97915  0.21957  1.0000
  H   H1719     1.0  0.22121  0.90656  0.17332  1.0000
  C   C1086     1.0  0.19676  0.67703  0.17003  1.0000
  C   C1087     1.0  0.23118  0.68505  0.09242  1.0000
  C   C1088     1.0  0.21766  0.68155  0.09823  1.0000
  C   C1089     1.0  0.19702  0.69865  0.17723  1.0000
  C   C1090     1.0  0.21800  0.67893  0.17669  1.0000
  H   H1720     1.0  0.19154  0.70912  0.17961  1.0000
  S   S437      1.0  0.15768  0.79162  0.18382  1.0000
  H   H1721     1.0  0.13624  0.74513  0.20403  1.0000
  H   H1722     1.0  0.32149  0.79176  0.09269  1.0000
  H   H1723     1.0  0.24386  0.82622  0.06518  1.0000
  C   C1091     1.0  0.28745  0.67589  0.13491  1.0000
  H   H1724     1.0  0.13639  0.70806  0.05623  1.0000
  H   H1725     1.0  0.14188  0.73620  0.05700  1.0000
  S   S438      1.0  0.12433  0.81505  0.20572  1.0000
  H   H1726     1.0  0.19005  0.88770  0.21914  1.0000
  H   H1727     1.0  0.14982  0.92266  0.13448  1.0000
  H   H1728     1.0  0.15589  0.69751  0.07017  1.0000
  C   C1092     1.0  0.24326  0.67603  0.09737  1.0000
  H   H1729     1.0  0.25376  0.67861  0.09283  1.0000
  C   C1093     1.0  0.21097  0.67131  0.17165  1.0000
  H   H1730     1.0  0.15678  0.72964  0.06594  1.0000
  S   S439      1.0  0.14130  0.68036  0.20371  1.0000
  C   C1094     1.0  0.14861  0.72629  0.06236  1.0000
  S   S440      1.0  0.17131  0.69629  0.17352  1.0000
  H   H1731     1.0  0.21625  0.66078  0.16945  1.0000
  H   H1732     1.0  0.17247  0.73669  0.15548  1.0000
  S   S441      1.0  0.21744  0.89568  0.20511  1.0000
  C   C1095     1.0  0.25271  0.73085  0.05036  1.0000
  H   H1733     1.0  0.23270  0.76702  0.20984  1.0000
  S   S442      1.0  0.24816  0.66305  0.14207  1.0000
  C   C1096     1.0  0.21620  0.66912  0.10913  1.0000
  C   C1097     1.0  0.18976  0.69063  0.17291  1.0000
  C   C1098     1.0  0.15850  0.83108  0.19519  1.0000
  H   H1734     1.0  0.24918  0.74289  0.07286  1.0000
  H   H1735     1.0  0.28114  0.86037  0.20289  1.0000
  C   C1099     1.0  0.26901  0.71169  0.06289  1.0000
  Fe  Fe228     1.0  0.16286  0.67754  0.18868  1.0000
  H   H1736     1.0  0.26068  0.70506  0.06746  1.0000
  C   C1100     1.0  0.25417  0.73114  0.07436  1.0000
  C   C1101     1.0  0.22822  0.66034  0.11439  1.0000
  C   C1102     1.0  0.24176  0.66377  0.10846  1.0000
  Fe  Fe229     1.0  0.14145  0.79484  0.20420  1.0000
  H   H1737     1.0  0.30851  0.83801  0.07796  1.0000
  H   H1738     1.0  0.24737  0.95595  0.10348  1.0000
  C   C1103     1.0  0.00308  0.86358  0.14663  1.0000
  H   H1739     1.0  0.99865  0.89181  0.12778  1.0000
  H   H1740     1.0  0.24755  0.74258  0.04844  1.0000
  H   H1741     1.0  0.11087  0.77449  0.19162  1.0000
  H   H1742     1.0  0.30488  0.74684  0.10185  1.0000
  H   H1743     1.0  0.20346  0.81717  0.18515  1.0000
  H   H1744     1.0  0.26557  0.84592  0.03265  1.0000
  S   S443      1.0  0.19493  0.79008  0.19197  1.0000
  H   H1745     1.0  0.29039  0.92836  0.06527  1.0000
  C   C1104     1.0  0.27403  0.73555  0.05429  1.0000
  S   S444      1.0  0.28818  0.70904  0.15904  1.0000
  H   H1746     1.0  0.28163  0.73312  0.06163  1.0000
  H   H1747     1.0  0.26957  0.74738  0.05237  1.0000
  H   H1748     1.0  0.06578  0.91703  0.15763  1.0000
  H   H1749     1.0  0.08556  0.79700  0.21612  1.0000
  C   C1105     1.0  0.14930  0.82957  0.98737  1.0000
  H   H1750     1.0  0.30931  0.94531  0.07170  1.0000
  H   H1751     1.0  0.00100  0.82093  0.14587  1.0000
  C   C1106     1.0  0.09260  0.68519  0.16969  1.0000
  C   C1107     1.0  0.27609  0.68998  0.15336  1.0000
  H   H1752     1.0  0.32300  0.77532  0.08721  1.0000
  C   C1108     1.0  0.10424  0.70480  0.21690  1.0000
  H   H1753     1.0  0.26776  0.67327  0.15044  1.0000
  H   H1754     1.0  0.00098  0.88223  0.17211  1.0000
  S   S445      1.0  0.17504  0.66614  0.20611  1.0000
  S   S446      1.0  0.17188  0.76048  0.20258  1.0000
  C   C1109     1.0  0.29543  0.82439  0.20646  1.0000
  Fe  Fe230     1.0  0.21987  0.87158  0.20977  1.0000
  C   C1110     1.0  0.30080  0.94099  0.08049  1.0000
  H   H1755     1.0  0.08191  0.82797  0.99901  1.0000
  H   H1756     1.0  0.24214  0.86045  0.02778  1.0000
  C   C1111     1.0  0.24148  0.77119  0.21146  1.0000
  S   S447      1.0  0.07664  0.80144  0.99584  1.0000
  H   H1757     1.0  0.15750  0.82636  0.22369  1.0000
  Fe  Fe231     1.0  0.15335  0.66715  0.22087  1.0000
  H   H1758     1.0  0.14164  0.83991  0.22764  1.0000
  H   H1759     1.0  0.16422  0.97916  0.20785  1.0000
  C   C1112     1.0  0.24417  0.97297  0.08486  1.0000
  Fe  Fe232     1.0  0.24577  0.65496  0.16583  1.0000
  H   H1760     1.0  0.27463  0.94336  0.09826  1.0000
  C   C1113     1.0  0.19662  0.82493  0.20497  1.0000
  H   H1761     1.0  0.30420  0.67012  0.16115  1.0000
  H   H1762     1.0  0.12848  0.95050  0.12556  1.0000
  H   H1763     1.0  0.27451  0.85035  0.18575  1.0000
  H   H1764     1.0  0.27592  0.84589  0.21724  1.0000
  C   C1114     1.0  0.17503  0.72349  0.21425  1.0000
  C   C1115     1.0  0.27620  0.67922  0.14646  1.0000
  H   H1765     1.0  0.16150  0.83694  0.18383  1.0000
  C   C1116     1.0  0.14751  0.83274  0.21994  1.0000
  H   H1766     1.0  0.13862  0.95564  0.10760  1.0000
  C   C1117     1.0  0.99715  0.87030  0.15842  1.0000
  H   H1767     1.0  0.14107  0.93600  0.14517  1.0000
  H   H1768     1.0  0.31125  0.78795  0.06679  1.0000
  H   H1769     1.0  0.03480  0.93588  0.18152  1.0000
  H   H1770     1.0  0.04969  0.93333  0.18989  1.0000
  H   H1771     1.0  0.16854  0.82426  0.19851  1.0000
  H   H1772     1.0  0.00334  0.80580  0.11436  1.0000
  H   H1773     1.0  0.10170  0.78319  0.21407  1.0000
  H   H1774     1.0  0.18244  0.69762  0.20670  1.0000
  C   C1118     1.0  0.13842  0.94701  0.11760  1.0000
  H   H1775     1.0  0.25375  0.97122  0.11630  1.0000
  H   H1776     1.0  0.04795  0.90163  0.16834  1.0000
  H   H1777     1.0  0.05181  0.93294  0.15836  1.0000
  H   H1778     1.0  0.20063  0.81131  0.00262  1.0000
  H   H1779     1.0  0.24311  0.79251  0.18771  1.0000
  C   C1119     1.0  0.28241  0.96157  0.07326  1.0000
  C   C1120     1.0  0.19861  0.81482  0.19657  1.0000
  H   H1780     1.0  0.25116  0.76857  0.20290  1.0000
  H   H1781     1.0  0.10163  0.80120  0.20382  1.0000
  H   H1782     1.0  0.28082  0.96593  0.08308  1.0000
  C   C1121     1.0  0.18551  0.80912  0.22596  1.0000
  H   H1783     1.0  0.30843  0.80425  0.07288  1.0000
  H   H1784     1.0  0.13007  0.84248  0.20102  1.0000
  C   C1122     1.0  0.32338  0.74779  0.08427  1.0000
  H   H1785     1.0  0.17107  0.68884  0.22209  1.0000
  H   H1786     1.0  0.21526  0.78581  0.22135  1.0000
  H   H1787     1.0  0.08841  0.76799  0.20850  1.0000
  C   C1123     1.0  0.31650  0.74428  0.09880  1.0000
  H   H1788     1.0  0.26955  0.83551  0.19983  1.0000
  H   H1789     1.0  0.30042  0.94484  0.09030  1.0000
  H   H1790     1.0  0.25893  0.79006  0.20440  1.0000
  H   H1791     1.0  0.14074  0.82499  0.22082  1.0000
  H   H1792     1.0  0.15466  0.85866  0.21165  1.0000
  H   H1793     1.0  0.08549  0.69697  0.19654  1.0000
  C   C1124     1.0  0.31617  0.79721  0.06584  1.0000
  H   H1794     1.0  0.24622  0.80376  0.21281  1.0000
  S   S448      1.0  0.32066  0.82072  0.10219  1.0000
  S   S449      1.0  0.15772  0.78860  0.21806  1.0000
  S   S450      1.0  0.31867  0.72941  0.15058  1.0000
  H   H1795     1.0  0.16277  0.95366  0.21299  1.0000
  H   H1796     1.0  0.29589  0.94455  0.05403  1.0000
  H   H1797     1.0  0.31162  0.84391  0.19184  1.0000
  H   H1798     1.0  0.29361  0.84930  0.21394  1.0000
  N   N113      1.0  0.09452  0.69714  0.21418  1.0000
  S   S451      1.0  0.11256  0.77639  0.99021  1.0000
  H   H1799     1.0  0.16327  0.70392  0.20958  1.0000
  C   C1125     1.0  0.13812  0.97280  0.21989  1.0000
  N   N114      1.0  0.15081  0.96868  0.22657  1.0000
  C   C1126     1.0  0.99564  0.80179  0.12427  1.0000
  H   H1800     1.0  0.16574  0.72859  0.20886  1.0000
  H   H1801     1.0  0.99681  0.87560  0.11368  1.0000
  H   H1802     1.0  0.14137  0.97310  0.20811  1.0000
  H   H1803     1.0  0.32329  0.76596  0.23001  1.0000
  H   H1804     1.0  0.20661  0.74688  0.22930  1.0000
  H   H1805     1.0  0.09420  0.67541  0.21380  1.0000
  C   C1127     1.0  0.22436  0.78981  0.22249  1.0000
  C   C1128     1.0  0.30252  0.65987  0.16895  1.0000
  H   H1806     1.0  0.29183  0.65829  0.16875  1.0000
  H   H1807     1.0  0.07307  0.69351  0.22284  1.0000
  H   H1808     1.0  0.13173  0.98376  0.22113  1.0000
  H   H1809     1.0  0.07538  0.71076  0.22373  1.0000
  C   C1129     1.0  0.08066  0.69911  0.22467  1.0000
  H   H1810     1.0  0.31710  0.80341  0.05447  1.0000
  H   H1811     1.0  0.22474  0.79087  0.19473  1.0000
  H   H1812     1.0  0.16847  0.95050  0.22963  1.0000
  S   S452      1.0  0.12154  0.65252  0.19798  1.0000
  H   H1813     1.0  0.10685  0.70024  0.22779  1.0000
  H   H1814     1.0  0.20612  0.98259  0.12136  1.0000
  C   C1130     1.0  0.99372  0.90426  0.10139  1.0000
  S   S453      1.0  0.18761  0.83484  0.23002  1.0000
  H   H1815     1.0  0.24408  0.76510  0.22210  1.0000
  S   S454      1.0  0.25615  0.82729  0.22930  1.0000
  N   N115      1.0  0.99124  0.81166  0.13441  1.0000
  H   H1816     1.0  0.99282  0.91558  0.10209  1.0000
  H   H1817     1.0  0.09468  0.65228  0.19261  1.0000
  H   H1818     1.0  0.15206  0.94589  0.22953  1.0000
  C   C1131     1.0  0.18586  0.70312  0.23073  1.0000
  H   H1819     1.0  0.15039  0.71613  0.23012  1.0000
  H   H1820     1.0  0.99145  0.90447  0.09082  1.0000
  C   C1132     1.0  0.27270  0.67302  0.30978  1.0000
  H   H1821     1.0  0.21032  0.67084  0.36156  1.0000
  H   H1822     1.0  0.29089  0.68550  0.31555  1.0000
  H   H1823     1.0  0.22538  0.75149  0.29206  1.0000
  S   S455      1.0  0.23857  0.65356  0.36069  1.0000
  H   H1824     1.0  0.26229  0.66824  0.39513  1.0000
  C   C1133     1.0  0.26387  0.80120  0.24715  1.0000
  C   C1134     1.0  0.20876  0.72735  0.28750  1.0000
  H   H1825     1.0  0.26475  0.68653  0.37214  1.0000
  C   C1135     1.0  0.27658  0.68386  0.37146  1.0000
  H   H1826     1.0  0.27594  0.68710  0.40528  1.0000
  H   H1827     1.0  0.32187  0.75146  0.35630  1.0000
  H   H1828     1.0  0.28497  0.71696  0.45398  1.0000
  C   C1136     1.0  0.26539  0.68087  0.33246  1.0000
  Fe  Fe233     1.0  0.21476  0.67997  0.29059  1.0000
  H   H1829     1.0  0.27880  0.65702  0.38794  1.0000
  S   S456      1.0  0.20212  0.68229  0.31257  1.0000
  Fe  Fe234     1.0  0.22156  0.69839  0.26079  1.0000
  S   S457      1.0  0.23568  0.67963  0.25139  1.0000
  S   S458      1.0  0.21871  0.72120  0.24779  1.0000
  Fe  Fe235     1.0  0.21851  0.66757  0.26455  1.0000
  H   H1830     1.0  0.31584  0.73663  0.26173  1.0000
  Fe  Fe236     1.0  0.24420  0.67328  0.27166  1.0000
  S   S459      1.0  0.26768  0.66424  0.27131  1.0000
  S   S460      1.0  0.20358  0.68693  0.27209  1.0000
  S   S461      1.0  0.23153  0.69300  0.28007  1.0000
  C   C1137     1.0  0.29471  0.70357  0.47827  1.0000
  C   C1138     1.0  0.16002  0.71131  0.23500  1.0000
  H   H1831     1.0  0.31952  0.77420  0.33730  1.0000
  N   N116      1.0  0.26882  0.68564  0.31654  1.0000
  H   H1832     1.0  0.31678  0.68811  0.46182  1.0000
  H   H1833     1.0  0.20842  0.72292  0.27832  1.0000
  H   H1834     1.0  0.31101  0.72312  0.47203  1.0000
  Fe  Fe237     1.0  0.28746  0.72828  0.28070  1.0000
  S   S462      1.0  0.26396  0.73076  0.29072  1.0000
  S   S463      1.0  0.30149  0.71117  0.26895  1.0000
  Fe  Fe238     1.0  0.29044  0.75327  0.29112  1.0000
  S   S464      1.0  0.26713  0.75832  0.30207  1.0000
  S   S465      1.0  0.30693  0.76578  0.28960  1.0000
  Fe  Fe239     1.0  0.27019  0.73425  0.30970  1.0000
  S   S466      1.0  0.26095  0.72342  0.33220  1.0000
  Fe  Fe240     1.0  0.26287  0.75458  0.28213  1.0000
  S   S467      1.0  0.24492  0.76786  0.27081  1.0000
  S   S468      1.0  0.29380  0.72957  0.30045  1.0000
  S   S469      1.0  0.28588  0.75169  0.27053  1.0000
  H   H1835     1.0  0.29439  0.75154  0.33706  1.0000
  S   S470      1.0  0.22826  0.65954  0.28413  1.0000
  H   H1836     1.0  0.31513  0.75578  0.25565  1.0000
  S   S471      1.0  0.29293  0.72549  0.37928  1.0000
  H   H1837     1.0  0.25297  0.70544  0.31652  1.0000
  H   H1838     1.0  0.30076  0.69228  0.45490  1.0000
  H   H1839     1.0  0.28931  0.72992  0.46116  1.0000
  H   H1840     1.0  0.30547  0.75430  0.31927  1.0000
  S   S472      1.0  0.30413  0.65798  0.33234  1.0000
  H   H1841     1.0  0.31643  0.73622  0.35435  1.0000
  C   C1139     1.0  0.21841  0.74344  0.29528  1.0000
  H   H1842     1.0  0.31629  0.68104  0.33321  1.0000
  S   S473      1.0  0.15457  0.75028  0.24278  1.0000
  C   C1140     1.0  0.27026  0.72376  0.34501  1.0000
  C   C1141     1.0  0.28530  0.71957  0.34274  1.0000
  C   C1142     1.0  0.29243  0.71961  0.35338  1.0000
  C   C1143     1.0  0.28456  0.72437  0.36601  1.0000
  C   C1144     1.0  0.26957  0.72848  0.36823  1.0000
  C   C1145     1.0  0.26243  0.72792  0.35790  1.0000
  H   H1843     1.0  0.29139  0.71603  0.33293  1.0000
  H   H1844     1.0  0.30398  0.71617  0.35169  1.0000
  H   H1845     1.0  0.26341  0.73210  0.37800  1.0000
  H   H1846     1.0  0.25081  0.73107  0.35975  1.0000
  C   C1146     1.0  0.28110  0.69292  0.31218  1.0000
  C   C1147     1.0  0.31219  0.77002  0.33334  1.0000
  C   C1148     1.0  0.23685  0.79435  0.25358  1.0000
  C   C1149     1.0  0.24801  0.78454  0.25962  1.0000
  C   C1150     1.0  0.26150  0.78806  0.25643  1.0000
  H   H1847     1.0  0.31870  0.65592  0.43919  1.0000
  C   C1151     1.0  0.22880  0.66143  0.34702  1.0000
  H   H1848     1.0  0.22630  0.79185  0.25624  1.0000
  H   H1849     1.0  0.27011  0.78072  0.26119  1.0000
  H   H1850     1.0  0.31320  0.77476  0.32153  1.0000
  C   C1152     1.0  0.27724  0.67762  0.26926  1.0000
  C   C1153     1.0  0.27023  0.69214  0.26813  1.0000
  C   C1154     1.0  0.27763  0.70252  0.26805  1.0000
  C   C1155     1.0  0.29220  0.69844  0.26862  1.0000
  C   C1156     1.0  0.29938  0.68402  0.26918  1.0000
  C   C1157     1.0  0.29187  0.67359  0.26964  1.0000
  H   H1851     1.0  0.25916  0.69544  0.26720  1.0000
  H   H1852     1.0  0.27215  0.71371  0.26720  1.0000
  H   H1853     1.0  0.31065  0.68085  0.26963  1.0000
  H   H1854     1.0  0.29735  0.66238  0.27052  1.0000
  H   H1855     1.0  0.24019  0.73875  0.27267  1.0000
  C   C1158     1.0  0.18424  0.66650  0.26069  1.0000
  C   C1159     1.0  0.17035  0.67105  0.25782  1.0000
  H   H1856     1.0  0.19749  0.73231  0.29211  1.0000
  C   C1160     1.0  0.19785  0.74256  0.23695  1.0000
  C   C1161     1.0  0.30932  0.69701  0.45610  1.0000
  H   H1857     1.0  0.18690  0.67089  0.26832  1.0000
  H   H1858     1.0  0.21232  0.74636  0.26202  1.0000
  S   S474      1.0  0.15047  0.67295  0.24217  1.0000
  C   C1162     1.0  0.23468  0.65983  0.33275  1.0000
  H   H1859     1.0  0.29994  0.73853  0.24485  1.0000
  C   C1163     1.0  0.20675  0.67597  0.33989  1.0000
  H   H1860     1.0  0.28389  0.69678  0.30024  1.0000
  H   H1861     1.0  0.30873  0.73721  0.33143  1.0000
  C   C1164     1.0  0.23918  0.80757  0.24439  1.0000
  H   H1862     1.0  0.27871  0.70239  0.31719  1.0000
  C   C1165     1.0  0.30563  0.74905  0.33077  1.0000
  Fe  Fe241     1.0  0.31599  0.71431  0.37915  1.0000
  H   H1863     1.0  0.23120  0.66523  0.31102  1.0000
  H   H1864     1.0  0.30095  0.77416  0.33878  1.0000
  H   H1865     1.0  0.26179  0.69375  0.39530  1.0000
  N   N117      1.0  0.28005  0.67899  0.38598  1.0000
  N   N118      1.0  0.30329  0.70892  0.46394  1.0000
  H   H1866     1.0  0.19592  0.68211  0.34271  1.0000
  C   C1166     1.0  0.17223  0.74340  0.24542  1.0000
  C   C1167     1.0  0.17511  0.73140  0.25649  1.0000
  C   C1168     1.0  0.18936  0.72482  0.25761  1.0000
  C   C1169     1.0  0.20077  0.73008  0.24752  1.0000
  H   H1867     1.0  0.27433  0.80385  0.24480  1.0000
  H   H1868     1.0  0.25825  0.69938  0.29973  1.0000
  H   H1869     1.0  0.16633  0.72702  0.26404  1.0000
  H   H1870     1.0  0.19144  0.71567  0.26624  1.0000
  H   H1871     1.0  0.18060  0.80682  0.23736  1.0000
  C   C1170     1.0  0.21489  0.66958  0.35053  1.0000
  C   C1171     1.0  0.27418  0.66602  0.39379  1.0000
  S   S475      1.0  0.21768  0.85520  0.23086  1.0000
  H   H1872     1.0  0.13885  0.96095  0.24773  1.0000
  C   C1172     1.0  0.27367  0.69057  0.39420  1.0000
  H   H1873     1.0  0.26375  0.66720  0.31276  1.0000
  N   N119      1.0  0.32072  0.74400  0.23860  1.0000
  H   H1874     1.0  0.27666  0.66199  0.40479  1.0000
  H   H1875     1.0  0.13988  0.97962  0.24397  1.0000
  H   H1876     1.0  0.27472  0.67323  0.33651  1.0000
  H   H1877     1.0  0.32167  0.71879  0.45521  1.0000
  H   H1878     1.0  0.30064  0.68502  0.37863  1.0000
  H   H1879     1.0  0.25621  0.67525  0.33614  1.0000
  C   C1173     1.0  0.18360  0.74926  0.23595  1.0000
  C   C1174     1.0  0.31416  0.65934  0.34402  1.0000
  C   C1175     1.0  0.29584  0.67547  0.38446  1.0000
  C   C1176     1.0  0.25274  0.81100  0.24110  1.0000
  C   C1177     1.0  0.29401  0.72072  0.45558  1.0000
  H   H1880     1.0  0.22267  0.73457  0.30380  1.0000
  N   N120      1.0  0.21814  0.73796  0.28274  1.0000
  H   H1881     1.0  0.31956  0.66768  0.42172  1.0000
  C   C1178     1.0  0.21258  0.67438  0.32565  1.0000
  H   H1882     1.0  0.16256  0.67924  0.26293  1.0000
  H   H1883     1.0  0.21259  0.71805  0.29592  1.0000
  H   H1884     1.0  0.21930  0.75838  0.26798  1.0000
  H   H1885     1.0  0.28142  0.67537  0.36495  1.0000
  H   H1886     1.0  0.24665  0.69051  0.31498  1.0000
  H   H1887     1.0  0.27811  0.70041  0.38880  1.0000
  H   H1888     1.0  0.23753  0.72177  0.28446  1.0000
  C   C1179     1.0  0.32088  0.74498  0.25333  1.0000
  H   H1889     1.0  0.18496  0.69243  0.23799  1.0000
  H   H1890     1.0  0.20746  0.74884  0.30026  1.0000
  H   H1891     1.0  0.26240  0.69020  0.33785  1.0000
  H   H1892     1.0  0.23042  0.81517  0.24003  1.0000
  C   C1180     1.0  0.22663  0.66645  0.32201  1.0000
  C   C1181     1.0  0.21252  0.75012  0.27170  1.0000
  H   H1893     1.0  0.23310  0.72672  0.26697  1.0000
  C   C1182     1.0  0.16676  0.66540  0.24793  1.0000
  C   C1183     1.0  0.31423  0.74820  0.35187  1.0000
  H   H1894     1.0  0.27527  0.67631  0.29782  1.0000
  H   H1895     1.0  0.30022  0.72494  0.44467  1.0000
  H   H1896     1.0  0.28241  0.66530  0.31302  1.0000
  H   H1897     1.0  0.20134  0.75560  0.27597  1.0000
  H   H1898     1.0  0.16032  0.71861  0.24179  1.0000
  H   H1899     1.0  0.30098  0.66680  0.37827  1.0000
  C   C1184     1.0  0.23290  0.73097  0.27646  1.0000
  C   C1185     1.0  0.25610  0.69571  0.31170  1.0000
  H   H1900     1.0  0.30314  0.75190  0.35797  1.0000
  N   N121      1.0  0.31568  0.75407  0.33616  1.0000
  C   C1186     1.0  0.30570  0.74669  0.23699  1.0000
  H   H1901     1.0  0.28573  0.69926  0.47731  1.0000
  H   H1902     1.0  0.32299  0.72094  0.24424  1.0000
  H   H1903     1.0  0.31899  0.73667  0.30353  1.0000
  H   H1904     1.0  0.29965  0.75759  0.23876  1.0000
  H   H1905     1.0  0.29890  0.67163  0.39521  1.0000
  S   S476      1.0  0.29128  0.65987  0.46051  1.0000
  H   H1906     1.0  0.28077  0.69369  0.36532  1.0000
  H   H1907     1.0  0.15529  0.96566  0.24756  1.0000
  C   C1187     1.0  0.31883  0.67211  0.34199  1.0000
  H   H1908     1.0  0.08216  0.69471  0.23598  1.0000
  C   C1188     1.0  0.31513  0.71437  0.46582  1.0000
  C   C1189     1.0  0.14599  0.96873  0.24216  1.0000
  C   C1190     1.0  0.17671  0.65443  0.24180  1.0000
  C   C1191     1.0  0.19453  0.65631  0.25369  1.0000
  S   S477      1.0  0.32072  0.69365  0.39507  1.0000
  H   H1909     1.0  0.15831  0.70083  0.24231  1.0000
  H   H1910     1.0  0.32255  0.70564  0.47180  1.0000
  H   H1911     1.0  0.31553  0.70077  0.44509  1.0000
  H   H1912     1.0  0.18682  0.71025  0.23736  1.0000
  H   H1913     1.0  0.22665  0.78444  0.23338  1.0000
  H   H1914     1.0  0.24533  0.65340  0.33002  1.0000
  H   H1915     1.0  0.21891  0.67664  0.67830  1.0000
  N   N122      1.0  0.23578  0.73647  0.64631  1.0000
  Fe  Fe242     1.0  0.15431  0.75129  0.65716  1.0000
  S   S478      1.0  0.15760  0.76904  0.63750  1.0000
  S   S479      1.0  0.14037  0.73605  0.65896  1.0000
  Fe  Fe243     1.0  0.17351  0.75889  0.67219  1.0000
  S   S480      1.0  0.17818  0.77738  0.65399  1.0000
  S   S481      1.0  0.18399  0.75129  0.69146  1.0000
  Fe  Fe244     1.0  0.15467  0.78243  0.65379  1.0000
  S   S482      1.0  0.14225  0.80533  0.65330  1.0000
  Fe  Fe245     1.0  0.18069  0.76223  0.63966  1.0000
  S   S483      1.0  0.20106  0.75933  0.62280  1.0000
  S   S484      1.0  0.14969  0.76520  0.67334  1.0000
  S   S485      1.0  0.17760  0.74334  0.65787  1.0000
  Fe  Fe246     1.0  0.06101  0.82647  0.67761  1.0000
  S   S486      1.0  0.04693  0.84856  0.67688  1.0000
  S   S487      1.0  0.07477  0.81765  0.65824  1.0000
  Fe  Fe247     1.0  0.05436  0.84818  0.69684  1.0000
  S   S488      1.0  0.06187  0.86827  0.69656  1.0000
  S   S489      1.0  0.06973  0.82678  0.69631  1.0000
  S   S490      1.0  0.04322  0.81535  0.69097  1.0000
  Fe  Fe248     1.0  0.25115  0.68130  0.58104  1.0000
  S   S491      1.0  0.24718  0.70405  0.56822  1.0000
  S   S492      1.0  0.26812  0.67255  0.59426  1.0000
  Fe  Fe249     1.0  0.22982  0.67237  0.56979  1.0000
  S   S493      1.0  0.22424  0.69423  0.55577  1.0000
  S   S494      1.0  0.13269  0.66931  0.70862  1.0000
  Fe  Fe250     1.0  0.24784  0.69367  0.55031  1.0000
  S   S495      1.0  0.26122  0.70028  0.52833  1.0000
  Fe  Fe251     1.0  0.22390  0.70266  0.57496  1.0000
  S   S496      1.0  0.20423  0.71969  0.58059  1.0000
  S   S497      1.0  0.25360  0.67101  0.56255  1.0000
  S   S498      1.0  0.22781  0.68084  0.58947  1.0000
  H   H1916     1.0  0.02739  0.86321  0.63776  1.0000
  H   H1917     1.0  0.25230  0.74489  0.72256  1.0000
  S   S499      1.0  0.31065  0.80352  0.65335  1.0000
  C   C1192     1.0  0.17285  0.70243  0.60896  1.0000
  C   C1193     1.0  0.31858  0.77241  0.68119  1.0000
  Fe  Fe252     1.0  0.13298  0.89884  0.71135  1.0000
  H   H1918     1.0  0.02451  0.85674  0.65702  1.0000
  S   S500      1.0  0.14734  0.89089  0.69173  1.0000
  C   C1194     1.0  0.27959  0.76237  0.65902  1.0000
  C   C1195     1.0  0.22027  0.67243  0.65762  1.0000
  H   H1919     1.0  0.19053  0.76504  0.71504  1.0000
  S   S501      1.0  0.23269  0.70947  0.70031  1.0000
  C   C1196     1.0  0.19953  0.78714  0.71788  1.0000
  Fe  Fe253     1.0  0.27370  0.74198  0.60282  1.0000
  S   S502      1.0  0.25421  0.74977  0.59313  1.0000
  S   S503      1.0  0.27713  0.72141  0.61928  1.0000
  Fe  Fe254     1.0  0.28620  0.76808  0.58618  1.0000
  S   S504      1.0  0.26762  0.77848  0.57520  1.0000
  C   C1197     1.0  0.31282  0.80702  0.59853  1.0000
  Fe  Fe255     1.0  0.25428  0.77112  0.59704  1.0000
  S   S505      1.0  0.23338  0.78313  0.60776  1.0000
  N   N123      1.0  0.18458  0.78687  0.71804  1.0000
  H   H1920     1.0  0.23555  0.75937  0.52628  1.0000
  S   S506      1.0  0.27265  0.76287  0.60839  1.0000
  H   H1921     1.0  0.11190  0.73034  0.66993  1.0000
  Fe  Fe256     1.0  0.20895  0.82423  0.69096  1.0000
  S   S507      1.0  0.22751  0.80997  0.70053  1.0000
  S   S508      1.0  0.18766  0.82932  0.70613  1.0000
  Fe  Fe257     1.0  0.22631  0.82590  0.66036  1.0000
  S   S509      1.0  0.24632  0.81203  0.66718  1.0000
  S   S510      1.0  0.22810  0.83432  0.63662  1.0000
  Fe  Fe258     1.0  0.23163  0.79836  0.68258  1.0000
  S   S511      1.0  0.23900  0.77424  0.68661  1.0000
  Fe  Fe259     1.0  0.24029  0.82493  0.68422  1.0000
  S   S512      1.0  0.25720  0.83357  0.68802  1.0000
  S   S513      1.0  0.21178  0.81122  0.67445  1.0000
  S   S514      1.0  0.22156  0.84026  0.67605  1.0000
  Fe  Fe260     1.0  0.28444  0.87849  0.71111  1.0000
  H   H1922     1.0  0.16038  0.96564  0.71706  1.0000
  H   H1923     1.0  0.19259  0.67587  0.59122  1.0000
  H   H1924     1.0  0.21160  0.69782  0.62833  1.0000
  H   H1925     1.0  0.21745  0.65667  0.59793  1.0000
  H   H1926     1.0  0.10057  0.76395  0.71105  1.0000
  H   H1927     1.0  0.28938  0.67318  0.60898  1.0000
  H   H1928     1.0  0.17497  0.80695  0.72493  1.0000
  H   H1929     1.0  0.00911  0.85042  0.63626  1.0000
  H   H1930     1.0  0.30935  0.74100  0.51161  1.0000
  C   C1198     1.0  0.31465  0.79666  0.59045  1.0000
  C   C1199     1.0  0.30295  0.79116  0.59055  1.0000
  C   C1200     1.0  0.31424  0.67389  0.50486  1.0000
  H   H1931     1.0  0.07598  0.76600  0.68755  1.0000
  H   H1932     1.0  0.99313  0.80609  0.67542  1.0000
  H   H1933     1.0  0.27658  0.75272  0.65770  1.0000
  C   C1201     1.0  0.24972  0.84430  0.70082  1.0000
  C   C1202     1.0  0.23865  0.84072  0.71257  1.0000
  H   H1934     1.0  0.18708  0.70226  0.70908  1.0000
  H   H1935     1.0  0.17094  0.97749  0.71819  1.0000
  C   C1203     1.0  0.25096  0.86376  0.71076  1.0000
  C   C1204     1.0  0.25572  0.85593  0.69984  1.0000
  H   H1936     1.0  0.23418  0.83152  0.71352  1.0000
  H   H1937     1.0  0.29590  0.78206  0.65139  1.0000
  H   H1938     1.0  0.25575  0.87269  0.70984  1.0000
  H   H1939     1.0  0.26429  0.85875  0.69079  1.0000
  C   C1205     1.0  0.23633  0.74141  0.56091  1.0000
  H   H1940     1.0  0.25963  0.66209  0.62539  1.0000
  H   H1941     1.0  0.16948  0.67728  0.62768  1.0000
  C   C1206     1.0  0.10675  0.73113  0.69252  1.0000
  C   C1207     1.0  0.23531  0.79657  0.61521  1.0000
  C   C1208     1.0  0.23555  0.81044  0.60672  1.0000
  C   C1209     1.0  0.23385  0.82200  0.61326  1.0000
  C   C1210     1.0  0.23198  0.81966  0.62827  1.0000
  C   C1211     1.0  0.23241  0.80566  0.63668  1.0000
  C   C1212     1.0  0.23393  0.79414  0.63017  1.0000
  H   H1942     1.0  0.23643  0.81236  0.59517  1.0000
  H   H1943     1.0  0.23359  0.83281  0.60674  1.0000
  H   H1944     1.0  0.23098  0.80376  0.64825  1.0000
  H   H1945     1.0  0.23332  0.78352  0.63682  1.0000
  H   H1946     1.0  0.23945  0.75773  0.63562  1.0000
  H   H1947     1.0  0.23881  0.78377  0.72360  1.0000
  C   C1213     1.0  0.15832  0.87354  0.69533  1.0000
  C   C1214     1.0  0.15375  0.86296  0.70713  1.0000
  C   C1215     1.0  0.16277  0.84937  0.71018  1.0000
  C   C1216     1.0  0.17639  0.84618  0.70135  1.0000
  C   C1217     1.0  0.18085  0.85654  0.68926  1.0000
  C   C1218     1.0  0.17179  0.87019  0.68623  1.0000
  H   H1948     1.0  0.14321  0.86508  0.71385  1.0000
  H   H1949     1.0  0.15920  0.84132  0.71944  1.0000
  H   H1950     1.0  0.19128  0.85412  0.68228  1.0000
  H   H1951     1.0  0.17534  0.87824  0.67694  1.0000
  C   C1219     1.0  0.19802  0.87284  0.72899  1.0000
  Fe  Fe261     1.0  0.22702  0.69751  0.68708  1.0000
  H   H1952     1.0  0.24741  0.73474  0.55892  1.0000
  C   C1220     1.0  0.30435  0.74756  0.51959  1.0000
  C   C1221     1.0  0.26997  0.68584  0.60206  1.0000
  C   C1222     1.0  0.28165  0.68334  0.60858  1.0000
  C   C1223     1.0  0.28357  0.69414  0.61431  1.0000
  C   C1224     1.0  0.27400  0.70756  0.61319  1.0000
  C   C1225     1.0  0.26221  0.70997  0.60686  1.0000
  C   C1226     1.0  0.26011  0.69905  0.60144  1.0000
  H   H1953     1.0  0.28155  0.65860  0.63465  1.0000
  H   H1954     1.0  0.29269  0.69227  0.61921  1.0000
  H   H1955     1.0  0.25452  0.72013  0.60639  1.0000
  H   H1956     1.0  0.25078  0.70084  0.59693  1.0000
  C   C1227     1.0  0.25961  0.69007  0.51692  1.0000
  C   C1228     1.0  0.27165  0.68483  0.50691  1.0000
  C   C1229     1.0  0.27057  0.67577  0.49850  1.0000
  C   C1230     1.0  0.25736  0.67221  0.49994  1.0000
  C   C1231     1.0  0.24529  0.67773  0.50972  1.0000
  C   C1232     1.0  0.24645  0.68649  0.51832  1.0000
  H   H1957     1.0  0.28189  0.68733  0.50609  1.0000
  H   H1958     1.0  0.27996  0.67142  0.49105  1.0000
  H   H1959     1.0  0.23506  0.67498  0.51087  1.0000
  H   H1960     1.0  0.23710  0.69053  0.52597  1.0000
  C   C1233     1.0  0.06945  0.87092  0.70985  1.0000
  C   C1234     1.0  0.07349  0.88412  0.70773  1.0000
  C   C1235     1.0  0.08019  0.88656  0.71757  1.0000
  S   S515      1.0  0.30581  0.77724  0.58141  1.0000
  H   H1961     1.0  0.16606  0.72866  0.71684  1.0000
  H   H1962     1.0  0.26403  0.76911  0.63861  1.0000
  C   C1236     1.0  0.21293  0.69317  0.63932  1.0000
  C   C1237     1.0  0.19125  0.71056  0.71156  1.0000
  C   C1238     1.0  0.20062  0.75624  0.68809  1.0000
  C   C1239     1.0  0.21087  0.74821  0.69630  1.0000
  C   C1240     1.0  0.22324  0.75325  0.69514  1.0000
  C   C1241     1.0  0.22530  0.76640  0.68587  1.0000
  C   C1242     1.0  0.21562  0.77387  0.67694  1.0000
  C   C1243     1.0  0.20327  0.76884  0.67811  1.0000
  H   H1963     1.0  0.20915  0.73826  0.70378  1.0000
  H   H1964     1.0  0.23090  0.74723  0.70181  1.0000
  H   H1965     1.0  0.21750  0.78366  0.66927  1.0000
  H   H1966     1.0  0.19545  0.77524  0.67189  1.0000
  C   C1244     1.0  0.20178  0.74720  0.61226  1.0000
  C   C1245     1.0  0.18936  0.74675  0.60827  1.0000
  C   C1246     1.0  0.19024  0.73805  0.59871  1.0000
  C   C1247     1.0  0.20342  0.72934  0.59357  1.0000
  C   C1248     1.0  0.21570  0.72915  0.59821  1.0000
  C   C1249     1.0  0.21495  0.73837  0.60724  1.0000
  H   H1967     1.0  0.17918  0.75355  0.61207  1.0000
  H   H1968     1.0  0.18071  0.73826  0.59513  1.0000
  H   H1969     1.0  0.22587  0.72227  0.59451  1.0000
  H   H1970     1.0  0.22460  0.73870  0.61027  1.0000
  C   C1250     1.0  0.12346  0.80814  0.65529  1.0000
  C   C1251     1.0  0.11441  0.81963  0.66138  1.0000
  C   C1252     1.0  0.09944  0.82241  0.66261  1.0000
  C   C1253     1.0  0.09347  0.81400  0.65730  1.0000
  C   C1254     1.0  0.10251  0.80250  0.65122  1.0000
  C   C1255     1.0  0.11744  0.79941  0.65044  1.0000
  H   H1971     1.0  0.11900  0.82643  0.66512  1.0000
  H   H1972     1.0  0.09257  0.83134  0.66725  1.0000
  H   H1973     1.0  0.09796  0.79595  0.64710  1.0000
  H   H1974     1.0  0.12434  0.79057  0.64566  1.0000
  H   H1975     1.0  0.26865  0.78629  0.62986  1.0000
  H   H1976     1.0  0.10185  0.78261  0.70510  1.0000
  C   C1256     1.0  0.09454  0.77506  0.70719  1.0000
  C   C1257     1.0  0.21710  0.68130  0.66750  1.0000
  H   H1977     1.0  0.32332  0.78139  0.67474  1.0000
  H   H1978     1.0  0.30326  0.76281  0.63761  1.0000
  Fe  Fe262     1.0  0.26951  0.75611  0.57239  1.0000
  H   H1979     1.0  0.20517  0.71351  0.64618  1.0000
  H   H1980     1.0  0.04230  0.85312  0.64606  1.0000
  C   C1258     1.0  0.14990  0.65821  0.70544  1.0000
  S   S516      1.0  0.29767  0.82295  0.61874  1.0000
  H   H1981     1.0  0.32393  0.65589  0.67477  1.0000
  C   C1259     1.0  0.15483  0.65329  0.69248  1.0000
  C   C1260     1.0  0.12954  0.73422  0.67633  1.0000
  C   C1261     1.0  0.13457  0.73570  0.68778  1.0000
  C   C1262     1.0  0.29159  0.76423  0.54054  1.0000
  H   H1982     1.0  0.00941  0.81645  0.68331  1.0000
  C   C1263     1.0  0.30748  0.74863  0.69826  1.0000
  H   H1983     1.0  0.14541  0.73711  0.68611  1.0000
  H   H1984     1.0  0.07200  0.79395  0.69796  1.0000
  C   C1264     1.0  0.28742  0.80688  0.60639  1.0000
  H   H1985     1.0  0.22314  0.72682  0.55071  1.0000
  C   C1265     1.0  0.30451  0.76650  0.53097  1.0000
  H   H1986     1.0  0.21570  0.76466  0.55488  1.0000
  C   C1266     1.0  0.27498  0.85732  0.65225  1.0000
  H   H1987     1.0  0.04846  0.83546  0.63025  1.0000
  H   H1988     1.0  0.17175  0.77103  0.72215  1.0000
  H   H1989     1.0  0.16942  0.70372  0.62038  1.0000
  H   H1990     1.0  0.23137  0.75002  0.62611  1.0000
  C   C1267     1.0  0.22123  0.74179  0.65448  1.0000
  H   H1991     1.0  0.27827  0.69429  0.56737  1.0000
  H   H1992     1.0  0.28679  0.77061  0.54870  1.0000
  C   C1268     1.0  0.28184  0.69371  0.72567  1.0000
  S   S517      1.0  0.00641  0.84552  0.68823  1.0000
  H   H1993     1.0  0.10834  0.76134  0.68553  1.0000
  H   H1994     1.0  0.25752  0.72958  0.64959  1.0000
  C   C1269     1.0  0.29102  0.74582  0.52867  1.0000
  H   H1995     1.0  0.26249  0.81823  0.72116  1.0000
  H   H1996     1.0  0.29000  0.75702  0.63232  1.0000
  C   C1270     1.0  0.27659  0.83345  0.64899  1.0000
  C   C1271     1.0  0.31514  0.66556  0.49489  1.0000
  H   H1997     1.0  0.27734  0.79095  0.65567  1.0000
  S   S518      1.0  0.22242  0.66699  0.63132  1.0000
  N   N124      1.0  0.18158  0.68784  0.60786  1.0000
  C   C1272     1.0  0.07979  0.76582  0.69730  1.0000
  C   C1273     1.0  0.19442  0.68530  0.61396  1.0000
  H   H1998     1.0  0.08531  0.75455  0.70122  1.0000
  H   H1999     1.0  0.19288  0.69465  0.58607  1.0000
  S   S519      1.0  0.20870  0.70699  0.67574  1.0000
  H   H2000     1.0  0.20102  0.69355  0.60829  1.0000
  H   H2001     1.0  0.20146  0.67453  0.61304  1.0000
  H   H2002     1.0  0.19150  0.68565  0.62563  1.0000
  H   H2003     1.0  0.17908  0.71089  0.60280  1.0000
  N   N125      1.0  0.11565  0.87337  0.68401  1.0000
  C   C1274     1.0  0.10557  0.86645  0.68086  1.0000
  C   C1275     1.0  0.11025  0.88920  0.68137  1.0000
  C   C1276     1.0  0.12998  0.86996  0.67455  1.0000
  C   C1277     1.0  0.11683  0.86792  0.69930  1.0000
  H   H2004     1.0  0.10919  0.85448  0.68297  1.0000
  H   H2005     1.0  0.10447  0.87023  0.66939  1.0000
  H   H2006     1.0  0.09460  0.86893  0.68768  1.0000
  H   H2007     1.0  0.10900  0.89371  0.67001  1.0000
  H   H2008     1.0  0.09959  0.89217  0.68855  1.0000
  H   H2009     1.0  0.11775  0.89475  0.68347  1.0000
  H   H2010     1.0  0.13784  0.87501  0.67668  1.0000
  H   H2011     1.0  0.12951  0.87401  0.66292  1.0000
  H   H2012     1.0  0.13443  0.85812  0.67627  1.0000
  H   H2013     1.0  0.12353  0.87371  0.70226  1.0000
  H   H2014     1.0  0.12175  0.85619  0.70154  1.0000
  H   H2015     1.0  0.10611  0.86949  0.70672  1.0000
  C   C1278     1.0  0.28484  0.75389  0.53939  1.0000
  H   H2016     1.0  0.16321  0.71060  0.72475  1.0000
  H   H2017     1.0  0.08536  0.77790  0.71615  1.0000
  C   C1279     1.0  0.18611  0.68676  0.59249  1.0000
  H   H2018     1.0  0.07014  0.76854  0.70587  1.0000
  C   C1280     1.0  0.29013  0.69041  0.56470  1.0000
  H   H2019     1.0  0.17928  0.66576  0.61534  1.0000
  H   H2020     1.0  0.14784  0.65594  0.68490  1.0000
  Fe  Fe263     1.0  0.31622  0.81395  0.62998  1.0000
  S   S520      1.0  0.26392  0.89295  0.71959  1.0000
  H   H2021     1.0  0.32193  0.81121  0.59844  1.0000
  C   C1281     1.0  0.31481  0.77081  0.69622  1.0000
  H   H2022     1.0  0.25066  0.65348  0.64262  1.0000
  C   C1282     1.0  0.08143  0.79079  0.68940  1.0000
  H   H2023     1.0  0.28929  0.73009  0.68952  1.0000
  H   H2024     1.0  0.07730  0.79180  0.67960  1.0000
  H   H2025     1.0  0.16318  0.67846  0.61172  1.0000
  H   H2026     1.0  0.27376  0.70013  0.71906  1.0000
  C   C1283     1.0  0.28925  0.79647  0.59829  1.0000
  C   C1284     1.0  0.29636  0.81807  0.72341  1.0000
  H   H2027     1.0  0.29758  0.79206  0.71844  1.0000
  C   C1285     1.0  0.30804  0.85236  0.69503  1.0000
  C   C1286     1.0  0.03261  0.82854  0.65675  1.0000
  H   H2028     1.0  0.29566  0.82993  0.72004  1.0000
  H   H2029     1.0  0.31009  0.74218  0.67821  1.0000
  H   H2030     1.0  0.30722  0.85532  0.70510  1.0000
  C   C1287     1.0  0.25437  0.85117  0.64834  1.0000
  H   H2031     1.0  0.27171  0.84753  0.62276  1.0000
  H   H2032     1.0  0.02667  0.83096  0.66745  1.0000
  H   H2033     1.0  0.15510  0.65837  0.72533  1.0000
  C   C1288     1.0  0.99891  0.82279  0.68186  1.0000
  C   C1289     1.0  0.18274  0.77177  0.72238  1.0000
  C   C1290     1.0  0.30160  0.86224  0.68422  1.0000
  H   H2034     1.0  0.01014  0.83175  0.64520  1.0000
  N   N126      1.0  0.16613  0.69502  0.67731  1.0000
  C   C1291     1.0  0.15048  0.69628  0.67927  1.0000
  C   C1292     1.0  0.17410  0.68495  0.66764  1.0000
  C   C1293     1.0  0.17034  0.68951  0.69146  1.0000
  C   C1294     1.0  0.16963  0.70937  0.67084  1.0000
  H   H2035     1.0  0.14674  0.70135  0.66897  1.0000
  H   H2036     1.0  0.14414  0.70305  0.68724  1.0000
  H   H2037     1.0  0.14751  0.68555  0.68331  1.0000
  H   H2038     1.0  0.17114  0.68874  0.65689  1.0000
  H   H2039     1.0  0.18594  0.68383  0.66589  1.0000
  H   H2040     1.0  0.17181  0.67396  0.67230  1.0000
  H   H2041     1.0  0.16435  0.69670  0.69912  1.0000
  H   H2042     1.0  0.18207  0.68859  0.69034  1.0000
  H   H2043     1.0  0.16797  0.67862  0.69655  1.0000
  H   H2044     1.0  0.18127  0.70896  0.66943  1.0000
  H   H2045     1.0  0.28011  0.70952  0.54213  1.0000
  H   H2046     1.0  0.16684  0.71380  0.66003  1.0000
  C   C1295     1.0  0.12564  0.73512  0.70154  1.0000
  H   H2047     1.0  0.28059  0.81425  0.69827  1.0000
  H   H2048     1.0  0.29923  0.81298  0.69739  1.0000
  C   C1296     1.0  0.31593  0.83876  0.69266  1.0000
  N   N127      1.0  0.08944  0.77598  0.69406  1.0000
  C   C1297     1.0  0.30650  0.71199  0.69449  1.0000
  H   H2049     1.0  0.27866  0.79449  0.71965  1.0000
  C   C1298     1.0  0.18154  0.79327  0.70345  1.0000
  H   H2050     1.0  0.29837  0.86630  0.66256  1.0000
  H   H2051     1.0  0.28200  0.71933  0.56184  1.0000
  C   C1299     1.0  0.01269  0.84203  0.64545  1.0000
  C   C1300     1.0  0.30452  0.68910  0.69127  1.0000
  Fe  Fe264     1.0  0.32012  0.73128  0.72661  1.0000
  C   C1301     1.0  0.10190  0.77237  0.68236  1.0000
  H   H2052     1.0  0.17338  0.95916  0.72834  1.0000
  H   H2053     1.0  0.30530  0.67434  0.51405  1.0000
  H   H2054     1.0  0.17038  0.79316  0.70316  1.0000
  N   N128      1.0  0.18968  0.80584  0.61474  1.0000
  C   C1302     1.0  0.19967  0.80142  0.60175  1.0000
  C   C1303     1.0  0.19716  0.80111  0.62693  1.0000
  C   C1304     1.0  0.17711  0.79908  0.61843  1.0000
  C   C1305     1.0  0.18483  0.82172  0.61189  1.0000
  H   H2055     1.0  0.19446  0.80475  0.59230  1.0000
  H   H2056     1.0  0.20359  0.78946  0.60365  1.0000
  H   H2057     1.0  0.20937  0.80620  0.59873  1.0000
  H   H2058     1.0  0.20183  0.78927  0.62879  1.0000
  H   H2059     1.0  0.20618  0.80668  0.62479  1.0000
  H   H2060     1.0  0.18980  0.80357  0.63713  1.0000
  H   H2061     1.0  0.16935  0.80207  0.62828  1.0000
  H   H2062     1.0  0.18049  0.78711  0.62054  1.0000
  H   H2063     1.0  0.17118  0.80243  0.60950  1.0000
  H   H2064     1.0  0.19410  0.82712  0.60911  1.0000
  H   H2065     1.0  0.17730  0.82534  0.62154  1.0000
  H   H2066     1.0  0.17916  0.82570  0.60273  1.0000
  S   S521      1.0  0.10971  0.90979  0.71268  1.0000
  C   C1306     1.0  0.31108  0.75794  0.52074  1.0000
  Fe  Fe265     1.0  0.12607  0.68030  0.72748  1.0000
  C   C1307     1.0  0.31187  0.69722  0.69534  1.0000
  C   C1308     1.0  0.11572  0.73169  0.67874  1.0000
  H   H2067     1.0  0.07140  0.89252  0.69839  1.0000
  H   H2068     1.0  0.04430  0.82684  0.65649  1.0000
  H   H2069     1.0  0.09844  0.77282  0.67232  1.0000
  Fe  Fe266     1.0  0.25186  0.67211  0.69135  1.0000
  H   H2070     1.0  0.30689  0.65965  0.49638  1.0000
  H   H2071     1.0  0.26956  0.83314  0.72127  1.0000
  C   C1309     1.0  0.11168  0.73305  0.70384  1.0000
  H   H2072     1.0  0.25891  0.78339  0.64833  1.0000
  H   H2073     1.0  0.29434  0.77435  0.62368  1.0000
  H   H2074     1.0  0.28662  0.82981  0.69855  1.0000
  H   H2075     1.0  0.29380  0.69497  0.53601  1.0000
  C   C1310     1.0  0.31084  0.84478  0.66870  1.0000
  C   C1311     1.0  0.24067  0.85963  0.72303  1.0000
  H   H2076     1.0  0.16322  0.79451  0.72964  1.0000
  H   H2077     1.0  0.30866  0.67765  0.69193  1.0000
  C   C1312     1.0  0.31721  0.83490  0.67958  1.0000
  C   C1313     1.0  0.18913  0.72535  0.72840  1.0000
  H   H2078     1.0  0.29734  0.71252  0.57007  1.0000
  N   N129      1.0  0.29717  0.70147  0.55393  1.0000
  C   C1314     1.0  0.29148  0.69576  0.68684  1.0000
  H   H2079     1.0  0.30148  0.69469  0.48478  1.0000
  C   C1315     1.0  0.31705  0.76198  0.67472  1.0000
  C   C1316     1.0  0.29187  0.70481  0.54042  1.0000
  H   H2080     1.0  0.10926  0.78001  0.67953  1.0000
  H   H2081     1.0  0.16361  0.71727  0.67774  1.0000
  C   C1317     1.0  0.29272  0.76654  0.63424  1.0000
  C   C1318     1.0  0.07203  0.86020  0.72207  1.0000
  S   S522      1.0  0.26910  0.71871  0.68212  1.0000
  N   N130      1.0  0.28138  0.77316  0.64526  1.0000
  C   C1319     1.0  0.28565  0.78557  0.64752  1.0000
  H   H2082     1.0  0.20229  0.87501  0.71709  1.0000
  H   H2083     1.0  0.10608  0.97864  0.71808  1.0000
  H   H2084     1.0  0.30334  0.73936  0.70495  1.0000
  C   C1320     1.0  0.28811  0.81787  0.70249  1.0000
  H   H2085     1.0  0.22958  0.73477  0.56960  1.0000
  C   C1321     1.0  0.28678  0.79800  0.72315  1.0000
  H   H2086     1.0  0.24081  0.76447  0.54012  1.0000
  Fe  Fe267     1.0  0.02955  0.83746  0.69184  1.0000
  S   S523      1.0  0.25579  0.66013  0.49045  1.0000
  H   H2087     1.0  0.23690  0.75065  0.56511  1.0000
  S   S524      1.0  0.03585  0.83882  0.71190  1.0000
  H   H2088     1.0  0.29226  0.68032  0.56068  1.0000
  C   C1322     1.0  0.21162  0.69607  0.66343  1.0000
  H   H2089     1.0  0.16302  0.70475  0.60453  1.0000
  C   C1323     1.0  0.26764  0.77821  0.64029  1.0000
  C   C1324     1.0  0.03072  0.85397  0.64646  1.0000
  H   H2090     1.0  0.28736  0.79383  0.63729  1.0000
  S   S525      1.0  0.27895  0.85812  0.72579  1.0000
  H   H2091     1.0  0.25014  0.74358  0.62650  1.0000
  S   S526      1.0  0.24942  0.69234  0.67418  1.0000
  H   H2092     1.0  0.28974  0.75848  0.66314  1.0000
  S   S527      1.0  0.28917  0.74622  0.58168  1.0000
  Fe  Fe268     1.0  0.05083  0.81737  0.70977  1.0000
  H   H2093     1.0  0.24105  0.72675  0.54001  1.0000
  H   H2094     1.0  0.21091  0.75891  0.54117  1.0000
  S   S528      1.0  0.13801  0.91451  0.72122  1.0000
  H   H2095     1.0  0.27043  0.86540  0.62508  1.0000
  H   H2096     1.0  0.22043  0.75230  0.65717  1.0000
  C   C1325     1.0  0.30960  0.75871  0.70472  1.0000
  C   C1326     1.0  0.16803  0.71918  0.72584  1.0000
  H   H2097     1.0  0.17671  0.68885  0.58745  1.0000
  H   H2098     1.0  0.25040  0.84783  0.66019  1.0000
  C   C1327     1.0  0.23010  0.73366  0.54246  1.0000
  S   S529      1.0  0.10080  0.73198  0.72114  1.0000
  H   H2099     1.0  0.24400  0.72556  0.66548  1.0000
  S   S530      1.0  0.10735  0.94857  0.72054  1.0000
  H   H2100     1.0  0.28855  0.83145  0.64640  1.0000
  N   N131      1.0  0.23049  0.74633  0.54763  1.0000
  C   C1328     1.0  0.24641  0.73374  0.65538  1.0000
  H   H2101     1.0  0.24646  0.74370  0.65868  1.0000
  H   H2102     1.0  0.24701  0.71852  0.63622  1.0000
  Fe  Fe269     1.0  0.11431  0.92411  0.72486  1.0000
  H   H2103     1.0  0.22582  0.73694  0.53240  1.0000
  C   C1329     1.0  0.23937  0.74742  0.63306  1.0000
  H   H2104     1.0  0.19699  0.85223  0.71614  1.0000
  H   H2105     1.0  0.29000  0.71220  0.48459  1.0000
  C   C1330     1.0  0.21576  0.75505  0.55090  1.0000
  H   H2106     1.0  0.31734  0.69337  0.56079  1.0000
  C   C1331     1.0  0.23614  0.72293  0.64226  1.0000
  H   H2107     1.0  0.23334  0.71447  0.65198  1.0000
  C   C1332     1.0  0.19320  0.85031  0.72811  1.0000
  H   H2108     1.0  0.20857  0.74865  0.55947  1.0000
  H   H2109     1.0  0.27689  0.81078  0.61260  1.0000
  H   H2110     1.0  0.21288  0.74338  0.64817  1.0000
  H   H2111     1.0  0.25091  0.74868  0.53350  1.0000
  H   H2112     1.0  0.21836  0.73405  0.66482  1.0000
  H   H2113     1.0  0.22834  0.72461  0.63530  1.0000
  C   C1333     1.0  0.29378  0.71470  0.55970  1.0000
  H   H2114     1.0  0.00596  0.84537  0.65555  1.0000
  C   C1334     1.0  0.23979  0.75513  0.53636  1.0000
  C   C1335     1.0  0.27095  0.82120  0.72469  1.0000
  H   H2115     1.0  0.27320  0.82938  0.66079  1.0000
  H   H2116     1.0  0.25048  0.84478  0.64294  1.0000
  H   H2117     1.0  0.24918  0.86270  0.64500  1.0000
  Fe  Fe270     1.0  0.23657  0.68804  0.71555  1.0000
  H   H2118     1.0  0.27337  0.82681  0.64331  1.0000
  H   H2119     1.0  0.28689  0.85592  0.64951  1.0000
  H   H2120     1.0  0.28696  0.85211  0.62559  1.0000
  C   C1336     1.0  0.17298  0.67688  0.61601  1.0000
  H   H2121     1.0  0.27026  0.86905  0.64940  1.0000
  N   N132      1.0  0.27023  0.84894  0.64461  1.0000
  H   H2122     1.0  0.28570  0.73797  0.52764  1.0000
  N   N133      1.0  0.28554  0.81379  0.71845  1.0000
  C   C1337     1.0  0.27501  0.85376  0.62882  1.0000
  S   S531      1.0  0.30847  0.75447  0.72328  1.0000
  S   S532      1.0  0.29144  0.87914  0.68732  1.0000
  H   H2123     1.0  0.27176  0.85376  0.66420  1.0000
  C   C1338     1.0  0.21836  0.67833  0.64350  1.0000
  C   C1339     1.0  0.20929  0.70203  0.64940  1.0000
  S   S533      1.0  0.13375  0.70055  0.72467  1.0000
  S   S534      1.0  0.26916  0.75043  0.55190  1.0000
  N   N134      1.0  0.02817  0.84038  0.64487  1.0000
  C   C1340     1.0  0.30315  0.85853  0.67099  1.0000
  C   C1341     1.0  0.29931  0.81186  0.60681  1.0000
  H   H2124     1.0  0.28010  0.79250  0.59811  1.0000
  H   H2125     1.0  0.08834  0.79881  0.68676  1.0000
  H   H2126     1.0  0.09610  0.72906  0.69444  1.0000
  H   H2127     1.0  0.29912  0.72322  0.55196  1.0000
  H   H2128     1.0  0.03492  0.82680  0.62937  1.0000
  H   H2129     1.0  0.31582  0.68595  0.54651  1.0000
  H   H2130     1.0  0.31195  0.84187  0.65853  1.0000
  H   H2131     1.0  0.29066  0.69964  0.72290  1.0000
  C   C1342     1.0  0.31291  0.69594  0.55089  1.0000
  H   H2132     1.0  0.29394  0.68751  0.57501  1.0000
  S   S535      1.0  0.05513  0.79675  0.72626  1.0000
  Fe  Fe271     1.0  0.25541  0.70224  0.68913  1.0000
  S   S536      1.0  0.22881  0.67657  0.70322  1.0000
  H   H2133     1.0  0.18284  0.80465  0.69978  1.0000
  H   H2134     1.0  0.30954  0.77473  0.53165  1.0000
  C   C1343     1.0  0.03671  0.83696  0.63090  1.0000
  H   H2135     1.0  0.13824  0.98368  0.72382  1.0000
  H   H2136     1.0  0.27100  0.76694  0.66756  1.0000
  C   C1344     1.0  0.28596  0.71054  0.68629  1.0000
  H   H2137     1.0  0.31238  0.71816  0.69745  1.0000
  C   C1345     1.0  0.31121  0.75025  0.68322  1.0000
  H   H2138     1.0  0.12958  0.73621  0.71039  1.0000
  H   H2139     1.0  0.28652  0.68333  0.72201  1.0000
  S   S537      1.0  0.25991  0.68154  0.70541  1.0000
  C   C1346     1.0  0.29358  0.71869  0.68991  1.0000
  H   H2140     1.0  0.20740  0.78138  0.70973  1.0000
  S   S538      1.0  0.29655  0.88230  0.72556  1.0000
  H   H2141     1.0  0.28571  0.68949  0.68381  1.0000
  H   H2142     1.0  0.08316  0.89681  0.71581  1.0000
  H   H2143     1.0  0.25736  0.78244  0.71473  1.0000
  H   H2144     1.0  0.18897  0.78725  0.69535  1.0000
  H   H2145     1.0  0.03381  0.84573  0.62165  1.0000
  H   H2146     1.0  0.26561  0.65954  0.52817  1.0000
  H   H2147     1.0  0.23874  0.76063  0.71797  1.0000
  H   H2148     1.0  0.18685  0.73566  0.72046  1.0000
  H   H2149     1.0  0.31683  0.77844  0.70119  1.0000
  H   H2150     1.0  0.03053  0.81815  0.65621  1.0000
  H   H2151     1.0  0.32113  0.83126  0.70094  1.0000
  H   H2152     1.0  0.29747  0.71262  0.53182  1.0000
  H   H2153     1.0  0.23020  0.73727  0.72796  1.0000
  S   S539      1.0  0.21961  0.65485  0.56864  1.0000
  H   H2154     1.0  0.23921  0.71202  0.72515  1.0000
  H   H2155     1.0  0.20292  0.70628  0.71124  1.0000
  C   C1347     1.0  0.25008  0.75687  0.71938  1.0000
  H   H2156     1.0  0.17784  0.87447  0.71439  1.0000
  H   H2157     1.0  0.06894  0.85000  0.72384  1.0000
  C   C1348     1.0  0.15889  0.65464  0.71529  1.0000
  H   H2158     1.0  0.22463  0.66109  0.66086  1.0000
  H   H2159     1.0  0.20096  0.72214  0.72755  1.0000
  C   C1349     1.0  0.23430  0.84825  0.72384  1.0000
  H   H2160     1.0  0.19020  0.72028  0.70263  1.0000
  H   H2161     1.0  0.31855  0.70396  0.54262  1.0000
  H   H2162     1.0  0.20110  0.79842  0.71527  1.0000
  H   H2163     1.0  0.30749  0.81280  0.71874  1.0000
  C   C1350     1.0  0.25002  0.77920  0.72523  1.0000
  C   C1351     1.0  0.17460  0.87204  0.72641  1.0000
  H   H2164     1.0  0.27545  0.75992  0.72173  1.0000
  H   H2165     1.0  0.25711  0.75983  0.70858  1.0000
  C   C1352     1.0  0.16520  0.96871  0.72454  1.0000
  H   H2166     1.0  0.23732  0.91465  0.72514  1.0000
  H   H2167     1.0  0.21884  0.91666  0.72470  1.0000
  H   H2168     1.0  0.22998  0.89892  0.72838  1.0000
  N   N135      1.0  0.18355  0.71398  0.72576  1.0000
  H   H2169     1.0  0.20235  0.78184  0.72860  1.0000
  S   S540      1.0  0.32295  0.69334  0.51440  1.0000
  C   C1353     1.0  0.99464  0.83689  0.68421  1.0000
  C   C1354     1.0  0.17453  0.79532  0.72842  1.0000
  H   H2170     1.0  0.32089  0.77453  0.55021  1.0000
  C   C1355     1.0  0.08277  0.87587  0.72979  1.0000
  S   S541      1.0  0.32342  0.76303  0.65618  1.0000
  C   C1356     1.0  0.10742  0.97310  0.72891  1.0000
  N   N136      1.0  0.25257  0.76333  0.73023  1.0000
  H   H2171     1.0  0.16965  0.88248  0.72991  1.0000
  H   H2172     1.0  0.16602  0.86575  0.72945  1.0000
  C   C1357     1.0  0.22757  0.91004  0.73036  1.0000
  Fe  Fe272     1.0  0.13421  0.69310  0.74818  1.0000
  H   H2173     1.0  0.00593  0.79462  0.81948  1.0000
  S   S542      1.0  0.15239  0.69537  0.75647  1.0000
  H   H2174     1.0  0.01561  0.69286  0.78484  1.0000
  H   H2175     1.0  0.12164  0.75288  0.92799  1.0000
  Fe  Fe273     1.0  0.10574  0.68397  0.75624  1.0000
  S   S543      1.0  0.08888  0.67781  0.77585  1.0000
  H   H2176     1.0  0.14033  0.71898  0.91489  1.0000
  H   H2177     1.0  0.31933  0.77242  0.77375  1.0000
  S   S544      1.0  0.11166  0.70453  0.75578  1.0000
  H   H2178     1.0  0.11042  0.75904  0.90672  1.0000
  Fe  Fe274     1.0  0.02814  0.74933  0.82202  1.0000
  S   S545      1.0  0.03741  0.75833  0.79894  1.0000
  S   S546      1.0  0.04003  0.74602  0.83995  1.0000
  H   H2179     1.0  0.17727  0.79162  0.73926  1.0000
  S   S547      1.0  0.00710  0.75685  0.79159  1.0000
  Fe  Fe275     1.0  0.02842  0.74217  0.79367  1.0000
  S   S548      1.0  0.03807  0.73247  0.77413  1.0000
  Fe  Fe276     1.0  0.01533  0.77214  0.79892  1.0000
  S   S549      1.0  0.01361  0.79541  0.78776  1.0000
  S   S550      1.0  0.02102  0.73161  0.81679  1.0000
  S   S551      1.0  0.00639  0.76429  0.82244  1.0000
  H   H2180     1.0  0.10400  0.74261  0.91342  1.0000
  C   C1358     1.0  0.17059  0.92123  0.74299  1.0000
  Fe  Fe277     1.0  0.20553  0.93446  0.79426  1.0000
  S   S552      1.0  0.18944  0.92285  0.79287  1.0000
  N   N137      1.0  0.27537  0.69131  0.74132  1.0000
  Fe  Fe278     1.0  0.18574  0.96380  0.78928  1.0000
  S   S553      1.0  0.16790  0.95462  0.78746  1.0000
  H   H2181     1.0  0.10862  0.76863  0.82257  1.0000
  Fe  Fe279     1.0  0.17369  0.93754  0.80645  1.0000
  S   S554      1.0  0.15651  0.92892  0.82413  1.0000
  Fe  Fe280     1.0  0.18512  0.94082  0.77410  1.0000
  S   S555      1.0  0.18267  0.93726  0.75329  1.0000
  S   S556      1.0  0.19008  0.94776  0.80955  1.0000
  S   S557      1.0  0.20263  0.95141  0.77411  1.0000
  H   H2182     1.0  0.19438  0.84724  0.96887  1.0000
  N   N138      1.0  0.12669  0.74017  0.91185  1.0000
  C   C1359     1.0  0.20943  0.87431  0.82480  1.0000
  Fe  Fe281     1.0  0.24307  0.79630  0.76560  1.0000
  S   S558      1.0  0.22983  0.78129  0.78121  1.0000
  S   S559      1.0  0.23478  0.81046  0.74636  1.0000
  Fe  Fe282     1.0  0.23687  0.78708  0.79846  1.0000
  S   S560      1.0  0.22087  0.78796  0.81973  1.0000
  C   C1360     1.0  0.10810  0.74318  0.84126  1.0000
  S   S561      1.0  0.24821  0.80392  0.78287  1.0000
  C   C1361     1.0  0.13030  0.72480  0.91098  1.0000
  Fe  Fe283     1.0  0.18240  0.86763  0.88268  1.0000
  S   S562      1.0  0.20471  0.85481  0.88358  1.0000
  S   S563      1.0  0.18020  0.89156  0.87941  1.0000
  Fe  Fe284     1.0  0.17031  0.84070  0.88862  1.0000
  S   S564      1.0  0.19184  0.82582  0.88953  1.0000
  S   S565      1.0  0.15056  0.83109  0.89547  1.0000
  Fe  Fe285     1.0  0.19426  0.84016  0.90276  1.0000
  S   S566      1.0  0.20024  0.83068  0.92450  1.0000
  Fe  Fe286     1.0  0.20008  0.84198  0.87016  1.0000
  S   S567      1.0  0.21664  0.83904  0.84975  1.0000
  S   S568      1.0  0.17223  0.85406  0.90302  1.0000
  S   S569      1.0  0.17826  0.85581  0.86808  1.0000
  Fe  Fe287     1.0  0.09349  0.78435  0.85594  1.0000
  S   S570      1.0  0.09460  0.76719  0.87625  1.0000
  S   S571      1.0  0.07982  0.78747  0.83956  1.0000
  Fe  Fe288     1.0  0.12020  0.79386  0.85740  1.0000
  S   S572      1.0  0.12378  0.77700  0.87720  1.0000
  S   S573      1.0  0.13622  0.80821  0.84752  1.0000
  Fe  Fe289     1.0  0.11821  0.76232  0.86678  1.0000
  S   S574      1.0  0.13098  0.73966  0.86790  1.0000
  Fe  Fe290     1.0  0.10004  0.78361  0.88509  1.0000
  S   S575      1.0  0.09157  0.78636  0.90830  1.0000
  S   S576      1.0  0.11694  0.77846  0.84600  1.0000
  S   S577      1.0  0.09658  0.80149  0.86565  1.0000
  Fe  Fe291     1.0  0.17289  0.78106  0.77912  1.0000
  S   S578      1.0  0.19423  0.76662  0.78190  1.0000
  H   H2183     1.0  0.10017  0.73566  0.75018  1.0000
  Fe  Fe292     1.0  0.15888  0.75599  0.78306  1.0000
  S   S579      1.0  0.17916  0.73943  0.78571  1.0000
  S   S580      1.0  0.13813  0.75097  0.78257  1.0000
  Fe  Fe293     1.0  0.18128  0.75294  0.79979  1.0000
  S   S581      1.0  0.18820  0.74228  0.82070  1.0000
  H   H2184     1.0  0.11582  0.73610  0.93421  1.0000
  S   S582      1.0  0.16015  0.76850  0.79856  1.0000
  S   S583      1.0  0.16960  0.77005  0.76350  1.0000
  C   C1362     1.0  0.23177  0.74938  0.83270  1.0000
  C   C1363     1.0  0.31759  0.88617  0.77383  1.0000
  S   S584      1.0  0.20532  0.87359  0.96015  1.0000
  H   H2185     1.0  0.25551  0.68922  0.73800  1.0000
  C   C1364     1.0  0.23024  0.71460  0.73381  1.0000
  H   H2186     1.0  0.19358  0.88342  0.73227  1.0000
  C   C1365     1.0  0.11082  0.95887  0.75683  1.0000
  H   H2187     1.0  0.20398  0.90318  0.81573  1.0000
  H   H2188     1.0  0.21707  0.86385  0.82739  1.0000
  C   C1366     1.0  0.03350  0.79716  0.81119  1.0000
  Fe  Fe294     1.0  0.00000  0.74750  0.81504  1.0000
  S   S585      1.0  0.13503  0.77781  0.94888  1.0000
  S   S586      1.0  0.11159  0.98309  0.76514  1.0000
  H   H2189     1.0  0.07996  0.82710  0.93608  1.0000
  H   H2190     1.0  0.27797  0.69342  0.78542  1.0000
  N   N139      1.0  0.31111  0.88446  0.76261  1.0000
  C   C1367     1.0  0.25119  0.93028  0.75966  1.0000
  C   C1368     1.0  0.29064  0.72348  0.76638  1.0000
  N   N140      1.0  0.11162  0.86406  0.77883  1.0000
  C   C1369     1.0  0.11028  0.95099  0.74702  1.0000
  H   H2191     1.0  0.26997  0.76242  0.74000  1.0000
  H   H2192     1.0  0.31298  0.77547  0.73714  1.0000
  S   S587      1.0  0.14537  0.89173  0.75955  1.0000
  C   C1370     1.0  0.00829  0.80420  0.82161  1.0000
  H   H2193     1.0  0.20193  0.90741  0.83287  1.0000
  H   H2194     1.0  0.29684  0.90544  0.76105  1.0000
  Fe  Fe295     1.0  0.19012  0.75468  0.76747  1.0000
  Fe  Fe296     1.0  0.25902  0.87281  0.73517  1.0000
  C   C1371     1.0  0.10374  0.78413  0.91947  1.0000
  C   C1372     1.0  0.09863  0.78283  0.93444  1.0000
  C   C1373     1.0  0.10808  0.78114  0.94357  1.0000
  C   C1374     1.0  0.12277  0.78044  0.93779  1.0000
  C   C1375     1.0  0.12787  0.78179  0.92283  1.0000
  C   C1376     1.0  0.11837  0.78387  0.91370  1.0000
  H   H2195     1.0  0.08730  0.78314  0.93902  1.0000
  H   H2196     1.0  0.10402  0.78013  0.95511  1.0000
  H   H2197     1.0  0.13919  0.78152  0.91824  1.0000
  H   H2198     1.0  0.12238  0.78553  0.90219  1.0000
  C   C1377     1.0  0.14750  0.74025  0.85571  1.0000
  C   C1378     1.0  0.15709  0.72747  0.85297  1.0000
  C   C1379     1.0  0.16986  0.72806  0.84244  1.0000
  C   C1380     1.0  0.17281  0.74143  0.83446  1.0000
  C   C1381     1.0  0.16330  0.75416  0.83733  1.0000
  C   C1382     1.0  0.15085  0.75357  0.84819  1.0000
  H   H2199     1.0  0.15457  0.71713  0.85879  1.0000
  H   H2200     1.0  0.17721  0.71819  0.84019  1.0000
  H   H2201     1.0  0.16556  0.76449  0.83125  1.0000
  H   H2202     1.0  0.14384  0.76347  0.85063  1.0000
  C   C1383     1.0  0.20158  0.84278  0.93420  1.0000
  C   C1384     1.0  0.19711  0.83994  0.94930  1.0000
  C   C1385     1.0  0.19823  0.84933  0.95730  1.0000
  C   C1386     1.0  0.20416  0.86145  0.95031  1.0000
  C   C1387     1.0  0.20877  0.86421  0.93521  1.0000
  C   C1388     1.0  0.20737  0.85498  0.92715  1.0000
  H   H2203     1.0  0.19265  0.83052  0.95485  1.0000
  H   H2204     1.0  0.30703  0.78328  0.75282  1.0000
  H   H2205     1.0  0.21368  0.87336  0.92976  1.0000
  H   H2206     1.0  0.21114  0.85706  0.91553  1.0000
  C   C1389     1.0  0.14700  0.82457  0.88202  1.0000
  C   C1390     1.0  0.13622  0.81661  0.88575  1.0000
  C   C1391     1.0  0.13277  0.81175  0.87516  1.0000
  C   C1392     1.0  0.14026  0.81460  0.86079  1.0000
  C   C1393     1.0  0.15113  0.82248  0.85705  1.0000
  C   C1394     1.0  0.15452  0.82743  0.86766  1.0000
  H   H2207     1.0  0.13058  0.81408  0.89685  1.0000
  H   H2208     1.0  0.12423  0.80591  0.87811  1.0000
  H   H2209     1.0  0.15687  0.82485  0.84595  1.0000
  H   H2210     1.0  0.16286  0.83356  0.86470  1.0000
  C   C1395     1.0  0.21634  0.81076  0.75121  1.0000
  C   C1396     1.0  0.20687  0.82139  0.75823  1.0000
  C   C1397     1.0  0.19256  0.82017  0.76443  1.0000
  N   N141      1.0  0.32357  0.76398  0.75463  1.0000
  H   H2211     1.0  0.02473  0.70689  0.77399  1.0000
  C   C1398     1.0  0.21140  0.79915  0.75002  1.0000
  H   H2212     1.0  0.21081  0.83016  0.75948  1.0000
  H   H2213     1.0  0.18542  0.82804  0.77039  1.0000
  C   C1399     1.0  0.20744  0.72145  0.75656  1.0000
  C   C1400     1.0  0.00123  0.72813  0.77246  1.0000
  C   C1401     1.0  0.21982  0.80211  0.82811  1.0000
  C   C1402     1.0  0.22825  0.81243  0.82158  1.0000
  C   C1403     1.0  0.22716  0.82371  0.82834  1.0000
  C   C1404     1.0  0.21757  0.82479  0.84161  1.0000
  C   C1405     1.0  0.20905  0.81453  0.84812  1.0000
  C   C1406     1.0  0.21025  0.80316  0.84142  1.0000
  H   H2214     1.0  0.23571  0.81170  0.81139  1.0000
  H   H2215     1.0  0.23383  0.83157  0.82329  1.0000
  H   H2216     1.0  0.20169  0.81526  0.85840  1.0000
  H   H2217     1.0  0.20387  0.79510  0.84670  1.0000
  C   C1407     1.0  0.16313  0.91854  0.83945  1.0000
  C   C1408     1.0  0.15893  0.90546  0.84653  1.0000
  C   C1409     1.0  0.16432  0.89697  0.85868  1.0000
  C   C1410     1.0  0.17357  0.90179  0.86405  1.0000
  C   C1411     1.0  0.17761  0.91496  0.85709  1.0000
  C   C1412     1.0  0.17258  0.92322  0.84469  1.0000
  H   H2218     1.0  0.15159  0.90183  0.84253  1.0000
  H   H2219     1.0  0.16103  0.88690  0.86410  1.0000
  H   H2220     1.0  0.18475  0.91873  0.86122  1.0000
  H   H2221     1.0  0.17575  0.93337  0.83936  1.0000
  H   H2222     1.0  0.00606  0.70624  0.80486  1.0000
  H   H2223     1.0  0.10806  0.75197  0.84642  1.0000
  H   H2224     1.0  0.13627  0.75876  0.90322  1.0000
  C   C1413     1.0  0.24056  0.93115  0.77232  1.0000
  C   C1414     1.0  0.28426  0.81460  0.76581  1.0000
  H   H2225     1.0  0.14026  0.74665  0.89119  1.0000
  H   H2226     1.0  0.25155  0.78452  0.73324  1.0000
  H   H2227     1.0  0.27415  0.81278  0.76517  1.0000
  H   H2228     1.0  0.18974  0.89798  0.83043  1.0000
  S   S588      1.0  0.11371  0.80835  0.96863  1.0000
  H   H2229     1.0  0.22720  0.89542  0.83277  1.0000
  H   H2230     1.0  0.13458  0.73631  0.93128  1.0000
  H   H2231     1.0  0.31419  0.90505  0.74899  1.0000
  H   H2232     1.0  0.20692  0.69879  0.76193  1.0000
  H   H2233     1.0  0.23302  0.94123  0.77336  1.0000
  H   H2234     1.0  0.25532  0.71180  0.78890  1.0000
  C   C1415     1.0  0.15613  0.90400  0.75793  1.0000
  C   C1416     1.0  0.15844  0.90678  0.77031  1.0000
  C   C1417     1.0  0.16653  0.91702  0.76904  1.0000
  C   C1418     1.0  0.17255  0.92431  0.75536  1.0000
  H   H2235     1.0  0.99703  0.72483  0.80109  1.0000
  H   H2236     1.0  0.21390  0.86947  0.85161  1.0000
  H   H2237     1.0  0.15363  0.90132  0.78092  1.0000
  H   H2238     1.0  0.16789  0.91940  0.77866  1.0000
  H   H2239     1.0  0.14887  0.74192  0.90628  1.0000
  C   C1419     1.0  0.20688  0.88003  0.84789  1.0000
  H   H2240     1.0  0.20777  0.88789  0.85376  1.0000
  C   C1420     1.0  0.05232  0.75655  0.83926  1.0000
  C   C1421     1.0  0.05705  0.76621  0.82663  1.0000
  C   C1422     1.0  0.06584  0.77531  0.82680  1.0000
  C   C1423     1.0  0.07014  0.77471  0.83951  1.0000
  C   C1424     1.0  0.06601  0.76456  0.85196  1.0000
  C   C1425     1.0  0.05710  0.75556  0.85182  1.0000
  H   H2241     1.0  0.05371  0.76684  0.81681  1.0000
  H   H2242     1.0  0.06921  0.78297  0.81707  1.0000
  H   H2243     1.0  0.06923  0.76400  0.86183  1.0000
  H   H2244     1.0  0.05358  0.74804  0.86162  1.0000
  C   C1426     1.0  0.02450  0.79608  0.77030  1.0000
  C   C1427     1.0  0.02704  0.80928  0.76142  1.0000
  C   C1428     1.0  0.03624  0.80965  0.74771  1.0000
  C   C1429     1.0  0.04294  0.79680  0.74293  1.0000
  C   C1430     1.0  0.04023  0.78365  0.75173  1.0000
  C   C1431     1.0  0.03099  0.78330  0.76534  1.0000
  H   H2245     1.0  0.02201  0.81921  0.76517  1.0000
  H   H2246     1.0  0.13988  0.96518  0.81033  1.0000
  H   H2247     1.0  0.04511  0.77374  0.74793  1.0000
  H   H2248     1.0  0.02882  0.77310  0.77190  1.0000
  C   C1432     1.0  0.14800  0.71069  0.76399  1.0000
  C   C1433     1.0  0.15600  0.71145  0.77346  1.0000
  C   C1434     1.0  0.15283  0.72372  0.77934  1.0000
  C   C1435     1.0  0.14177  0.73536  0.77564  1.0000
  C   C1436     1.0  0.13375  0.73463  0.76616  1.0000
  C   C1437     1.0  0.13695  0.72236  0.76023  1.0000
  H   H2249     1.0  0.16454  0.70245  0.77641  1.0000
  H   H2250     1.0  0.15875  0.72398  0.78702  1.0000
  H   H2251     1.0  0.12534  0.74370  0.76312  1.0000
  H   H2252     1.0  0.13112  0.72210  0.75247  1.0000
  H   H2253     1.0  0.11434  0.74638  0.89532  1.0000
  C   C1438     1.0  0.07384  0.69215  0.77592  1.0000
  C   C1439     1.0  0.06610  0.69646  0.78883  1.0000
  C   C1440     1.0  0.05481  0.70874  0.78855  1.0000
  C   C1441     1.0  0.05115  0.71644  0.77538  1.0000
  C   C1442     1.0  0.05852  0.71178  0.76262  1.0000
  C   C1443     1.0  0.06996  0.69980  0.76286  1.0000
  H   H2254     1.0  0.06913  0.69055  0.79895  1.0000
  H   H2255     1.0  0.04914  0.71232  0.79845  1.0000
  H   H2256     1.0  0.05564  0.71765  0.75242  1.0000
  H   H2257     1.0  0.07570  0.69637  0.75293  1.0000
  H   H2258     1.0  0.22934  0.89033  0.81600  1.0000
  H   H2259     1.0  0.11546  0.88563  0.77223  1.0000
  N   N142      1.0  0.22344  0.90997  0.74600  1.0000
  H   H2260     1.0  0.19840  0.87204  0.82827  1.0000
  H   H2261     1.0  0.26085  0.71206  0.73949  1.0000
  H   H2262     1.0  0.24415  0.76421  0.75267  1.0000
  H   H2263     1.0  0.20627  0.90484  0.76398  1.0000
  C   C1444     1.0  0.12171  0.85944  0.76598  1.0000
  C   C1445     1.0  0.11912  0.86005  0.79096  1.0000
  H   H2264     1.0  0.11627  0.86208  0.75671  1.0000
  H   H2265     1.0  0.12607  0.84758  0.76817  1.0000
  H   H2266     1.0  0.13100  0.86490  0.76246  1.0000
  H   H2267     1.0  0.12327  0.84818  0.79377  1.0000
  H   H2268     1.0  0.11183  0.86339  0.80085  1.0000
  Fe  Fe297     1.0  0.13226  0.89934  0.74230  1.0000
  H   H2269     1.0  0.12152  0.71919  0.91756  1.0000
  H   H2270     1.0  0.26820  0.89527  0.76882  1.0000
  H   H2271     1.0  0.23102  0.92917  0.74378  1.0000
  H   H2272     1.0  0.13200  0.72363  0.89960  1.0000
  C   C1446     1.0  0.13092  0.74583  0.82509  1.0000
  C   C1447     1.0  0.10872  0.75943  0.81792  1.0000
  H   H2273     1.0  0.11109  0.93945  0.75034  1.0000
  N   N143      1.0  0.17619  0.89728  0.92119  1.0000
  Fe  Fe298     1.0  0.10613  0.89457  0.73428  1.0000
  C   C1448     1.0  0.16192  0.89928  0.93106  1.0000
  H   H2274     1.0  0.21749  0.92528  0.75974  1.0000
  H   H2275     1.0  0.15339  0.89848  0.92601  1.0000
  H   H2276     1.0  0.27765  0.71163  0.74377  1.0000
  N   N144      1.0  0.00241  0.71431  0.78318  1.0000
  H   H2277     1.0  0.99260  0.73669  0.77684  1.0000
  C   C1449     1.0  0.22533  0.72887  0.73556  1.0000
  H   H2278     1.0  0.01644  0.79142  0.84660  1.0000
  C   C1450     1.0  0.26921  0.70537  0.74563  1.0000
  H   H2279     1.0  0.12117  0.73514  0.80796  1.0000
  C   C1451     1.0  0.18717  0.89835  0.92834  1.0000
  S   S589      1.0  0.26862  0.87549  0.75228  1.0000
  H   H2280     1.0  0.03540  0.78696  0.83942  1.0000
  C   C1452     1.0  0.26094  0.91723  0.75822  1.0000
  N   N145      1.0  0.17779  0.79887  0.81684  1.0000
  C   C1453     1.0  0.16275  0.80282  0.81501  1.0000
  C   C1454     1.0  0.17806  0.79329  0.83234  1.0000
  C   C1455     1.0  0.18425  0.81176  0.81136  1.0000
  C   C1456     1.0  0.18614  0.78764  0.80863  1.0000
  H   H2281     1.0  0.16213  0.80673  0.80342  1.0000
  H   H2282     1.0  0.15629  0.81157  0.82074  1.0000
  H   H2283     1.0  0.15737  0.79347  0.81942  1.0000
  H   H2284     1.0  0.18928  0.78989  0.83404  1.0000
  H   H2285     1.0  0.17210  0.80161  0.83881  1.0000
  H   H2286     1.0  0.17294  0.78379  0.83691  1.0000
  H   H2287     1.0  0.18422  0.81619  0.79967  1.0000
  H   H2288     1.0  0.19563  0.80914  0.81254  1.0000
  H   H2289     1.0  0.17831  0.82044  0.81737  1.0000
  H   H2290     1.0  0.19753  0.78439  0.80981  1.0000
  H   H2291     1.0  0.18631  0.79160  0.79687  1.0000
  H   H2292     1.0  0.18157  0.77776  0.81234  1.0000
  N   N146      1.0  0.10142  0.82899  0.92435  1.0000
  C   C1457     1.0  0.09952  0.82568  0.91122  1.0000
  C   C1458     1.0  0.09847  0.84480  0.92283  1.0000
  C   C1459     1.0  0.11637  0.82274  0.92621  1.0000
  C   C1460     1.0  0.09135  0.82274  0.93713  1.0000
  H   H2293     1.0  0.10193  0.81384  0.91185  1.0000
  H   H2294     1.0  0.10678  0.83044  0.90133  1.0000
  H   H2295     1.0  0.08828  0.82993  0.90964  1.0000
  H   H2296     1.0  0.08730  0.84990  0.92134  1.0000
  H   H2297     1.0  0.09976  0.84768  0.93258  1.0000
  H   H2298     1.0  0.10597  0.84982  0.91333  1.0000
  C   C1461     1.0  0.31663  0.77757  0.74602  1.0000
  H   H2299     1.0  0.12425  0.82730  0.91681  1.0000
  H   H2300     1.0  0.11903  0.81084  0.92724  1.0000
  C   C1462     1.0  0.32211  0.87592  0.75286  1.0000
  H   H2301     1.0  0.09335  0.81081  0.93864  1.0000
  H   H2302     1.0  0.01232  0.70151  0.76706  1.0000
  C   C1463     1.0  0.02462  0.78910  0.83678  1.0000
  H   H2303     1.0  0.00680  0.81305  0.81196  1.0000
  N   N147      1.0  0.15409  0.97333  0.73682  1.0000
  H   H2304     1.0  0.30043  0.72673  0.75996  1.0000
  H   H2305     1.0  0.13710  0.74733  0.81370  1.0000
  H   H2306     1.0  0.27795  0.74527  0.76428  1.0000
  C   C1464     1.0  0.10849  0.95808  0.73303  1.0000
  S   S590      1.0  0.22793  0.68648  0.73935  1.0000
  H   H2307     1.0  0.11434  0.76160  0.80635  1.0000
  H   H2308     1.0  0.05983  0.76070  0.76764  1.0000
  C   C1465     1.0  0.07140  0.76052  0.76256  1.0000
  N   N148      1.0  0.02303  0.80114  0.82413  1.0000
  H   H2309     1.0  0.08335  0.73652  0.78043  1.0000
  H   H2310     1.0  0.19357  0.78866  0.75566  1.0000
  H   H2311     1.0  0.13028  0.96997  0.82720  1.0000
  H   H2312     1.0  0.13881  0.96421  0.75464  1.0000
  H   H2313     1.0  0.29389  0.87571  0.76140  1.0000
  H   H2314     1.0  0.00004  0.80734  0.83107  1.0000
  H   H2315     1.0  0.14072  0.95876  0.73802  1.0000
  S   S591      1.0  0.10875  0.90970  0.74665  1.0000
  H   H2316     1.0  0.21874  0.79079  0.74485  1.0000
  H   H2317     1.0  0.18046  0.70314  0.74816  1.0000
  C   C1466     1.0  0.00548  0.71634  0.79635  1.0000
  H   H2318     1.0  0.30903  0.75194  0.75293  1.0000
  H   H2319     1.0  0.26402  0.70392  0.75734  1.0000
  H   H2320     1.0  0.16182  0.89092  0.94129  1.0000
  S   S592      1.0  0.12859  0.67179  0.75055  1.0000
  C   C1467     1.0  0.18785  0.80817  0.76382  1.0000
  N   N149      1.0  0.07891  0.74625  0.75922  1.0000
  C   C1468     1.0  0.07224  0.74315  0.74889  1.0000
  C   C1469     1.0  0.09425  0.74631  0.75275  1.0000
  Fe  Fe299     1.0  0.27532  0.89451  0.73580  1.0000
  H   H2321     1.0  0.16202  0.72251  0.73614  1.0000
  H   H2322     1.0  0.07724  0.73219  0.74659  1.0000
  H   H2323     1.0  0.06054  0.74357  0.75317  1.0000
  H   H2324     1.0  0.32064  0.82124  0.76780  1.0000
  C   C1470     1.0  0.02573  0.81414  0.82689  1.0000
  H   H2325     1.0  0.11815  0.82492  0.93608  1.0000
  H   H2326     1.0  0.15192  0.97707  0.82917  1.0000
  H   H2327     1.0  0.21191  0.89288  0.75151  1.0000
  S   S593      1.0  0.17096  0.80507  0.77385  1.0000
  H   H2328     1.0  0.02343  0.77887  0.83482  1.0000
  H   H2329     1.0  0.19043  0.88098  0.91016  1.0000
  N   N150      1.0  0.16472  0.81312  0.93875  1.0000
  C   C1471     1.0  0.17403  0.80776  0.92593  1.0000
  C   C1472     1.0  0.15183  0.80678  0.94355  1.0000
  C   C1473     1.0  0.16028  0.82901  0.93500  1.0000
  C   C1474     1.0  0.17268  0.80893  0.95055  1.0000
  H   H2330     1.0  0.18402  0.81209  0.92217  1.0000
  H   H2331     1.0  0.16845  0.81105  0.91670  1.0000
  H   H2332     1.0  0.17731  0.79578  0.92831  1.0000
  H   H2333     1.0  0.14432  0.81100  0.95287  1.0000
  H   H2334     1.0  0.14589  0.80918  0.93472  1.0000
  H   H2335     1.0  0.15477  0.79483  0.94701  1.0000
  H   H2336     1.0  0.16974  0.83414  0.93179  1.0000
  H   H2337     1.0  0.15298  0.83337  0.94436  1.0000
  H   H2338     1.0  0.15459  0.83258  0.92585  1.0000
  H   H2339     1.0  0.16601  0.81302  0.96030  1.0000
  H   H2340     1.0  0.18258  0.81342  0.94720  1.0000
  H   H2341     1.0  0.17602  0.79700  0.95382  1.0000
  C   C1475     1.0  0.20117  0.89901  0.82759  1.0000
  H   H2342     1.0  0.21170  0.87806  0.81284  1.0000
  H   H2343     1.0  0.15284  0.98024  0.75619  1.0000
  H   H2344     1.0  0.19559  0.87856  0.85137  1.0000
  C   C1476     1.0  0.07774  0.73501  0.77268  1.0000
  H   H2345     1.0  0.29550  0.68853  0.74741  1.0000
  H   H2346     1.0  0.18752  0.89012  0.93862  1.0000
  H   H2347     1.0  0.12283  0.97773  0.81127  1.0000
  C   C1477     1.0  0.12461  0.74138  0.92700  1.0000
  N   N151      1.0  0.21084  0.88508  0.83206  1.0000
  C   C1478     1.0  0.22587  0.88695  0.82794  1.0000
  H   H2348     1.0  0.23341  0.87673  0.83156  1.0000
  C   C1479     1.0  0.13854  0.74718  0.90274  1.0000
  C   C1480     1.0  0.21016  0.90433  0.75236  1.0000
  C   C1481     1.0  0.11328  0.74735  0.90661  1.0000
  H   H2349     1.0  0.16022  0.84577  0.97260  1.0000
  H   H2350     1.0  0.01801  0.81747  0.83658  1.0000
  C   C1482     1.0  0.21221  0.70714  0.75469  1.0000
  C   C1483     1.0  0.16093  0.97708  0.74662  1.0000
  C   C1484     1.0  0.19716  0.79789  0.75628  1.0000
  H   H2351     1.0  0.09665  0.74286  0.84232  1.0000
  C   C1485     1.0  0.10640  0.87988  0.77547  1.0000
  H   H2352     1.0  0.10057  0.88326  0.76643  1.0000
  H   H2353     1.0  0.15046  0.98334  0.79036  1.0000
  N   N152      1.0  0.11580  0.74553  0.82596  1.0000
  H   H2354     1.0  0.06630  0.73522  0.77826  1.0000
  H   H2355     1.0  0.07346  0.75104  0.73838  1.0000
  H   H2356     1.0  0.03216  0.78706  0.80912  1.0000
  C   C1486     1.0  0.27792  0.73398  0.76882  1.0000
  S   S594      1.0  0.20741  0.75053  0.74796  1.0000
  H   H2357     1.0  0.17172  0.88183  0.91201  1.0000
  H   H2358     1.0  0.19812  0.89664  0.92132  1.0000
  S   S595      1.0  0.30645  0.69554  0.76945  1.0000
  H   H2359     1.0  0.31797  0.74410  0.76776  1.0000
  H   H2360     1.0  0.01593  0.71966  0.79398  1.0000
  C   C1487     1.0  0.07855  0.86273  0.73206  1.0000
  H   H2361     1.0  0.08250  0.72398  0.77046  1.0000
  H   H2362     1.0  0.20135  0.91068  0.74671  1.0000
  H   H2363     1.0  0.17703  0.87100  0.75315  1.0000
  H   H2364     1.0  0.11215  0.95327  0.76765  1.0000
  C   C1488     1.0  0.22102  0.92484  0.74808  1.0000
  H   H2365     1.0  0.15890  0.91003  0.93401  1.0000
  C   C1489     1.0  0.29392  0.80344  0.77270  1.0000
  C   C1490     1.0  0.16242  0.91110  0.74428  1.0000
  C   C1491     1.0  0.17971  0.88291  0.91758  1.0000
  Fe  Fe300     1.0  0.12670  0.78578  0.96979  1.0000
  C   C1492     1.0  0.30708  0.80583  0.77329  1.0000
  H   H2366     1.0  0.22160  0.75631  0.83743  1.0000
  H   H2367     1.0  0.25033  0.73866  0.81063  1.0000
  C   C1493     1.0  0.28766  0.82824  0.75974  1.0000
  C   C1494     1.0  0.18208  0.86089  0.74903  1.0000
  C   C1495     1.0  0.26052  0.90527  0.76975  1.0000
  C   C1496     1.0  0.26386  0.68326  0.74436  1.0000
  C   C1497     1.0  0.31050  0.81940  0.76720  1.0000
  H   H2368     1.0  0.29130  0.67213  0.74675  1.0000
  C   C1498     1.0  0.21385  0.73236  0.74683  1.0000
  C   C1499     1.0  0.26519  0.71511  0.78273  1.0000
  Fe  Fe301     1.0  0.26741  0.78555  0.78096  1.0000
  H   H2369     1.0  0.12846  0.86536  0.78820  1.0000
  H   H2370     1.0  0.23695  0.74253  0.84171  1.0000
  C   C1500     1.0  0.17592  0.90856  0.90778  1.0000
  H   H2371     1.0  0.23113  0.76392  0.74316  1.0000
  H   H2372     1.0  0.20902  0.73729  0.83848  1.0000
  H   H2373     1.0  0.21681  0.72449  0.82711  1.0000
  C   C1501     1.0  0.21944  0.73097  0.83342  1.0000
  S   S596      1.0  0.29003  0.78628  0.78032  1.0000
  S   S597      1.0  0.30887  0.71325  0.73103  1.0000
  S   S598      1.0  0.09136  0.87862  0.74225  1.0000
  S   S599      1.0  0.26312  0.77924  0.76248  1.0000
  S   S600      1.0  0.25663  0.76930  0.79804  1.0000
  H   H2374     1.0  0.22439  0.72334  0.84225  1.0000
  H   H2375     1.0  0.30358  0.75973  0.76860  1.0000
  H   H2376     1.0  0.28008  0.83691  0.75464  1.0000
  H   H2377     1.0  0.24110  0.72521  0.81091  1.0000
  H   H2378     1.0  0.17356  0.91957  0.90999  1.0000
  H   H2379     1.0  0.23892  0.75681  0.82595  1.0000
  Fe  Fe302     1.0  0.25042  0.76473  0.77970  1.0000
  N   N153      1.0  0.22905  0.74056  0.82405  1.0000
  H   H2380     1.0  0.31454  0.79728  0.77869  1.0000
  C   C1502     1.0  0.24281  0.73175  0.81774  1.0000
  H   H2381     1.0  0.18497  0.90910  0.93110  1.0000
  S   S601      1.0  0.22610  0.91966  0.79917  1.0000
  C   C1503     1.0  0.22339  0.70380  0.74308  1.0000
  H   H2382     1.0  0.18415  0.72758  0.73940  1.0000
  H   H2383     1.0  0.24831  0.72424  0.82625  1.0000
  H   H2384     1.0  0.21182  0.75713  0.81660  1.0000
  C   C1504     1.0  0.13299  0.97432  0.81534  1.0000
  H   H2385     1.0  0.23677  0.88923  0.75247  1.0000
  H   H2386     1.0  0.25162  0.93961  0.75083  1.0000
  H   H2387     1.0  0.22920  0.75736  0.80497  1.0000
  C   C1505     1.0  0.22214  0.75017  0.81230  1.0000
  Fe  Fe303     1.0  0.32092  0.70366  0.74880  1.0000
  C   C1506     1.0  0.30556  0.89885  0.75418  1.0000
  H   H2388     1.0  0.21978  0.74392  0.80558  1.0000
  C   C1507     1.0  0.30079  0.83062  0.76048  1.0000
  H   H2389     1.0  0.13654  0.73561  0.83126  1.0000
  H   H2390     1.0  0.12084  0.72303  0.82526  1.0000
  C   C1508     1.0  0.26517  0.72975  0.77693  1.0000
  H   H2391     1.0  0.07181  0.76924  0.75260  1.0000
  H   H2392     1.0  0.03679  0.81216  0.82883  1.0000
  H   H2393     1.0  0.10278  0.84497  0.78533  1.0000
  C   C1509     1.0  0.25009  0.90622  0.78253  1.0000
  H   H2394     1.0  0.08043  0.85442  0.74151  1.0000
  C   C1510     1.0  0.10829  0.98094  0.73863  1.0000
  C   C1511     1.0  0.27798  0.70471  0.78073  1.0000
  C   C1512     1.0  0.29071  0.70884  0.77247  1.0000
  H   H2395     1.0  0.03836  0.81984  0.74099  1.0000
  C   C1513     1.0  0.09926  0.85694  0.78281  1.0000
  H   H2396     1.0  0.09731  0.75955  0.81830  1.0000
  C   C1514     1.0  0.23508  0.90067  0.75318  1.0000
  H   H2397     1.0  0.30091  0.89795  0.74538  1.0000
  H   H2398     1.0  0.18643  0.90709  0.89994  1.0000
  H   H2399     1.0  0.16132  0.97256  0.81208  1.0000
  C   C1515     1.0  0.23990  0.91907  0.78369  1.0000
  H   H2400     1.0  0.25837  0.68155  0.75598  1.0000
  C   C1516     1.0  0.10995  0.97384  0.75266  1.0000
  H   H2401     1.0  0.17992  0.87409  0.92744  1.0000
  H   H2402     1.0  0.19856  0.72403  0.76528  1.0000
  H   H2403     1.0  0.09244  0.82504  0.94726  1.0000
  H   H2404     1.0  0.28209  0.68111  0.76146  1.0000
  H   H2405     1.0  0.09340  0.85987  0.77380  1.0000
  H   H2406     1.0  0.17393  0.85402  0.75253  1.0000
  H   H2407     1.0  0.11326  0.73287  0.84772  1.0000
  H   H2408     1.0  0.09883  0.88382  0.78492  1.0000
  H   H2409     1.0  0.03211  0.80569  0.80129  1.0000
  H   H2410     1.0  0.15433  0.95143  0.74854  1.0000
  H   H2411     1.0  0.18130  0.69218  0.73593  1.0000
  H   H2412     1.0  0.24970  0.89690  0.79136  1.0000
  H   H2413     1.0  0.13162  0.75480  0.82960  1.0000
  H   H2414     1.0  0.10424  0.73308  0.82001  1.0000
  H   H2415     1.0  0.19744  0.69649  0.73724  1.0000
  S   S602      1.0  0.24891  0.74240  0.77962  1.0000
  H   H2416     1.0  0.24389  0.74774  0.74826  1.0000
  C   C1517     1.0  0.11548  0.73367  0.81953  1.0000
  H   H2417     1.0  0.16762  0.90818  0.90220  1.0000
  H   H2418     1.0  0.09138  0.86021  0.79245  1.0000
  C   C1518     1.0  0.31309  0.75452  0.76126  1.0000
  S   S603      1.0  0.27286  0.91572  0.74164  1.0000
  S   S604      1.0  0.23759  0.86747  0.73791  1.0000
  H   H2419     1.0  0.04476  0.79544  0.81238  1.0000
  H   H2420     1.0  0.09556  0.75448  0.74244  1.0000
  H   H2421     1.0  0.24544  0.90414  0.74806  1.0000
  H   H2422     1.0  0.02466  0.82341  0.81752  1.0000
  H   H2423     1.0  0.20258  0.84395  0.73292  1.0000
  H   H2424     1.0  0.01141  0.73212  0.76927  1.0000
  H   H2425     1.0  0.29075  0.88282  0.77726  1.0000
  H   H2426     1.0  0.19120  0.85505  0.75446  1.0000
  S   S605      1.0  0.30533  0.84751  0.75308  1.0000
  Fe  Fe304     1.0  0.28919  0.86309  0.74107  1.0000
  H   H2427     1.0  0.26972  0.74571  0.73623  1.0000
  C   C1519     1.0  0.14666  0.96143  0.74481  1.0000
  H   H2428     1.0  0.23264  0.90101  0.76484  1.0000
  C   C1520     1.0  0.01426  0.70339  0.77699  1.0000
  H   H2429     1.0  0.29483  0.81517  0.73538  1.0000
  H   H2430     1.0  0.21262  0.93231  0.74243  1.0000
  N   N154      1.0  0.18698  0.86402  0.73313  1.0000
  H   H2431     1.0  0.09965  0.74868  0.76019  1.0000
  C   C1521     1.0  0.24254  0.75963  0.74416  1.0000
  H   H2432     1.0  0.07622  0.76331  0.77021  1.0000
  S   S606      1.0  0.12917  0.88297  0.73218  1.0000
  H   H2433     1.0  0.16913  0.96777  0.75076  1.0000
  H   H2434     1.0  0.16111  0.90872  0.73467  1.0000
  H   H2435     1.0  0.26808  0.67250  0.74145  1.0000
  H   H2436     1.0  0.30957  0.89265  0.78130  1.0000
  C   C1522     1.0  0.18581  0.70088  0.73724  1.0000
  H   H2437     1.0  0.20846  0.97855  0.79431  1.0000
  C   C1523     1.0  0.29914  0.87689  0.76958  1.0000
  H   H2438     1.0  0.30298  0.86578  0.77562  1.0000
  H   H2439     1.0  0.22678  0.84462  0.73355  1.0000
  H   H2440     1.0  0.32175  0.87550  0.78046  1.0000
  C   C1524     1.0  0.28652  0.68288  0.74959  1.0000
  H   H2441     1.0  0.31755  0.87437  0.74430  1.0000
  H   H2442     1.0  0.99875  0.72703  0.76245  1.0000
  H   H2443     1.0  0.18519  0.84333  0.73105  1.0000
  H   H2444     1.0  0.17530  0.92674  0.73238  1.0000
  C   C1525     1.0  0.26757  0.75762  0.73211  1.0000
  H   H2445     1.0  0.26859  0.81849  0.73673  1.0000
  H   H2446     1.0  0.20735  0.86728  0.73420  1.0000
  S   S607      1.0  0.13939  0.82914  0.97503  1.0000
  H   H2447     1.0  0.28502  0.79456  0.73514  1.0000
  H   H2448     1.0  0.18457  0.76673  0.73348  1.0000
  C   C1526     1.0  0.15393  0.98134  0.81728  1.0000
  Fe  Fe305     1.0  0.11056  0.71009  0.73252  1.0000
  S   S608      1.0  0.10266  0.69059  0.73338  1.0000
  H   H2449     1.0  0.32412  0.78510  0.74109  1.0000
  H   H2450     1.0  0.37258  0.25277  0.20821  1.0000
  C   C1527     1.0  0.37842  0.30829  0.11678  1.0000
  Fe  Fe306     1.0  0.63774  0.24942  0.13526  1.0000
  S   S609      1.0  0.61677  0.25005  0.13023  1.0000
  H   H2451     1.0  0.65446  0.16343  0.21555  1.0000
  C   C1528     1.0  0.65044  0.19850  0.18235  1.0000
  C   C1529     1.0  0.62555  0.25000  0.16972  1.0000
  S   S610      1.0  0.62976  0.21466  0.22203  1.0000
  C   C1530     1.0  0.59019  0.29099  0.17125  1.0000
  S   S611      1.0  0.62501  0.27647  0.10230  1.0000
  C   C1531     1.0  0.63653  0.19025  0.17063  1.0000
  H   H2452     1.0  0.64382  0.23785  0.20265  1.0000
  H   H2453     1.0  0.65288  0.18216  0.22884  1.0000
  H   H2454     1.0  0.62114  0.29915  0.16680  1.0000
  C   C1532     1.0  0.32950  0.11150  0.09844  1.0000
  H   H2455     1.0  0.34391  0.29689  0.14944  1.0000
  H   H2456     1.0  0.63332  0.18747  0.20658  1.0000
  H   H2457     1.0  0.37015  0.29803  0.13869  1.0000
  H   H2458     1.0  0.33491  0.13747  0.08354  1.0000
  Fe  Fe307     1.0  0.36434  0.19355  0.20519  1.0000
  S   S612      1.0  0.36909  0.17087  0.21822  1.0000
  S   S613      1.0  0.38304  0.20280  0.19081  1.0000
  Fe  Fe308     1.0  0.34754  0.16985  0.21502  1.0000
  H   H2459     1.0  0.65075  0.26649  0.16574  1.0000
  C   C1533     1.0  0.59477  0.28691  0.15782  1.0000
  H   H2460     1.0  0.55970  0.25939  0.10630  1.0000
  S   S614      1.0  0.34360  0.19190  0.20069  1.0000
  C   C1534     1.0  0.64570  0.23637  0.18073  1.0000
  S   S615      1.0  0.40707  0.28055  0.20263  1.0000
  H   H2461     1.0  0.64678  0.26870  0.18409  1.0000
  C   C1535     1.0  0.41127  0.28961  0.22516  1.0000
  H   H2462     1.0  0.58272  0.26002  0.13054  1.0000
  Fe  Fe309     1.0  0.61386  0.27409  0.12570  1.0000
  Fe  Fe310     1.0  0.62901  0.25231  0.10728  1.0000
  N   N155      1.0  0.58008  0.26068  0.10930  1.0000
  S   S616      1.0  0.65033  0.24922  0.11277  1.0000
  Fe  Fe311     1.0  0.62271  0.23636  0.22787  1.0000
  H   H2463     1.0  0.62663  0.21713  0.17444  1.0000
  Fe  Fe312     1.0  0.35639  0.25541  0.12834  1.0000
  S   S617      1.0  0.35389  0.27026  0.10696  1.0000
  S   S618      1.0  0.37463  0.23619  0.12823  1.0000
  H   H2464     1.0  0.64303  0.30564  0.14937  1.0000
  S   S619      1.0  0.35364  0.20355  0.22427  1.0000
  C   C1536     1.0  0.65210  0.22695  0.08700  1.0000
  H   H2465     1.0  0.62512  0.21337  0.19362  1.0000
  C   C1537     1.0  0.57435  0.27236  0.21563  1.0000
  Fe  Fe313     1.0  0.35350  0.28754  0.11830  1.0000
  S   S620      1.0  0.36536  0.30587  0.10873  1.0000
  Fe  Fe314     1.0  0.33015  0.27245  0.11655  1.0000
  S   S621      1.0  0.35760  0.27246  0.13888  1.0000
  N   N156      1.0  0.64293  0.28846  0.16834  1.0000
  H   H2466     1.0  0.40928  0.21906  0.21516  1.0000
  S   S622      1.0  0.41406  0.31594  0.13428  1.0000
  S   S623      1.0  0.52853  0.31492  0.20171  1.0000
  C   C1538     1.0  0.38911  0.30592  0.13735  1.0000
  Fe  Fe315     1.0  0.64511  0.27321  0.11033  1.0000
  S   S624      1.0  0.39345  0.31333  0.17391  1.0000
  H   H2467     1.0  0.41362  0.29917  0.21744  1.0000
  S   S625      1.0  0.64766  0.23434  0.15309  1.0000
  C   C1539     1.0  0.59146  0.26891  0.10196  1.0000
  H   H2468     1.0  0.38576  0.21298  0.21670  1.0000
  C   C1540     1.0  0.33734  0.15625  0.17047  1.0000
  C   C1541     1.0  0.57419  0.26334  0.12409  1.0000
  Fe  Fe316     1.0  0.33337  0.19953  0.22145  1.0000
  S   S626      1.0  0.59145  0.28733  0.13073  1.0000
  H   H2469     1.0  0.65095  0.20183  0.19217  1.0000
  C   C1542     1.0  0.38022  0.21195  0.17355  1.0000
  C   C1543     1.0  0.39188  0.21129  0.16178  1.0000
  C   C1544     1.0  0.38997  0.21849  0.14785  1.0000
  C   C1545     1.0  0.37651  0.22683  0.14572  1.0000
  C   C1546     1.0  0.36490  0.22787  0.15754  1.0000
  C   C1547     1.0  0.36669  0.22019  0.17146  1.0000
  H   H2470     1.0  0.40233  0.20487  0.16340  1.0000
  H   H2471     1.0  0.39893  0.21757  0.13874  1.0000
  H   H2472     1.0  0.35448  0.23433  0.15593  1.0000
  H   H2473     1.0  0.35768  0.22079  0.18058  1.0000
  S   S627      1.0  0.33275  0.25646  0.13730  1.0000
  H   H2474     1.0  0.60499  0.27962  0.15534  1.0000
  C   C1548     1.0  0.38911  0.31547  0.10783  1.0000
  S   S628      1.0  0.63359  0.27330  0.13330  1.0000
  H   H2475     1.0  0.40122  0.24185  0.18900  1.0000
  H   H2476     1.0  0.59690  0.28689  0.17915  1.0000
  H   H2477     1.0  0.56554  0.25734  0.13002  1.0000
  S   S629      1.0  0.34018  0.15074  0.21254  1.0000
  C   C1549     1.0  0.32981  0.13787  0.19701  1.0000
  H   H2478     1.0  0.38443  0.23712  0.19024  1.0000
  S   S630      1.0  0.32654  0.14306  0.15532  1.0000
  H   H2479     1.0  0.62033  0.25322  0.16063  1.0000
  C   C1550     1.0  0.58600  0.29218  0.14766  1.0000
  C   C1551     1.0  0.57687  0.30034  0.17455  1.0000
  H   H2480     1.0  0.57266  0.26353  0.08985  1.0000
  H   H2481     1.0  0.34846  0.12826  0.09395  1.0000
  H   H2482     1.0  0.57010  0.28317  0.21845  1.0000
  S   S631      1.0  0.62347  0.23965  0.09453  1.0000
  C   C1552     1.0  0.37843  0.30347  0.13162  1.0000
  H   H2483     1.0  0.56577  0.30547  0.14323  1.0000
  C   C1553     1.0  0.64889  0.29442  0.15306  1.0000
  C   C1554     1.0  0.34045  0.15810  0.18300  1.0000
  H   H2484     1.0  0.34152  0.11418  0.11892  1.0000
  C   C1555     1.0  0.63315  0.18414  0.19664  1.0000
  C   C1556     1.0  0.63781  0.22532  0.09045  1.0000
  C   C1557     1.0  0.57772  0.24650  0.22432  1.0000
  N   N157      1.0  0.63627  0.19541  0.18354  1.0000
  S   S632      1.0  0.57158  0.30547  0.19132  1.0000
  Fe  Fe317     1.0  0.40907  0.30249  0.18844  1.0000
  C   C1558     1.0  0.63488  0.21211  0.09064  1.0000
  S   S633      1.0  0.42884  0.30562  0.17118  1.0000
  H   H2485     1.0  0.59633  0.26712  0.09080  1.0000
  N   N158      1.0  0.39007  0.23437  0.21067  1.0000
  H   H2486     1.0  0.62387  0.21082  0.09327  1.0000
  C   C1559     1.0  0.62496  0.25021  0.19448  1.0000
  C   C1560     1.0  0.63863  0.24114  0.19353  1.0000
  H   H2487     1.0  0.62238  0.18175  0.19813  1.0000
  H   H2488     1.0  0.62649  0.28129  0.16331  1.0000
  C   C1561     1.0  0.39991  0.31297  0.12820  1.0000
  C   C1562     1.0  0.61844  0.25469  0.18256  1.0000
  C   C1563     1.0  0.33698  0.13393  0.09470  1.0000
  H   H2489     1.0  0.57802  0.23848  0.11543  1.0000
  C   C1564     1.0  0.33028  0.14532  0.17121  1.0000
  H   H2490     1.0  0.60776  0.26146  0.18338  1.0000
  H   H2491     1.0  0.58953  0.24491  0.21994  1.0000
  H   H2492     1.0  0.40046  0.22964  0.22860  1.0000
  H   H2493     1.0  0.60031  0.26549  0.10791  1.0000
  H   H2494     1.0  0.34588  0.16655  0.18231  1.0000
  S   S634      1.0  0.32952  0.29155  0.12528  1.0000
  C   C1565     1.0  0.38047  0.22418  0.21818  1.0000
  N   N159      1.0  0.40304  0.26247  0.12238  1.0000
  C   C1566     1.0  0.39514  0.26050  0.13761  1.0000
  C   C1567     1.0  0.41142  0.24832  0.11932  1.0000
  C   C1568     1.0  0.41285  0.27234  0.11986  1.0000
  C   C1569     1.0  0.39271  0.26871  0.11272  1.0000
  H   H2495     1.0  0.38873  0.27096  0.14032  1.0000
  H   H2496     1.0  0.40259  0.25566  0.14520  1.0000
  H   H2497     1.0  0.38755  0.25319  0.13986  1.0000
  H   H2498     1.0  0.41752  0.24937  0.10792  1.0000
  H   H2499     1.0  0.41922  0.24317  0.12651  1.0000
  H   H2500     1.0  0.40423  0.24072  0.12104  1.0000
  H   H2501     1.0  0.42069  0.26809  0.12708  1.0000
  H   H2502     1.0  0.40679  0.28316  0.12193  1.0000
  H   H2503     1.0  0.41905  0.27404  0.10849  1.0000
  H   H2504     1.0  0.39828  0.27066  0.10114  1.0000
  H   H2505     1.0  0.38592  0.27917  0.11498  1.0000
  H   H2506     1.0  0.38533  0.26143  0.11410  1.0000
  H   H2507     1.0  0.58736  0.28072  0.10140  1.0000
  H   H2508     1.0  0.64123  0.17384  0.19601  1.0000
  H   H2509     1.0  0.58603  0.27154  0.21076  1.0000
  H   H2510     1.0  0.56370  0.27711  0.10027  1.0000
  H   H2511     1.0  0.65628  0.22937  0.18004  1.0000
  H   H2512     1.0  0.63805  0.30889  0.17456  1.0000
  H   H2513     1.0  0.34048  0.16328  0.16017  1.0000
  C   C1570     1.0  0.64618  0.20050  0.08756  1.0000
  H   H2514     1.0  0.33417  0.25804  0.08859  1.0000
  H   H2515     1.0  0.40336  0.25742  0.22739  1.0000
  S   S635      1.0  0.61582  0.25530  0.21080  1.0000
  C   C1571     1.0  0.32446  0.25450  0.08934  1.0000
  H   H2516     1.0  0.38913  0.30213  0.14875  1.0000
  C   C1572     1.0  0.33680  0.14881  0.19633  1.0000
  H   H2517     1.0  0.59110  0.24276  0.09907  1.0000
  C   C1573     1.0  0.56850  0.26538  0.10107  1.0000
  C   C1574     1.0  0.58626  0.24510  0.11005  1.0000
  H   H2518     1.0  0.65546  0.29811  0.17644  1.0000
  H   H2519     1.0  0.56964  0.27504  0.12392  1.0000
  C   C1575     1.0  0.57262  0.30141  0.15103  1.0000
  H   H2520     1.0  0.55047  0.26095  0.22662  1.0000
  H   H2521     1.0  0.32725  0.11431  0.08739  1.0000
  H   H2522     1.0  0.64386  0.19029  0.08775  1.0000
  C   C1576     1.0  0.33024  0.12024  0.11892  1.0000
  C   C1577     1.0  0.63913  0.24076  0.16885  1.0000
  H   H2523     1.0  0.33432  0.24186  0.07300  1.0000
  C   C1578     1.0  0.40812  0.27865  0.22068  1.0000
  H   H2524     1.0  0.56897  0.27220  0.20706  1.0000
  H   H2525     1.0  0.59508  0.24125  0.11617  1.0000
  H   H2526     1.0  0.57269  0.24551  0.21585  1.0000
  C   C1579     1.0  0.62502  0.20870  0.18451  1.0000
  C   C1580     1.0  0.65112  0.27362  0.17268  1.0000
  C   C1581     1.0  0.39985  0.31761  0.11345  1.0000
  N   N160      1.0  0.32723  0.12455  0.10421  1.0000
  C   C1582     1.0  0.62767  0.28816  0.17007  1.0000
  H   H2527     1.0  0.64836  0.28776  0.14576  1.0000
  Fe  Fe318     1.0  0.41283  0.31794  0.15710  1.0000
  H   H2528     1.0  0.61409  0.20661  0.18620  1.0000
  C   C1583     1.0  0.33494  0.30507  0.15294  1.0000
  H   H2529     1.0  0.39986  0.22320  0.19323  1.0000
  H   H2530     1.0  0.34073  0.10514  0.09792  1.0000
  H   H2531     1.0  0.32702  0.13055  0.20721  1.0000
  Fe  Fe319     1.0  0.33365  0.27540  0.14537  1.0000
  C   C1584     1.0  0.56805  0.30550  0.16446  1.0000
  H   H2532     1.0  0.63977  0.29338  0.18919  1.0000
  H   H2533     1.0  0.37937  0.24962  0.22429  1.0000
  C   C1585     1.0  0.32638  0.13625  0.18458  1.0000
  H   H2534     1.0  0.62600  0.18785  0.17110  1.0000
  H   H2535     1.0  0.65293  0.20729  0.17287  1.0000
  H   H2536     1.0  0.33552  0.14385  0.09881  1.0000
  H   H2537     1.0  0.41048  0.23767  0.21155  1.0000
  H   H2538     1.0  0.62285  0.28370  0.18151  1.0000
  H   H2539     1.0  0.65439  0.23724  0.08651  1.0000
  H   H2540     1.0  0.37048  0.22719  0.21385  1.0000
  C   C1586     1.0  0.64407  0.29760  0.17755  1.0000
  H   H2541     1.0  0.63902  0.19847  0.16054  1.0000
  C   C1587     1.0  0.39411  0.23418  0.19509  1.0000
  H   H2542     1.0  0.32855  0.12976  0.12374  1.0000
  H   H2543     1.0  0.64491  0.18017  0.16967  1.0000
  C   C1588     1.0  0.40316  0.22999  0.21675  1.0000
  C   C1589     1.0  0.38253  0.24910  0.21265  1.0000
  H   H2544     1.0  0.38949  0.25709  0.20710  1.0000
  H   H2545     1.0  0.55770  0.31260  0.16699  1.0000
  N   N161      1.0  0.57181  0.26065  0.22846  1.0000
  H   H2546     1.0  0.37726  0.22382  0.23001  1.0000
  C   C1590     1.0  0.32452  0.24535  0.08048  1.0000
  H   H2547     1.0  0.41369  0.29678  0.24313  1.0000
  H   H2548     1.0  0.33375  0.24255  0.29908  1.0000
  H   H2549     1.0  0.63905  0.24362  0.31789  1.0000
  H   H2550     1.0  0.58323  0.21821  0.28503  1.0000
  H   H2551     1.0  0.33186  0.21856  0.32649  1.0000
  C   C1591     1.0  0.34163  0.20604  0.30342  1.0000
  H   H2552     1.0  0.46890  0.28024  0.25553  1.0000
  C   C1592     1.0  0.51710  0.29599  0.26042  1.0000
  C   C1593     1.0  0.33188  0.26305  0.45796  1.0000
  H   H2553     1.0  0.59782  0.23906  0.34466  1.0000
  C   C1594     1.0  0.63275  0.24031  0.32899  1.0000
  Fe  Fe320     1.0  0.62467  0.28052  0.36947  1.0000
  S   S636      1.0  0.62772  0.26111  0.38744  1.0000
  H   H2554     1.0  0.61543  0.26360  0.45293  1.0000
  Fe  Fe321     1.0  0.59840  0.27298  0.36396  1.0000
  S   S637      1.0  0.59916  0.25344  0.38204  1.0000
  S   S638      1.0  0.58431  0.27857  0.34741  1.0000
  Fe  Fe322     1.0  0.60370  0.26745  0.39446  1.0000
  S   S639      1.0  0.59426  0.26748  0.41814  1.0000
  Fe  Fe323     1.0  0.62299  0.24930  0.37322  1.0000
  S   S640      1.0  0.63468  0.22818  0.36700  1.0000
  S   S641      1.0  0.60082  0.28758  0.37708  1.0000
  S   S642      1.0  0.62210  0.26815  0.35460  1.0000
  Fe  Fe324     1.0  0.53934  0.23958  0.32063  1.0000
  S   S643      1.0  0.55477  0.23388  0.30074  1.0000
  S   S644      1.0  0.54711  0.23753  0.34104  1.0000
  Fe  Fe325     1.0  0.51301  0.24463  0.30729  1.0000
  S   S645      1.0  0.52646  0.23970  0.28609  1.0000
  S   S646      1.0  0.48860  0.25135  0.31230  1.0000
  Fe  Fe326     1.0  0.53920  0.22146  0.29982  1.0000
  S   S647      1.0  0.54674  0.19919  0.29530  1.0000
  Fe  Fe327     1.0  0.54086  0.25258  0.28877  1.0000
  H   H2555     1.0  0.34995  0.19693  0.30764  1.0000
  S   S648      1.0  0.52476  0.22529  0.32092  1.0000
  S   S649      1.0  0.52641  0.25938  0.30871  1.0000
  S   S650      1.0  0.32894  0.22901  0.44342  1.0000
  C   C1595     1.0  0.36361  0.25828  0.42767  1.0000
  C   C1596     1.0  0.52307  0.30659  0.24959  1.0000
  Fe  Fe328     1.0  0.61635  0.20726  0.24368  1.0000
  H   H2556     1.0  0.33386  0.18341  0.27917  1.0000
  H   H2557     1.0  0.33285  0.23189  0.28714  1.0000
  H   H2558     1.0  0.46504  0.27880  0.27473  1.0000
  Fe  Fe329     1.0  0.62715  0.22415  0.25845  1.0000
  S   S651      1.0  0.62578  0.22990  0.27951  1.0000
  H   H2559     1.0  0.57043  0.27934  0.32492  1.0000
  S   S652      1.0  0.63466  0.20141  0.25512  1.0000
  H   H2560     1.0  0.57179  0.20099  0.30491  1.0000
  H   H2561     1.0  0.33866  0.16348  0.26615  1.0000
  S   S653      1.0  0.35509  0.25743  0.37418  1.0000
  N   N162      1.0  0.34369  0.22005  0.30445  1.0000
  C   C1597     1.0  0.52611  0.28393  0.26725  1.0000
  H   H2562     1.0  0.46775  0.18937  0.27965  1.0000
  N   N163      1.0  0.45265  0.18884  0.26765  1.0000
  Fe  Fe330     1.0  0.61570  0.30666  0.46445  1.0000
  H   H2563     1.0  0.43840  0.28043  0.25338  1.0000
  Fe  Fe331     1.0  0.42841  0.22507  0.29387  1.0000
  S   S654      1.0  0.41177  0.24291  0.30280  1.0000
  S   S655      1.0  0.45180  0.21629  0.29552  1.0000
  Fe  Fe332     1.0  0.40928  0.22161  0.27530  1.0000
  S   S656      1.0  0.39126  0.23937  0.28231  1.0000
  S   S657      1.0  0.41068  0.21027  0.25755  1.0000
  Fe  Fe333     1.0  0.40854  0.25120  0.28000  1.0000
  S   S658      1.0  0.40917  0.27389  0.26798  1.0000
  Fe  Fe334     1.0  0.39577  0.22952  0.30456  1.0000
  S   S659      1.0  0.37657  0.22463  0.32221  1.0000
  S   S660      1.0  0.42617  0.23444  0.27100  1.0000
  S   S661      1.0  0.41272  0.21078  0.29764  1.0000
  H   H2564     1.0  0.33483  0.16978  0.29543  1.0000
  C   C1598     1.0  0.40877  0.27563  0.24982  1.0000
  H   H2565     1.0  0.44061  0.26133  0.25623  1.0000
  H   H2566     1.0  0.62235  0.24460  0.45447  1.0000
  C   C1599     1.0  0.39665  0.20194  0.25823  1.0000
  Fe  Fe335     1.0  0.64731  0.21120  0.23384  1.0000
  C   C1600     1.0  0.38532  0.19086  0.24599  1.0000
  C   C1601     1.0  0.37500  0.18791  0.25864  1.0000
  C   C1602     1.0  0.37548  0.19208  0.27109  1.0000
  C   C1603     1.0  0.38618  0.19926  0.27084  1.0000
  H   H2567     1.0  0.37667  0.26564  0.39974  1.0000
  C   C1604     1.0  0.59922  0.19130  0.29243  1.0000
  H   H2568     1.0  0.36762  0.18969  0.28094  1.0000
  H   H2569     1.0  0.38656  0.20236  0.28047  1.0000
  H   H2570     1.0  0.50557  0.29694  0.26325  1.0000
  H   H2571     1.0  0.62660  0.25409  0.46561  1.0000
  H   H2572     1.0  0.62613  0.26751  0.42643  1.0000
  H   H2573     1.0  0.33176  0.27441  0.45370  1.0000
  C   C1605     1.0  0.65676  0.19612  0.29190  1.0000
  H   H2574     1.0  0.40406  0.25470  0.25299  1.0000
  H   H2575     1.0  0.43282  0.27840  0.27966  1.0000
  C   C1606     1.0  0.36101  0.24841  0.35967  1.0000
  C   C1607     1.0  0.37304  0.25137  0.34885  1.0000
  C   C1608     1.0  0.37792  0.24417  0.33727  1.0000
  C   C1609     1.0  0.37082  0.23392  0.33652  1.0000
  C   C1610     1.0  0.35881  0.23095  0.34737  1.0000
  C   C1611     1.0  0.35390  0.23819  0.35889  1.0000
  H   H2576     1.0  0.37857  0.25929  0.34937  1.0000
  H   H2577     1.0  0.38715  0.24656  0.32895  1.0000
  H   H2578     1.0  0.35330  0.22300  0.34692  1.0000
  H   H2579     1.0  0.34463  0.23581  0.36717  1.0000
  C   C1612     1.0  0.61149  0.25797  0.32360  1.0000
  H   H2580     1.0  0.45206  0.16887  0.26301  1.0000
  C   C1613     1.0  0.62502  0.25487  0.45458  1.0000
  H   H2581     1.0  0.33127  0.21602  0.24226  1.0000
  H   H2582     1.0  0.52151  0.27556  0.27532  1.0000
  C   C1614     1.0  0.47845  0.24145  0.30772  1.0000
  C   C1615     1.0  0.48514  0.22949  0.30144  1.0000
  C   C1616     1.0  0.47683  0.22182  0.29791  1.0000
  C   C1617     1.0  0.46176  0.22609  0.30049  1.0000
  C   C1618     1.0  0.45504  0.23809  0.30672  1.0000
  C   C1619     1.0  0.46336  0.24571  0.31035  1.0000
  H   H2583     1.0  0.49675  0.22605  0.29942  1.0000
  H   H2584     1.0  0.48215  0.21252  0.29315  1.0000
  H   H2585     1.0  0.44343  0.24138  0.30893  1.0000
  H   H2586     1.0  0.45808  0.25489  0.31529  1.0000
  C   C1620     1.0  0.56117  0.19772  0.28042  1.0000
  C   C1621     1.0  0.56781  0.18411  0.27733  1.0000
  C   C1622     1.0  0.58015  0.18251  0.26630  1.0000
  C   C1623     1.0  0.58604  0.19448  0.25848  1.0000
  C   C1624     1.0  0.57911  0.20819  0.26124  1.0000
  C   C1625     1.0  0.56659  0.20983  0.27213  1.0000
  H   H2587     1.0  0.56357  0.17475  0.28366  1.0000
  H   H2588     1.0  0.58539  0.17191  0.26414  1.0000
  H   H2589     1.0  0.58331  0.21752  0.25496  1.0000
  H   H2590     1.0  0.56128  0.22042  0.27426  1.0000
  H   H2591     1.0  0.44111  0.20882  0.25683  1.0000
  C   C1626     1.0  0.64031  0.21918  0.28703  1.0000
  C   C1627     1.0  0.60452  0.20196  0.30935  1.0000
  H   H2592     1.0  0.64487  0.26070  0.42020  1.0000
  S   S662      1.0  0.33571  0.22927  0.40234  1.0000
  H   H2593     1.0  0.49336  0.28131  0.34090  1.0000
  H   H2594     1.0  0.51688  0.27981  0.34663  1.0000
  C   C1628     1.0  0.57408  0.26695  0.34582  1.0000
  C   C1629     1.0  0.57146  0.25483  0.35663  1.0000
  C   C1630     1.0  0.56328  0.24586  0.35495  1.0000
  C   C1631     1.0  0.55775  0.24884  0.34243  1.0000
  C   C1632     1.0  0.56045  0.26090  0.33157  1.0000
  C   C1633     1.0  0.56850  0.26995  0.33332  1.0000
  H   H2595     1.0  0.57560  0.25244  0.36635  1.0000
  H   H2596     1.0  0.56119  0.23660  0.36344  1.0000
  H   H2597     1.0  0.55622  0.26336  0.32189  1.0000
  C   C1634     1.0  0.32975  0.25476  0.44934  1.0000
  H   H2598     1.0  0.55386  0.25409  0.24464  1.0000
  H   H2599     1.0  0.39170  0.24905  0.41665  1.0000
  C   C1635     1.0  0.53797  0.30536  0.24603  1.0000
  H   H2600     1.0  0.33315  0.22220  0.47268  1.0000
  H   H2601     1.0  0.33086  0.20408  0.30969  1.0000
  H   H2602     1.0  0.40446  0.19936  0.23619  1.0000
  H   H2603     1.0  0.61395  0.22665  0.34898  1.0000
  C   C1636     1.0  0.51931  0.26802  0.34704  1.0000
  H   H2604     1.0  0.61720  0.26179  0.31235  1.0000
  H   H2605     1.0  0.46027  0.20553  0.25037  1.0000
  H   H2606     1.0  0.45251  0.29066  0.26416  1.0000
  C   C1637     1.0  0.64439  0.20444  0.28701  1.0000
  H   H2607     1.0  0.43016  0.19185  0.27761  1.0000
  H   H2608     1.0  0.55842  0.29276  0.25026  1.0000
  N   N164      1.0  0.50610  0.26212  0.35171  1.0000
  H   H2609     1.0  0.46779  0.17167  0.27785  1.0000
  C   C1638     1.0  0.33266  0.23364  0.46856  1.0000
  C   C1639     1.0  0.44115  0.26821  0.28069  1.0000
  H   H2610     1.0  0.45786  0.24488  0.27141  1.0000
  H   H2611     1.0  0.43552  0.25921  0.28278  1.0000
  C   C1640     1.0  0.60666  0.30049  0.43520  1.0000
  C   C1641     1.0  0.61059  0.30025  0.42044  1.0000
  C   C1642     1.0  0.60638  0.29051  0.41509  1.0000
  C   C1643     1.0  0.59826  0.28079  0.42449  1.0000
  C   C1644     1.0  0.59414  0.28110  0.43925  1.0000
  C   C1645     1.0  0.59839  0.29088  0.44462  1.0000
  H   H2612     1.0  0.61724  0.30734  0.41315  1.0000
  H   H2613     1.0  0.60960  0.29035  0.40371  1.0000
  H   H2614     1.0  0.63743  0.22878  0.33317  1.0000
  H   H2615     1.0  0.48636  0.26523  0.34471  1.0000
  H   H2616     1.0  0.61490  0.20397  0.30209  1.0000
  H   H2617     1.0  0.64376  0.29085  0.41143  1.0000
  H   H2618     1.0  0.32780  0.25981  0.43864  1.0000
  C   C1646     1.0  0.44088  0.18760  0.28058  1.0000
  H   H2619     1.0  0.63455  0.24658  0.33601  1.0000
  S   S663      1.0  0.55264  0.26714  0.27065  1.0000
  H   H2620     1.0  0.62013  0.22219  0.32348  1.0000
  H   H2621     1.0  0.51561  0.24437  0.34107  1.0000
  H   H2622     1.0  0.57585  0.23747  0.23377  1.0000
  C   C1647     1.0  0.44641  0.27004  0.25489  1.0000
  H   H2623     1.0  0.44127  0.17619  0.28647  1.0000
  C   C1648     1.0  0.39623  0.19762  0.24587  1.0000
  H   H2624     1.0  0.59082  0.26049  0.23534  1.0000
  H   H2625     1.0  0.63472  0.28559  0.39256  1.0000
  H   H2626     1.0  0.45476  0.27002  0.24472  1.0000
  C   C1649     1.0  0.54104  0.28265  0.26340  1.0000
  H   H2627     1.0  0.58832  0.22594  0.29701  1.0000
  H   H2628     1.0  0.65563  0.21170  0.34774  1.0000
  N   N165      1.0  0.45272  0.26809  0.26753  1.0000
  C   C1650     1.0  0.33422  0.25675  0.47201  1.0000
  H   H2629     1.0  0.60943  0.19277  0.28450  1.0000
  C   C1651     1.0  0.46318  0.25415  0.26920  1.0000
  C   C1652     1.0  0.60943  0.23804  0.34415  1.0000
  N   N166      1.0  0.36986  0.24867  0.41727  1.0000
  H   H2630     1.0  0.54261  0.31366  0.23807  1.0000
  H   H2631     1.0  0.50577  0.25901  0.37428  1.0000
  H   H2632     1.0  0.35262  0.26443  0.42639  1.0000
  C   C1653     1.0  0.46011  0.27998  0.26539  1.0000
  H   H2633     1.0  0.44544  0.26708  0.29042  1.0000
  H   H2634     1.0  0.44089  0.18459  0.25427  1.0000
  H   H2635     1.0  0.65021  0.27442  0.43530  1.0000
  C   C1654     1.0  0.64831  0.22550  0.29244  1.0000
  H   H2636     1.0  0.37027  0.26630  0.42614  1.0000
  H   H2637     1.0  0.61011  0.24479  0.35131  1.0000
  C   C1655     1.0  0.33037  0.23996  0.45450  1.0000
  H   H2638     1.0  0.36061  0.23099  0.43126  1.0000
  C   C1656     1.0  0.40606  0.26445  0.24529  1.0000
  H   H2639     1.0  0.36267  0.25206  0.43907  1.0000
  C   C1657     1.0  0.49641  0.26946  0.34152  1.0000
  C   C1658     1.0  0.35807  0.22225  0.29602  1.0000
  H   H2640     1.0  0.46008  0.18119  0.24781  1.0000
  H   H2641     1.0  0.32897  0.17284  0.44571  1.0000
  H   H2642     1.0  0.38963  0.23382  0.41118  1.0000
  C   C1659     1.0  0.50996  0.24648  0.35195  1.0000
  S   S664      1.0  0.60781  0.22927  0.24868  1.0000
  S   S665      1.0  0.63847  0.29682  0.46639  1.0000
  C   C1660     1.0  0.45160  0.20417  0.26022  1.0000
  S   S666      1.0  0.64031  0.29542  0.36141  1.0000
  H   H2643     1.0  0.51737  0.24055  0.35941  1.0000
  H   H2644     1.0  0.34225  0.20570  0.29201  1.0000
  H   H2645     1.0  0.34970  0.24311  0.41936  1.0000
  C   C1661     1.0  0.54692  0.29352  0.25301  1.0000
  C   C1662     1.0  0.45140  0.18048  0.25774  1.0000
  C   C1663     1.0  0.36099  0.23784  0.42017  1.0000
  H   H2646     1.0  0.45251  0.21078  0.26742  1.0000
  H   H2647     1.0  0.60379  0.23497  0.32020  1.0000
  C   C1664     1.0  0.65320  0.22738  0.36039  1.0000
  C   C1665     1.0  0.32742  0.17680  0.28837  1.0000
  C   C1666     1.0  0.59166  0.21699  0.29107  1.0000
  H   H2648     1.0  0.57559  0.20905  0.31745  1.0000
  H   H2649     1.0  0.38514  0.18751  0.23641  1.0000
  C   C1667     1.0  0.33154  0.15783  0.27551  1.0000
  N   N167      1.0  0.59386  0.20270  0.30095  1.0000
  C   C1668     1.0  0.38467  0.24121  0.41885  1.0000
  H   H2650     1.0  0.34422  0.23054  0.32088  1.0000
  H   H2651     1.0  0.33859  0.15030  0.28270  1.0000
  H   H2652     1.0  0.57726  0.25296  0.24941  1.0000
  C   C1669     1.0  0.37013  0.25730  0.40238  1.0000
  S   S667      1.0  0.60239  0.19187  0.24588  1.0000
  H   H2653     1.0  0.52531  0.26628  0.33611  1.0000
  C   C1670     1.0  0.46663  0.18320  0.27212  1.0000
  H   H2654     1.0  0.59128  0.19140  0.28621  1.0000
  H   H2655     1.0  0.44153  0.19376  0.28833  1.0000
  C   C1671     1.0  0.49872  0.26446  0.36637  1.0000
  H   H2656     1.0  0.59517  0.29105  0.45601  1.0000
  C   C1672     1.0  0.58006  0.20056  0.31092  1.0000
  H   H2657     1.0  0.37471  0.25040  0.39421  1.0000
  C   C1673     1.0  0.61539  0.23383  0.31994  1.0000
  H   H2658     1.0  0.47580  0.18401  0.26266  1.0000
  H   H2659     1.0  0.50155  0.26774  0.33039  1.0000
  H   H2660     1.0  0.60122  0.18036  0.29948  1.0000
  N   N168      1.0  0.61728  0.24254  0.32918  1.0000
  H   H2661     1.0  0.60064  0.21021  0.31615  1.0000
  H   H2662     1.0  0.60677  0.19119  0.31665  1.0000
  H   H2663     1.0  0.58129  0.18989  0.31854  1.0000
  H   H2664     1.0  0.52688  0.26264  0.35447  1.0000
  C   C1674     1.0  0.41146  0.28817  0.23972  1.0000
  H   H2665     1.0  0.36513  0.23062  0.41229  1.0000
  H   H2666     1.0  0.60163  0.21864  0.28289  1.0000
  H   H2667     1.0  0.35909  0.26297  0.40075  1.0000
  H   H2668     1.0  0.50030  0.24162  0.35531  1.0000
  Fe  Fe336     1.0  0.35698  0.18101  0.23718  1.0000
  H   H2669     1.0  0.59984  0.26001  0.32360  1.0000
  H   H2670     1.0  0.49568  0.27616  0.36659  1.0000
  H   H2671     1.0  0.46848  0.25257  0.27836  1.0000
  H   H2672     1.0  0.32961  0.20005  0.41130  1.0000
  H   H2673     1.0  0.47184  0.25349  0.25932  1.0000
  C   C1675     1.0  0.55618  0.26220  0.23442  1.0000
  H   H2674     1.0  0.38483  0.23464  0.43000  1.0000
  H   H2675     1.0  0.48873  0.26010  0.37026  1.0000
  C   C1676     1.0  0.33100  0.19463  0.42250  1.0000
  S   S668      1.0  0.36174  0.17867  0.25913  1.0000
  H   H2676     1.0  0.58780  0.27363  0.44657  1.0000
  H   H2677     1.0  0.61252  0.26492  0.33037  1.0000
  H   H2678     1.0  0.65435  0.24255  0.37209  1.0000
  H   H2679     1.0  0.62069  0.23735  0.30846  1.0000
  S   S669      1.0  0.32473  0.26187  0.40878  1.0000
  C   C1677     1.0  0.34257  0.22015  0.31975  1.0000
  C   C1678     1.0  0.64242  0.29242  0.38949  1.0000
  C   C1679     1.0  0.64760  0.29536  0.40016  1.0000
  Fe  Fe337     1.0  0.33493  0.25180  0.38941  1.0000
  H   H2680     1.0  0.32983  0.21618  0.26759  1.0000
  H   H2681     1.0  0.63809  0.19941  0.28317  1.0000
  H   H2682     1.0  0.63278  0.24849  0.42829  1.0000
  H   H2683     1.0  0.63142  0.28074  0.44200  1.0000
  H   H2684     1.0  0.34018  0.18522  0.42160  1.0000
  H   H2685     1.0  0.64527  0.23693  0.29234  1.0000
  S   S670      1.0  0.33603  0.17751  0.23554  1.0000
  C   C1680     1.0  0.57901  0.26156  0.23950  1.0000
  S   S671      1.0  0.61242  0.31281  0.44144  1.0000
  C   C1681     1.0  0.33442  0.24202  0.47735  1.0000
  N   N169      1.0  0.63787  0.25780  0.44336  1.0000
  C   C1682     1.0  0.64704  0.29853  0.37491  1.0000
  H   H2686     1.0  0.36678  0.21367  0.30029  1.0000
  H   H2687     1.0  0.35941  0.22215  0.28442  1.0000
  C   C1683     1.0  0.65038  0.24606  0.44622  1.0000
  S   S672      1.0  0.64128  0.23359  0.23802  1.0000
  H   H2688     1.0  0.64855  0.23544  0.44598  1.0000
  H   H2689     1.0  0.33414  0.20234  0.42700  1.0000
  C   C1684     1.0  0.33248  0.23179  0.29861  1.0000
  H   H2690     1.0  0.55126  0.27303  0.23700  1.0000
  C   C1685     1.0  0.65700  0.30744  0.37104  1.0000
  H   H2691     1.0  0.57478  0.27206  0.24294  1.0000
  H   H2692     1.0  0.35998  0.23272  0.29660  1.0000
  C   C1686     1.0  0.64076  0.27166  0.44379  1.0000
  H   H2693     1.0  0.32667  0.15124  0.27130  1.0000
  H   H2694     1.0  0.35094  0.21147  0.32448  1.0000
  H   H2695     1.0  0.64289  0.27127  0.45447  1.0000
  H   H2696     1.0  0.65247  0.24516  0.45708  1.0000
  C   C1687     1.0  0.63535  0.25862  0.42895  1.0000
  C   C1688     1.0  0.65733  0.30450  0.39630  1.0000
  C   C1689     1.0  0.40567  0.26600  0.23077  1.0000
  Fe  Fe338     1.0  0.63021  0.23701  0.65331  1.0000
  S   S673      1.0  0.61256  0.23807  0.67316  1.0000
  Fe  Fe339     1.0  0.54044  0.31252  0.60478  1.0000
  Fe  Fe340     1.0  0.64574  0.25602  0.66028  1.0000
  S   S674      1.0  0.62939  0.25939  0.68052  1.0000
  C   C1690     1.0  0.36385  0.31820  0.65359  1.0000
  Fe  Fe341     1.0  0.63038  0.23557  0.68460  1.0000
  S   S675      1.0  0.63284  0.22268  0.70695  1.0000
  Fe  Fe342     1.0  0.61302  0.26167  0.66745  1.0000
  S   S676      1.0  0.59391  0.28018  0.66544  1.0000
  S   S677      1.0  0.64797  0.23214  0.66522  1.0000
  S   S678      1.0  0.62947  0.26069  0.64685  1.0000
  Fe  Fe343     1.0  0.51691  0.29740  0.60542  1.0000
  Fe  Fe344     1.0  0.33582  0.26224  0.50653  1.0000
  H   H2697     1.0  0.59628  0.31100  0.65323  1.0000
  Fe  Fe345     1.0  0.54070  0.28232  0.62218  1.0000
  S   S679      1.0  0.55769  0.29228  0.60542  1.0000
  S   S680      1.0  0.54671  0.26617  0.64169  1.0000
  H   H2698     1.0  0.38805  0.29685  0.63220  1.0000
  Fe  Fe346     1.0  0.54775  0.28736  0.58971  1.0000
  S   S681      1.0  0.56064  0.27588  0.57182  1.0000
  H   H2699     1.0  0.59560  0.26547  0.61153  1.0000
  S   S682      1.0  0.53198  0.27572  0.60659  1.0000
  H   H2700     1.0  0.55970  0.30660  0.56322  1.0000
  S   S683      1.0  0.49361  0.30462  0.60322  1.0000
  H   H2701     1.0  0.37854  0.22000  0.66645  1.0000
  H   H2702     1.0  0.34880  0.28893  0.55537  1.0000
  H   H2703     1.0  0.61170  0.28557  0.53568  1.0000
  H   H2704     1.0  0.54546  0.30129  0.68125  1.0000
  H   H2705     1.0  0.56668  0.24455  0.62942  1.0000
  S   S684      1.0  0.62821  0.29536  0.50126  1.0000
  Fe  Fe347     1.0  0.40656  0.30371  0.60008  1.0000
  S   S685      1.0  0.41633  0.28495  0.61562  1.0000
  H   H2706     1.0  0.35260  0.23144  0.68904  1.0000
  Fe  Fe348     1.0  0.40460  0.28461  0.58089  1.0000
  S   S686      1.0  0.41432  0.26423  0.59510  1.0000
  S   S687      1.0  0.39550  0.28739  0.56106  1.0000
  Fe  Fe349     1.0  0.39997  0.27409  0.61353  1.0000
  S   S688      1.0  0.38542  0.26462  0.63372  1.0000
  Fe  Fe350     1.0  0.42995  0.27709  0.59588  1.0000
  S   S689      1.0  0.45357  0.26717  0.59592  1.0000
  S   S690      1.0  0.38917  0.29343  0.59939  1.0000
  S   S691      1.0  0.42133  0.29684  0.58023  1.0000
  C   C1691     1.0  0.63094  0.31359  0.64867  1.0000
  H   H2707     1.0  0.36369  0.29177  0.63730  1.0000
  C   C1692     1.0  0.43367  0.30580  0.63134  1.0000
  H   H2708     1.0  0.46468  0.28657  0.64181  1.0000
  C   C1693     1.0  0.34222  0.28191  0.56390  1.0000
  H   H2709     1.0  0.64664  0.20238  0.72900  1.0000
  S   S692      1.0  0.64111  0.25880  0.48636  1.0000
  H   H2710     1.0  0.34723  0.27053  0.56296  1.0000
  H   H2711     1.0  0.57675  0.22844  0.62332  1.0000
  H   H2712     1.0  0.32606  0.19285  0.60399  1.0000
  H   H2713     1.0  0.65290  0.12226  0.72793  1.0000
  H   H2714     1.0  0.58213  0.23429  0.63657  1.0000
  C   C1694     1.0  0.38414  0.30332  0.64074  1.0000
  S   S693      1.0  0.60633  0.29054  0.48312  1.0000
  C   C1695     1.0  0.65512  0.25339  0.71903  1.0000
  C   C1696     1.0  0.61707  0.29949  0.66877  1.0000
  H   H2715     1.0  0.62289  0.30813  0.56130  1.0000
  C   C1697     1.0  0.54153  0.30912  0.67190  1.0000
  Fe  Fe351     1.0  0.35095  0.29869  0.69128  1.0000
  H   H2716     1.0  0.33138  0.28447  0.56130  1.0000
  H   H2717     1.0  0.51532  0.28722  0.58328  1.0000
  Fe  Fe352     1.0  0.60615  0.30578  0.49680  1.0000
  S   S694      1.0  0.38174  0.29138  0.71148  1.0000
  Fe  Fe353     1.0  0.62982  0.31172  0.70960  1.0000
  C   C1698     1.0  0.36365  0.22857  0.69125  1.0000
  H   H2718     1.0  0.36256  0.28865  0.57317  1.0000
  C   C1699     1.0  0.51804  0.27999  0.57553  1.0000
  S   S695      1.0  0.63243  0.22539  0.63579  1.0000
  C   C1700     1.0  0.32822  0.28560  0.68374  1.0000
  H   H2719     1.0  0.42680  0.31673  0.63167  1.0000
  H   H2720     1.0  0.64389  0.25329  0.71891  1.0000
  C   C1701     1.0  0.65647  0.18545  0.69538  1.0000
  H   H2721     1.0  0.46707  0.31237  0.59405  1.0000
  H   H2722     1.0  0.58265  0.31145  0.70009  1.0000
  N   N170      1.0  0.36861  0.30978  0.64213  1.0000
  S   S696      1.0  0.64063  0.29187  0.72327  1.0000
  H   H2723     1.0  0.65049  0.22673  0.72529  1.0000
  H   H2724     1.0  0.63888  0.16184  0.72398  1.0000
  S   S697      1.0  0.34625  0.27363  0.51690  1.0000
  H   H2725     1.0  0.43414  0.31447  0.65531  1.0000
  C   C1702     1.0  0.51803  0.27807  0.55157  1.0000
  H   H2726     1.0  0.61476  0.27652  0.55345  1.0000
  H   H2727     1.0  0.62433  0.29949  0.67570  1.0000
  S   S698      1.0  0.32637  0.26029  0.54817  1.0000
  S   S699      1.0  0.37836  0.25144  0.71552  1.0000
  C   C1703     1.0  0.47008  0.30073  0.59632  1.0000
  C   C1704     1.0  0.60133  0.23746  0.61109  1.0000
  N   N171      1.0  0.58693  0.24666  0.61486  1.0000
  H   H2728     1.0  0.33316  0.21660  0.63107  1.0000
  H   H2729     1.0  0.38654  0.29603  0.65101  1.0000
  H   H2730     1.0  0.52201  0.30519  0.54423  1.0000
  H   H2731     1.0  0.56937  0.25886  0.60457  1.0000
  S   S700      1.0  0.52412  0.30288  0.62279  1.0000
  H   H2732     1.0  0.35756  0.25525  0.67523  1.0000
  S   S701      1.0  0.39789  0.31001  0.66958  1.0000
  H   H2733     1.0  0.36279  0.23160  0.70165  1.0000
  H   H2734     1.0  0.34010  0.30689  0.57126  1.0000
  Fe  Fe354     1.0  0.35920  0.30452  0.71626  1.0000
  N   N172      1.0  0.61625  0.31249  0.65700  1.0000
  C   C1705     1.0  0.58829  0.25905  0.61985  1.0000
  H   H2735     1.0  0.49653  0.30149  0.55283  1.0000
  C   C1706     1.0  0.64408  0.20543  0.70717  1.0000
  Fe  Fe355     1.0  0.34790  0.25332  0.53418  1.0000
  H   H2736     1.0  0.60075  0.22802  0.60723  1.0000
  H   H2737     1.0  0.56625  0.31556  0.61580  1.0000
  S   S702      1.0  0.58880  0.31483  0.51426  1.0000
  H   H2738     1.0  0.64824  0.28068  0.67196  1.0000
  H   H2739     1.0  0.57767  0.26646  0.62226  1.0000
  N   N173      1.0  0.32977  0.20684  0.61548  1.0000
  H   H2740     1.0  0.36789  0.25521  0.68777  1.0000
  H   H2741     1.0  0.36239  0.29055  0.65614  1.0000
  C   C1707     1.0  0.37473  0.25598  0.55022  1.0000
  C   C1708     1.0  0.38815  0.23183  0.68268  1.0000
  H   H2742     1.0  0.63629  0.29148  0.52928  1.0000
  C   C1709     1.0  0.38819  0.27477  0.55687  1.0000
  C   C1710     1.0  0.38081  0.27944  0.54548  1.0000
  C   C1711     1.0  0.37407  0.27014  0.54220  1.0000
  C   C1712     1.0  0.38898  0.26057  0.56485  1.0000
  H   H2743     1.0  0.38023  0.29037  0.53919  1.0000
  Fe  Fe356     1.0  0.38100  0.30213  0.68826  1.0000
  H   H2744     1.0  0.39466  0.25684  0.57363  1.0000
  C   C1713     1.0  0.34832  0.25198  0.62397  1.0000
  C   C1714     1.0  0.34716  0.25496  0.63743  1.0000
  C   C1715     1.0  0.35846  0.25922  0.64018  1.0000
  C   C1716     1.0  0.37103  0.26034  0.62958  1.0000
  C   C1717     1.0  0.37209  0.25768  0.61599  1.0000
  C   C1718     1.0  0.36075  0.25343  0.61321  1.0000
  C   C1719     1.0  0.64759  0.19923  0.69511  1.0000
  H   H2745     1.0  0.35740  0.26174  0.65050  1.0000
  H   H2746     1.0  0.38179  0.25854  0.60774  1.0000
  H   H2747     1.0  0.36177  0.25096  0.60284  1.0000
  C   C1720     1.0  0.48307  0.29386  0.60077  1.0000
  H   H2748     1.0  0.45085  0.29813  0.59159  1.0000
  C   C1721     1.0  0.46091  0.29268  0.59490  1.0000
  C   C1722     1.0  0.46484  0.27762  0.59761  1.0000
  C   C1723     1.0  0.47805  0.27072  0.60167  1.0000
  C   C1724     1.0  0.48709  0.27880  0.60339  1.0000
  H   H2749     1.0  0.64084  0.30023  0.54083  1.0000
  H   H2750     1.0  0.33625  0.18378  0.61776  1.0000
  H   H2751     1.0  0.48113  0.25906  0.60379  1.0000
  H   H2752     1.0  0.49701  0.27336  0.60696  1.0000
  C   C1725     1.0  0.56823  0.28672  0.55570  1.0000
  C   C1726     1.0  0.56609  0.30160  0.55434  1.0000
  H   H2753     1.0  0.32870  0.30183  0.50649  1.0000
  C   C1727     1.0  0.58074  0.30376  0.52989  1.0000
  C   C1728     1.0  0.58288  0.28886  0.53121  1.0000
  C   C1729     1.0  0.57659  0.28036  0.54411  1.0000
  H   H2754     1.0  0.60865  0.24356  0.60239  1.0000
  H   H2755     1.0  0.49675  0.30321  0.57052  1.0000
  H   H2756     1.0  0.58936  0.28392  0.52231  1.0000
  H   H2757     1.0  0.57825  0.26884  0.54511  1.0000
  H   H2758     1.0  0.64494  0.26737  0.51097  1.0000
  H   H2759     1.0  0.33756  0.25400  0.64575  1.0000
  H   H2760     1.0  0.33763  0.25099  0.70188  1.0000
  C   C1730     1.0  0.61345  0.31182  0.53691  1.0000
  H   H2761     1.0  0.36583  0.31127  0.66409  1.0000
  C   C1731     1.0  0.49945  0.29540  0.56331  1.0000
  C   C1732     1.0  0.58091  0.27621  0.65873  1.0000
  C   C1733     1.0  0.57322  0.28707  0.64945  1.0000
  C   C1734     1.0  0.56267  0.28409  0.64416  1.0000
  C   C1735     1.0  0.55960  0.27029  0.64839  1.0000
  C   C1736     1.0  0.56726  0.25945  0.65771  1.0000
  C   C1737     1.0  0.57798  0.26237  0.66276  1.0000
  H   H2762     1.0  0.57554  0.29773  0.64621  1.0000
  H   H2763     1.0  0.55681  0.29251  0.63695  1.0000
  H   H2764     1.0  0.56490  0.24877  0.66102  1.0000
  H   H2765     1.0  0.58368  0.25401  0.67012  1.0000
  H   H2766     1.0  0.45825  0.31486  0.61951  1.0000
  H   H2767     1.0  0.45914  0.28806  0.62544  1.0000
  H   H2768     1.0  0.35267  0.20115  0.60784  1.0000
  H   H2769     1.0  0.38798  0.23487  0.69288  1.0000
  H   H2770     1.0  0.44907  0.28008  0.64234  1.0000
  C   C1738     1.0  0.60756  0.31134  0.64736  1.0000
  H   H2771     1.0  0.60519  0.30435  0.56567  1.0000
  C   C1739     1.0  0.64047  0.25531  0.59143  1.0000
  H   H2772     1.0  0.51171  0.27140  0.58043  1.0000
  H   H2773     1.0  0.37574  0.25770  0.66870  1.0000
  H   H2774     1.0  0.54696  0.30457  0.66212  1.0000
  H   H2775     1.0  0.36353  0.23452  0.66305  1.0000
  H   H2776     1.0  0.65338  0.24013  0.69934  1.0000
  H   H2777     1.0  0.33328  0.30106  0.59028  1.0000
  H   H2778     1.0  0.39246  0.21999  0.68402  1.0000
  C   C1740     1.0  0.37436  0.23179  0.66573  1.0000
  C   C1741     1.0  0.33097  0.20635  0.63028  1.0000
  H   H2779     1.0  0.42669  0.29785  0.63672  1.0000
  H   H2780     1.0  0.44943  0.30094  0.65963  1.0000
  H   H2781     1.0  0.36842  0.27392  0.53341  1.0000
  C   C1742     1.0  0.63428  0.29274  0.54061  1.0000
  H   H2782     1.0  0.43742  0.30508  0.61976  1.0000
  S   S703      1.0  0.33937  0.24114  0.52273  1.0000
  H   H2783     1.0  0.62045  0.28996  0.56858  1.0000
  S   S704      1.0  0.61180  0.30867  0.70168  1.0000
  H   H2784     1.0  0.60652  0.23317  0.62062  1.0000
  C   C1743     1.0  0.44048  0.30358  0.65385  1.0000
  H   H2785     1.0  0.33229  0.27531  0.60058  1.0000
  H   H2786     1.0  0.52149  0.30699  0.56208  1.0000
  C   C1744     1.0  0.45438  0.31448  0.63131  1.0000
  C   C1745     1.0  0.35604  0.28118  0.58112  1.0000
  C   C1746     1.0  0.36849  0.25174  0.67768  1.0000
  C   C1747     1.0  0.58034  0.25203  0.60202  1.0000
  H   H2787     1.0  0.58686  0.25875  0.59304  1.0000
  H   H2788     1.0  0.53555  0.29395  0.55391  1.0000
  C   C1748     1.0  0.33170  0.26028  0.69556  1.0000
  C   C1749     1.0  0.63527  0.23693  0.61873  1.0000
  C   C1750     1.0  0.57774  0.23809  0.62654  1.0000
  S   S705      1.0  0.64410  0.26690  0.57449  1.0000
  C   C1751     1.0  0.57227  0.31010  0.54144  1.0000
  S   S706      1.0  0.35944  0.31675  0.69335  1.0000
  N   N174      1.0  0.51484  0.28813  0.56136  1.0000
  H   H2789     1.0  0.61486  0.31062  0.52564  1.0000
  H   H2790     1.0  0.57924  0.24300  0.59784  1.0000
  H   H2791     1.0  0.52956  0.27238  0.54997  1.0000
  C   C1752     1.0  0.45511  0.28883  0.63697  1.0000
  Fe  Fe357     1.0  0.62919  0.28174  0.48587  1.0000
  H   H2792     1.0  0.51579  0.28385  0.54073  1.0000
  H   H2793     1.0  0.62122  0.28947  0.66444  1.0000
  H   H2794     1.0  0.52966  0.27470  0.57459  1.0000
  C   C1753     1.0  0.61075  0.28718  0.54672  1.0000
  C   C1754     1.0  0.61674  0.30022  0.56112  1.0000
  C   C1755     1.0  0.36048  0.29818  0.64587  1.0000
  H   H2795     1.0  0.59262  0.25547  0.62991  1.0000
  S   S707      1.0  0.36584  0.24422  0.54669  1.0000
  N   N175      1.0  0.37366  0.23596  0.67933  1.0000
  C   C1756     1.0  0.52386  0.29904  0.55510  1.0000
  H   H2796     1.0  0.33628  0.23702  0.48813  1.0000
  N   N176      1.0  0.44591  0.30318  0.63837  1.0000
  H   H2797     1.0  0.39064  0.31176  0.63784  1.0000
  C   C1757     1.0  0.62751  0.25122  0.61643  1.0000
  H   H2798     1.0  0.64124  0.31581  0.50951  1.0000
  H   H2799     1.0  0.49233  0.28749  0.56836  1.0000
  C   C1758     1.0  0.34320  0.20967  0.60520  1.0000
  S   S708      1.0  0.34872  0.28772  0.71457  1.0000
  H   H2800     1.0  0.51138  0.26971  0.55597  1.0000
  H   H2801     1.0  0.36726  0.21663  0.69292  1.0000
  C   C1759     1.0  0.63000  0.26037  0.60274  1.0000
  N   N177      1.0  0.34138  0.28405  0.57847  1.0000
  C   C1760     1.0  0.64537  0.23175  0.60730  1.0000
  Fe  Fe358     1.0  0.37107  0.27541  0.70802  1.0000
  H   H2802     1.0  0.38152  0.23751  0.65642  1.0000
  C   C1761     1.0  0.33318  0.27400  0.58943  1.0000
  H   H2803     1.0  0.43327  0.29585  0.65938  1.0000
  H   H2804     1.0  0.62531  0.14456  0.72245  1.0000
  H   H2805     1.0  0.60631  0.29876  0.67591  1.0000
  H   H2806     1.0  0.56438  0.31458  0.67759  1.0000
  S   S709      1.0  0.37244  0.28488  0.68447  1.0000
  H   H2807     1.0  0.34705  0.25719  0.72070  1.0000
  H   H2808     1.0  0.63774  0.31452  0.65565  1.0000
  S   S710      1.0  0.33364  0.30204  0.67932  1.0000
  C   C1762     1.0  0.38233  0.25120  0.56147  1.0000
  C   C1763     1.0  0.64814  0.24099  0.59375  1.0000
  C   C1764     1.0  0.65216  0.13398  0.72685  1.0000
  H   H2809     1.0  0.39592  0.23734  0.67392  1.0000
  H   H2810     1.0  0.38297  0.24024  0.56768  1.0000
  S   S711      1.0  0.53211  0.30861  0.58731  1.0000
  H   H2811     1.0  0.34867  0.30262  0.64738  1.0000
  S   S712      1.0  0.33426  0.24643  0.62059  1.0000
  H   H2812     1.0  0.34527  0.22022  0.60541  1.0000
  C   C1765     1.0  0.32726  0.19286  0.61492  1.0000
  H   H2813     1.0  0.36190  0.26999  0.58026  1.0000
  H   H2814     1.0  0.34266  0.21011  0.59390  1.0000
  H   H2815     1.0  0.61937  0.25515  0.62511  1.0000
  C   C1766     1.0  0.64955  0.19777  0.71952  1.0000
  H   H2816     1.0  0.63848  0.28202  0.54711  1.0000
  N   N178      1.0  0.61882  0.29800  0.54633  1.0000
  H   H2817     1.0  0.37006  0.31361  0.61924  1.0000
  C   C1767     1.0  0.33410  0.29909  0.57942  1.0000
  H   H2818     1.0  0.33854  0.26254  0.58909  1.0000
  H   H2819     1.0  0.61197  0.30134  0.64299  1.0000
  H   H2820     1.0  0.62402  0.27142  0.60101  1.0000
  H   H2821     1.0  0.63638  0.30387  0.64399  1.0000
  H   H2822     1.0  0.33981  0.19744  0.63377  1.0000
  C   C1768     1.0  0.35083  0.24664  0.72693  1.0000
  H   H2823     1.0  0.35586  0.28243  0.59211  1.0000
  H   H2824     1.0  0.65363  0.28821  0.69167  1.0000
  H   H2825     1.0  0.46399  0.31262  0.63597  1.0000
  H   H2826     1.0  0.65121  0.22064  0.60896  1.0000
  H   H2827     1.0  0.65195  0.13953  0.71540  1.0000
  H   H2828     1.0  0.64319  0.20490  0.68566  1.0000
  H   H2829     1.0  0.65538  0.25392  0.73013  1.0000
  H   H2830     1.0  0.60173  0.31594  0.54075  1.0000
  C   C1769     1.0  0.33569  0.27358  0.69211  1.0000
  H   H2831     1.0  0.34489  0.27432  0.69551  1.0000
  H   H2832     1.0  0.52980  0.30964  0.67356  1.0000
  H   H2833     1.0  0.59910  0.29060  0.55138  1.0000
  C   C1770     1.0  0.36559  0.24126  0.72614  1.0000
  H   H2834     1.0  0.65611  0.23692  0.58509  1.0000
  S   S713      1.0  0.33733  0.26767  0.48212  1.0000
  C   C1771     1.0  0.65552  0.25424  0.49522  1.0000
  C   C1772     1.0  0.65469  0.26016  0.50698  1.0000
  H   H2835     1.0  0.65773  0.26354  0.71170  1.0000
  Fe  Fe359     1.0  0.63570  0.31122  0.48147  1.0000
  H   H2836     1.0  0.56621  0.31827  0.65835  1.0000
  S   S714      1.0  0.65014  0.31774  0.69536  1.0000
  C   C1773     1.0  0.33352  0.27594  0.75081  1.0000
  C   C1774     1.0  0.35905  0.27020  0.74997  1.0000
  H   H2837     1.0  0.63856  0.29368  0.79002  1.0000
  H   H2838     1.0  0.59682  0.29582  0.74271  1.0000
  H   H2839     1.0  0.36010  0.28140  0.74421  1.0000
  S   S715      1.0  0.63280  0.30183  0.76136  1.0000
  S   S716      1.0  0.33369  0.21370  0.75506  1.0000
  N   N179      1.0  0.34469  0.26997  0.75953  1.0000
  H   H2840     1.0  0.33155  0.27902  0.77762  1.0000
  C   C1775     1.0  0.34093  0.23817  0.73552  1.0000
  H   H2841     1.0  0.34560  0.24793  0.75925  1.0000
  C   C1776     1.0  0.60055  0.30566  0.74233  1.0000
  H   H2842     1.0  0.32967  0.24214  0.73550  1.0000
  H   H2843     1.0  0.61076  0.30207  0.74633  1.0000
  H   H2844     1.0  0.33306  0.25439  0.77430  1.0000
  C   C1777     1.0  0.34381  0.25494  0.76706  1.0000
  H   H2845     1.0  0.36437  0.20825  0.74844  1.0000
  H   H2846     1.0  0.34292  0.29028  0.76488  1.0000
  H   H2847     1.0  0.36115  0.26375  0.74160  1.0000
  C   C1778     1.0  0.34575  0.22441  0.74360  1.0000
  N   N180      1.0  0.58959  0.31539  0.75088  1.0000
  Fe  Fe360     1.0  0.63996  0.30669  0.73728  1.0000
  C   C1779     1.0  0.64633  0.28879  0.76882  1.0000
  C   C1780     1.0  0.64680  0.28714  0.78330  1.0000
  S   S717      1.0  0.34794  0.31293  0.73636  1.0000
  H   H2848     1.0  0.33488  0.26948  0.74264  1.0000
  H   H2849     1.0  0.36777  0.26565  0.75615  1.0000
  H   H2850     1.0  0.65658  0.28140  0.74903  1.0000
  H   H2851     1.0  0.63109  0.13702  0.75995  1.0000
  C   C1781     1.0  0.34234  0.27887  0.77027  1.0000
  C   C1782     1.0  0.36053  0.21894  0.74242  1.0000
  H   H2852     1.0  0.64926  0.15722  0.73756  1.0000
  H   H2853     1.0  0.35053  0.27470  0.77709  1.0000
  H   H2854     1.0  0.58279  0.29782  0.76750  1.0000
  H   H2855     1.0  0.33384  0.28728  0.74506  1.0000
  H   H2856     1.0  0.35203  0.25010  0.77383  1.0000
  C   C1783     1.0  0.37041  0.22731  0.73373  1.0000
  C   C1784     1.0  0.65698  0.28031  0.76018  1.0000
  H   H2857     1.0  0.62996  0.16101  0.74266  1.0000
  C   C1785     1.0  0.63934  0.15577  0.73526  1.0000
  H   H2858     1.0  0.38182  0.22302  0.73305  1.0000
  H   H2859     1.0  0.64098  0.12087  0.75355  1.0000
  C   C1786     1.0  0.64046  0.13263  0.75196  1.0000
  H   H2860     1.0  0.65036  0.13353  0.75477  1.0000
  H   H2861     1.0  0.57188  0.31011  0.74594  1.0000
  H   H2862     1.0  0.59671  0.30450  0.77064  1.0000
  C   C1787     1.0  0.58673  0.30779  0.76620  1.0000
  H   H2863     1.0  0.57850  0.31477  0.77303  1.0000
  H   H2864     1.0  0.61651  0.14359  0.74113  1.0000
  N   N181      1.0  0.63954  0.14032  0.73696  1.0000
  H   H2865     1.0  0.62612  0.12735  0.73486  1.0000
  C   C1788     1.0  0.62626  0.13888  0.73372  1.0000
  H   H2866     1.0  0.60315  0.31111  0.73079  1.0000
  H   H2867     1.0  0.65252  0.54080  0.21579  1.0000
  Fe  Fe361     1.0  0.44251  0.62776  0.22255  1.0000
  C   C1789     1.0  0.46570  0.33776  0.19190  1.0000
  S   S718      1.0  0.42849  0.62289  0.21031  1.0000
  H   H2868     1.0  0.64133  0.56720  0.22944  1.0000
  H   H2869     1.0  0.41116  0.35055  0.22490  1.0000
  C   C1790     1.0  0.49780  0.37309  0.17117  1.0000
  H   H2870     1.0  0.60836  0.33681  0.17571  1.0000
  H   H2871     1.0  0.38887  0.33654  0.14370  1.0000
  H   H2872     1.0  0.37032  0.57863  0.22545  1.0000
  H   H2873     1.0  0.41651  0.59392  0.21702  1.0000
  H   H2874     1.0  0.39053  0.35394  0.20465  1.0000
  S   S719      1.0  0.36476  0.55699  0.18345  1.0000
  H   H2875     1.0  0.48511  0.34016  0.19650  1.0000
  Fe  Fe362     1.0  0.35502  0.53839  0.19774  1.0000
  S   S720      1.0  0.35979  0.51768  0.18938  1.0000
  Fe  Fe363     1.0  0.36922  0.56050  0.20342  1.0000
  S   S721      1.0  0.39034  0.56681  0.20145  1.0000
  H   H2876     1.0  0.41481  0.34168  0.21014  1.0000
  H   H2877     1.0  0.35439  0.34615  0.13110  1.0000
  C   C1791     1.0  0.35769  0.36152  0.14853  1.0000
  H   H2878     1.0  0.41191  0.35627  0.18559  1.0000
  C   C1792     1.0  0.48892  0.62881  0.22529  1.0000
  H   H2879     1.0  0.57399  0.42957  0.21760  1.0000
  H   H2880     1.0  0.56242  0.42534  0.20866  1.0000
  Fe  Fe364     1.0  0.62350  0.53950  0.22043  1.0000
  H   H2881     1.0  0.36293  0.33615  0.16773  1.0000
  H   H2882     1.0  0.49766  0.40076  0.15782  1.0000
  H   H2883     1.0  0.58175  0.35954  0.18316  1.0000
  H   H2884     1.0  0.33490  0.32044  0.11454  1.0000
  S   S722      1.0  0.54314  0.34050  0.17835  1.0000
  H   H2885     1.0  0.35016  0.33601  0.15783  1.0000
  C   C1793     1.0  0.51895  0.36841  0.15244  1.0000
  H   H2886     1.0  0.41408  0.57781  0.20253  1.0000
  Fe  Fe365     1.0  0.52088  0.33564  0.18678  1.0000
  S   S723      1.0  0.50762  0.33624  0.17069  1.0000
  N   N182      1.0  0.32996  0.33785  0.09676  1.0000
  C   C1794     1.0  0.56523  0.38446  0.19875  1.0000
  S   S724      1.0  0.54630  0.33306  0.21216  1.0000
  H   H2887     1.0  0.62051  0.57576  0.21749  1.0000
  S   S725      1.0  0.33494  0.58916  0.17221  1.0000
  C   C1795     1.0  0.64364  0.57822  0.22546  1.0000
  H   H2888     1.0  0.65146  0.57830  0.21494  1.0000
  H   H2889     1.0  0.48960  0.32994  0.15545  1.0000
  H   H2890     1.0  0.58491  0.47673  0.22305  1.0000
  H   H2891     1.0  0.38443  0.60859  0.20297  1.0000
  H   H2892     1.0  0.51338  0.39728  0.14388  1.0000
  H   H2893     1.0  0.36932  0.35480  0.12246  1.0000
  Fe  Fe366     1.0  0.62575  0.39846  0.21213  1.0000
  H   H2894     1.0  0.54015  0.41728  0.22286  1.0000
  S   S726      1.0  0.64337  0.39304  0.19329  1.0000
  Fe  Fe367     1.0  0.55011  0.32089  0.19473  1.0000
  C   C1796     1.0  0.36172  0.33564  0.15694  1.0000
  H   H2895     1.0  0.38925  0.31923  0.09639  1.0000
  S   S727      1.0  0.60299  0.40907  0.21026  1.0000
  H   H2896     1.0  0.59228  0.35884  0.20370  1.0000
  C   C1797     1.0  0.38131  0.61814  0.19451  1.0000
  C   C1798     1.0  0.54648  0.43962  0.22943  1.0000
  S   S728      1.0  0.44058  0.33571  0.18629  1.0000
  S   S729      1.0  0.62770  0.41384  0.22438  1.0000
  C   C1799     1.0  0.60719  0.34133  0.18531  1.0000
  C   C1800     1.0  0.58141  0.34795  0.18767  1.0000
  Fe  Fe368     1.0  0.39338  0.33383  0.17982  1.0000
  S   S730      1.0  0.37198  0.34870  0.18583  1.0000
  C   C1801     1.0  0.39454  0.60504  0.17582  1.0000
  S   S731      1.0  0.41193  0.33939  0.16204  1.0000
  C   C1802     1.0  0.39166  0.36339  0.20817  1.0000
  C   C1803     1.0  0.33440  0.56023  0.15892  1.0000
  H   H2897     1.0  0.51251  0.38975  0.17659  1.0000
  H   H2898     1.0  0.35803  0.36284  0.15935  1.0000
  C   C1804     1.0  0.40605  0.61956  0.18368  1.0000
  H   H2899     1.0  0.49120  0.37016  0.16522  1.0000
  Fe  Fe369     1.0  0.34628  0.42852  0.17931  1.0000
  S   S732      1.0  0.36905  0.41547  0.17665  1.0000
  S   S733      1.0  0.33963  0.45042  0.16541  1.0000
  C   C1805     1.0  0.60207  0.48131  0.22981  1.0000
  H   H2900     1.0  0.52805  0.37262  0.14451  1.0000
  H   H2901     1.0  0.49773  0.39061  0.14504  1.0000
  Fe  Fe370     1.0  0.42606  0.32664  0.17785  1.0000
  S   S734      1.0  0.33038  0.41905  0.17453  1.0000
  N   N183      1.0  0.40686  0.36463  0.20487  1.0000
  C   C1806     1.0  0.37126  0.36728  0.18271  1.0000
  C   C1807     1.0  0.35915  0.37596  0.18971  1.0000
  C   C1808     1.0  0.35834  0.39080  0.18771  1.0000
  C   C1809     1.0  0.36969  0.39701  0.17875  1.0000
  C   C1810     1.0  0.38181  0.38833  0.17170  1.0000
  C   C1811     1.0  0.38257  0.37348  0.17360  1.0000
  H   H2902     1.0  0.35052  0.37115  0.19699  1.0000
  H   H2903     1.0  0.34909  0.39737  0.19342  1.0000
  H   H2904     1.0  0.39056  0.39315  0.16469  1.0000
  H   H2905     1.0  0.39190  0.36688  0.16807  1.0000
  H   H2906     1.0  0.39827  0.59531  0.18387  1.0000
  C   C1812     1.0  0.40640  0.59071  0.21881  1.0000
  H   H2907     1.0  0.49399  0.62968  0.21395  1.0000
  N   N184      1.0  0.51002  0.37900  0.16121  1.0000
  S   S735      1.0  0.63036  0.55407  0.19922  1.0000
  C   C1813     1.0  0.64339  0.37705  0.18854  1.0000
  C   C1814     1.0  0.63409  0.36801  0.19702  1.0000
  C   C1815     1.0  0.63532  0.35455  0.19390  1.0000
  H   H2908     1.0  0.61633  0.33523  0.19061  1.0000
  Fe  Fe371     1.0  0.60417  0.42281  0.22479  1.0000
  H   H2909     1.0  0.62849  0.34740  0.20086  1.0000
  S   S736      1.0  0.33289  0.55216  0.20227  1.0000
  H   H2910     1.0  0.35257  0.33536  0.08724  1.0000
  H   H2911     1.0  0.42685  0.35216  0.21058  1.0000
  H   H2912     1.0  0.40995  0.61026  0.19204  1.0000
  H   H2913     1.0  0.58186  0.34292  0.17861  1.0000
  C   C1816     1.0  0.33376  0.50853  0.19924  1.0000
  H   H2914     1.0  0.62613  0.37124  0.20613  1.0000
  C   C1817     1.0  0.48920  0.33507  0.17560  1.0000
  C   C1818     1.0  0.48297  0.33204  0.16570  1.0000
  C   C1819     1.0  0.46823  0.33167  0.16896  1.0000
  C   C1820     1.0  0.45948  0.33465  0.18205  1.0000
  H   H2915     1.0  0.61337  0.59471  0.21230  1.0000
  C   C1821     1.0  0.48049  0.33782  0.18878  1.0000
  H   H2916     1.0  0.38630  0.64136  0.17318  1.0000
  H   H2917     1.0  0.35768  0.54087  0.16517  1.0000
  C   C1822     1.0  0.65208  0.56871  0.18664  1.0000
  H   H2918     1.0  0.63063  0.58663  0.20284  1.0000
  H   H2919     1.0  0.59721  0.49264  0.22927  1.0000
  H   H2920     1.0  0.38693  0.36204  0.21996  1.0000
  H   H2921     1.0  0.32976  0.51759  0.20452  1.0000
  S   S737      1.0  0.64717  0.63357  0.20399  1.0000
  H   H2922     1.0  0.60067  0.34192  0.21352  1.0000
  S   S738      1.0  0.60422  0.52945  0.22604  1.0000
  N   N185      1.0  0.33868  0.54529  0.15661  1.0000
  C   C1823     1.0  0.38184  0.34714  0.14533  1.0000
  H   H2923     1.0  0.35794  0.52862  0.15453  1.0000
  H   H2924     1.0  0.56700  0.39024  0.18760  1.0000
  Fe  Fe372     1.0  0.34306  0.57092  0.18954  1.0000
  H   H2925     1.0  0.61523  0.64140  0.20822  1.0000
  S   S739      1.0  0.34809  0.57573  0.20845  1.0000
  S   S740      1.0  0.43416  0.65156  0.21700  1.0000
  H   H2926     1.0  0.57245  0.41123  0.22017  1.0000
  H   H2927     1.0  0.64173  0.60420  0.20747  1.0000
  H   H2928     1.0  0.58378  0.64359  0.20693  1.0000
  Fe  Fe373     1.0  0.34000  0.55571  0.22073  1.0000
  H   H2929     1.0  0.54201  0.44295  0.21948  1.0000
  H   H2930     1.0  0.52685  0.59353  0.21539  1.0000
  C   C1824     1.0  0.34282  0.33223  0.08641  1.0000
  N   N186      1.0  0.36672  0.34757  0.14552  1.0000
  H   H2931     1.0  0.34627  0.36234  0.14835  1.0000
  C   C1825     1.0  0.59511  0.47228  0.22633  1.0000
  S   S741      1.0  0.40704  0.32264  0.19600  1.0000
  H   H2932     1.0  0.36143  0.37077  0.14036  1.0000
  C   C1826     1.0  0.36565  0.34597  0.13132  1.0000
  C   C1827     1.0  0.38039  0.58193  0.22356  1.0000
  H   H2933     1.0  0.34518  0.32021  0.08856  1.0000
  Fe  Fe374     1.0  0.53790  0.35239  0.19635  1.0000
  H   H2934     1.0  0.49062  0.38088  0.17776  1.0000
  C   C1828     1.0  0.38762  0.63105  0.16985  1.0000
  H   H2935     1.0  0.52365  0.35823  0.15935  1.0000
  H   H2936     1.0  0.62158  0.64650  0.18911  1.0000
  C   C1829     1.0  0.34804  0.50599  0.19154  1.0000
  C   C1830     1.0  0.64726  0.65142  0.19486  1.0000
  C   C1831     1.0  0.65453  0.35954  0.17330  1.0000
  H   H2937     1.0  0.39557  0.63142  0.15939  1.0000
  C   C1832     1.0  0.34400  0.48486  0.18569  1.0000
  C   C1833     1.0  0.35307  0.49411  0.18480  1.0000
  S   S742      1.0  0.64786  0.33293  0.17892  1.0000
  H   H2938     1.0  0.52334  0.37193  0.17696  1.0000
  H   H2939     1.0  0.34805  0.47576  0.18045  1.0000
  H   H2940     1.0  0.36408  0.49203  0.17883  1.0000
  C   C1834     1.0  0.59186  0.34720  0.20754  1.0000
  H   H2941     1.0  0.58036  0.39331  0.20440  1.0000
  H   H2942     1.0  0.37969  0.62782  0.19901  1.0000
  H   H2943     1.0  0.46358  0.32937  0.16123  1.0000
  C   C1835     1.0  0.50445  0.39252  0.15155  1.0000
  N   N187      1.0  0.63041  0.58939  0.22391  1.0000
  S   S743      1.0  0.51495  0.34943  0.20334  1.0000
  C   C1836     1.0  0.41525  0.35173  0.21303  1.0000
  H   H2944     1.0  0.62460  0.61247  0.21703  1.0000
  C   C1837     1.0  0.64740  0.55742  0.19749  1.0000
  N   N188      1.0  0.39238  0.61845  0.18096  1.0000
  H   H2945     1.0  0.50159  0.36306  0.17882  1.0000
  S   S744      1.0  0.36156  0.54055  0.21727  1.0000
  H   H2946     1.0  0.33802  0.53374  0.14116  1.0000
  H   H2947     1.0  0.38436  0.60369  0.17398  1.0000
  H   H2948     1.0  0.37075  0.61758  0.19286  1.0000
  H   H2949     1.0  0.41468  0.61981  0.17371  1.0000
  H   H2950     1.0  0.40274  0.60487  0.16556  1.0000
  H   H2951     1.0  0.60853  0.35271  0.18130  1.0000
  H   H2952     1.0  0.38620  0.35563  0.13652  1.0000
  H   H2953     1.0  0.34197  0.33587  0.11281  1.0000
  C   C1838     1.0  0.40502  0.58154  0.21065  1.0000
  C   C1839     1.0  0.39196  0.57727  0.21285  1.0000
  H   H2954     1.0  0.33704  0.56078  0.16906  1.0000
  H   H2955     1.0  0.40480  0.62956  0.18759  1.0000
  C   C1840     1.0  0.57042  0.37898  0.22278  1.0000
  H   H2956     1.0  0.32926  0.38816  0.15677  1.0000
  H   H2957     1.0  0.38292  0.34885  0.15569  1.0000
  H   H2958     1.0  0.34558  0.32238  0.14095  1.0000
  H   H2959     1.0  0.42447  0.36603  0.18642  1.0000
  H   H2960     1.0  0.57070  0.34759  0.19502  1.0000
  H   H2961     1.0  0.38494  0.37319  0.20259  1.0000
  C   C1841     1.0  0.64571  0.35020  0.18216  1.0000
  S   S745      1.0  0.40192  0.64482  0.22739  1.0000
  C   C1842     1.0  0.51887  0.38195  0.16966  1.0000
  C   C1843     1.0  0.59227  0.32507  0.20103  1.0000
  C   C1844     1.0  0.65347  0.37287  0.17656  1.0000
  C   C1845     1.0  0.33487  0.54490  0.14318  1.0000
  S   S746      1.0  0.54622  0.37300  0.19134  1.0000
  H   H2962     1.0  0.64544  0.57493  0.17898  1.0000
  H   H2963     1.0  0.37239  0.33558  0.12874  1.0000
  C   C1846     1.0  0.40771  0.37771  0.20903  1.0000
  N   N189      1.0  0.59319  0.34039  0.19538  1.0000
  H   H2964     1.0  0.59059  0.56662  0.22847  1.0000
  S   S747      1.0  0.33210  0.43391  0.20011  1.0000
  H   H2965     1.0  0.52821  0.38642  0.16256  1.0000
  H   H2966     1.0  0.36793  0.32492  0.15477  1.0000
  C   C1847     1.0  0.55552  0.37514  0.20355  1.0000
  H   H2967     1.0  0.51250  0.36538  0.14641  1.0000
  H   H2968     1.0  0.58712  0.59302  0.21842  1.0000
  H   H2969     1.0  0.45905  0.34010  0.20205  1.0000
  C   C1848     1.0  0.65606  0.54938  0.20731  1.0000
  H   H2970     1.0  0.33720  0.64138  0.16253  1.0000
  H   H2971     1.0  0.34039  0.55196  0.13363  1.0000
  C   C1849     1.0  0.57279  0.38626  0.20828  1.0000
  H   H2972     1.0  0.37708  0.63086  0.16787  1.0000
  H   H2973     1.0  0.36054  0.54668  0.14593  1.0000
  H   H2974     1.0  0.58163  0.32397  0.20829  1.0000
  C   C1850     1.0  0.32971  0.48744  0.19328  1.0000
  H   H2975     1.0  0.55374  0.44700  0.22835  1.0000
  C   C1851     1.0  0.41283  0.36572  0.18921  1.0000
  C   C1852     1.0  0.32701  0.35380  0.09340  1.0000
  H   H2976     1.0  0.33419  0.52442  0.16778  1.0000
  Fe  Fe375     1.0  0.52398  0.32890  0.21777  1.0000
  H   H2977     1.0  0.54584  0.36059  0.22186  1.0000
  C   C1853     1.0  0.33257  0.33242  0.11160  1.0000
  H   H2978     1.0  0.51957  0.61055  0.22072  1.0000
  H   H2979     1.0  0.58147  0.34655  0.21544  1.0000
  C   C1854     1.0  0.33593  0.31956  0.14825  1.0000
  C   C1855     1.0  0.35439  0.54015  0.15544  1.0000
  H   H2980     1.0  0.40329  0.37727  0.22078  1.0000
  C   C1856     1.0  0.63425  0.60367  0.21826  1.0000
  H   H2981     1.0  0.40716  0.37563  0.18272  1.0000
  C   C1857     1.0  0.33107  0.53586  0.16899  1.0000
  H   H2982     1.0  0.59289  0.65096  0.18045  1.0000
  H   H2983     1.0  0.53872  0.60452  0.21553  1.0000
  S   S748      1.0  0.46686  0.62187  0.21819  1.0000
  H   H2984     1.0  0.33638  0.35792  0.09364  1.0000
  C   C1858     1.0  0.55338  0.36769  0.21796  1.0000
  H   H2985     1.0  0.34008  0.56771  0.14997  1.0000
  C   C1859     1.0  0.52854  0.60088  0.22138  1.0000
  H   H2986     1.0  0.38827  0.64878  0.20430  1.0000
  C   C1860     1.0  0.61197  0.64416  0.19763  1.0000
  H   H2987     1.0  0.40147  0.38763  0.20303  1.0000
  C   C1861     1.0  0.56631  0.42258  0.21890  1.0000
  C   C1862     1.0  0.60134  0.45754  0.22705  1.0000
  H   H2988     1.0  0.33252  0.37760  0.18156  1.0000
  C   C1863     1.0  0.32814  0.65044  0.16522  1.0000
  H   H2989     1.0  0.40815  0.32299  0.10627  1.0000
  H   H2990     1.0  0.33372  0.53599  0.17927  1.0000
  C   C1864     1.0  0.56065  0.36974  0.22754  1.0000
  H   H2991     1.0  0.60936  0.63442  0.19611  1.0000
  H   H2992     1.0  0.41904  0.37898  0.20663  1.0000
  C   C1865     1.0  0.32465  0.49934  0.20003  1.0000
  H   H2993     1.0  0.63979  0.60615  0.22555  1.0000
  H   H2994     1.0  0.65525  0.43026  0.22018  1.0000
  H   H2995     1.0  0.34137  0.33635  0.07507  1.0000
  Fe  Fe376     1.0  0.41862  0.64658  0.20704  1.0000
  C   C1866     1.0  0.62341  0.58653  0.21370  1.0000
  C   C1867     1.0  0.58175  0.58905  0.22936  1.0000
  S   S749      1.0  0.59251  0.44623  0.22284  1.0000
  S   S750      1.0  0.63755  0.51943  0.23020  1.0000
  H   H2996     1.0  0.58953  0.65029  0.21927  1.0000
  H   H2997     1.0  0.59357  0.31952  0.19211  1.0000
  C   C1868     1.0  0.47520  0.62551  0.23025  1.0000
  C   C1869     1.0  0.39480  0.59548  0.22942  1.0000
  S   S751      1.0  0.56964  0.61750  0.23002  1.0000
  H   H2998     1.0  0.60072  0.31908  0.20729  1.0000
  S   S752      1.0  0.32443  0.34841  0.14435  1.0000
  Fe  Fe377     1.0  0.63020  0.52805  0.25036  1.0000
  S   S753      1.0  0.65384  0.32224  0.47861  1.0000
  H   H2999     1.0  0.47900  0.63756  0.29929  1.0000
  C   C1870     1.0  0.62384  0.35691  0.38924  1.0000
  H   H3000     1.0  0.47108  0.62482  0.26595  1.0000
  C   C1871     1.0  0.58370  0.57410  0.23504  1.0000
  H   H3001     1.0  0.63845  0.39797  0.36103  1.0000
  H   H3002     1.0  0.50762  0.65163  0.31590  1.0000
  S   S754      1.0  0.61129  0.51758  0.25877  1.0000
  S   S755      1.0  0.61787  0.54905  0.23999  1.0000
  H   H3003     1.0  0.62987  0.34179  0.41500  1.0000
  Fe  Fe378     1.0  0.59945  0.53787  0.24634  1.0000
  S   S756      1.0  0.57798  0.55020  0.25605  1.0000
  H   H3004     1.0  0.59205  0.46145  0.27507  1.0000
  H   H3005     1.0  0.34035  0.63830  0.44547  1.0000
  H   H3006     1.0  0.55021  0.40329  0.23446  1.0000
  S   S757      1.0  0.63171  0.39168  0.26252  1.0000
  H   H3007     1.0  0.65509  0.40222  0.24285  1.0000
  C   C1872     1.0  0.64212  0.40418  0.27838  1.0000
  C   C1873     1.0  0.63351  0.40642  0.26836  1.0000
  C   C1874     1.0  0.62680  0.42046  0.26273  1.0000
  C   C1875     1.0  0.62863  0.43218  0.26713  1.0000
  H   H3008     1.0  0.65052  0.41411  0.29059  1.0000
  H   H3009     1.0  0.63608  0.33283  0.37898  1.0000
  C   C1876     1.0  0.48130  0.63965  0.30899  1.0000
  H   H3010     1.0  0.57077  0.64873  0.27054  1.0000
  H   H3011     1.0  0.62816  0.37705  0.46659  1.0000
  Fe  Fe379     1.0  0.61789  0.50999  0.23787  1.0000
  H   H3012     1.0  0.55143  0.42186  0.25446  1.0000
  H   H3013     1.0  0.56780  0.42731  0.24398  1.0000
  C   C1877     1.0  0.64892  0.56501  0.26214  1.0000
  H   H3014     1.0  0.45189  0.64296  0.27384  1.0000
  H   H3015     1.0  0.64846  0.48741  0.25835  1.0000
  N   N190      1.0  0.55433  0.42440  0.23147  1.0000
  Fe  Fe380     1.0  0.54113  0.64446  0.26945  1.0000
  H   H3016     1.0  0.48164  0.62950  0.31741  1.0000
  H   H3017     1.0  0.60518  0.33167  0.41072  1.0000
  H   H3018     1.0  0.49834  0.63778  0.32714  1.0000
  C   C1878     1.0  0.56561  0.59353  0.25174  1.0000
  C   C1879     1.0  0.56729  0.57861  0.25731  1.0000
  H   H3019     1.0  0.65048  0.37490  0.43010  1.0000
  H   H3020     1.0  0.55898  0.60086  0.25844  1.0000
  H   H3021     1.0  0.56174  0.57462  0.26818  1.0000
  H   H3022     1.0  0.63298  0.55452  0.26045  1.0000
  H   H3023     1.0  0.61752  0.57848  0.24281  1.0000
  H   H3024     1.0  0.63501  0.35689  0.38281  1.0000
  H   H3025     1.0  0.59904  0.34731  0.39775  1.0000
  H   H3026     1.0  0.64881  0.42877  0.23928  1.0000
  H   H3027     1.0  0.50812  0.62334  0.30806  1.0000
  S   S758      1.0  0.62426  0.48588  0.23934  1.0000
  N   N191      1.0  0.62189  0.34211  0.39652  1.0000
  H   H3028     1.0  0.65597  0.46847  0.25950  1.0000
  C   C1880     1.0  0.64745  0.40131  0.36253  1.0000
  S   S759      1.0  0.49853  0.63122  0.26229  1.0000
  H   H3029     1.0  0.60888  0.46543  0.26438  1.0000
  S   S760      1.0  0.32552  0.55529  0.24266  1.0000
  C   C1881     1.0  0.57633  0.56885  0.24899  1.0000
  C   C1882     1.0  0.60695  0.34263  0.40487  1.0000
  H   H3030     1.0  0.63838  0.52708  0.32917  1.0000
  H   H3031     1.0  0.63100  0.32434  0.41199  1.0000
  S   S761      1.0  0.55555  0.65110  0.24816  1.0000
  S   S762      1.0  0.53862  0.62438  0.26461  1.0000
  C   C1883     1.0  0.61454  0.45193  0.23124  1.0000
  C   C1884     1.0  0.64397  0.55317  0.26133  1.0000
  H   H3032     1.0  0.54132  0.60792  0.23839  1.0000
  H   H3033     1.0  0.62522  0.59165  0.24600  1.0000
  H   H3034     1.0  0.60434  0.34922  0.41321  1.0000
  H   H3035     1.0  0.56600  0.40900  0.24665  1.0000
  H   H3036     1.0  0.51534  0.58374  0.25545  1.0000
  H   H3037     1.0  0.61745  0.33782  0.37792  1.0000
  Fe  Fe381     1.0  0.55158  0.63199  0.24253  1.0000
  C   C1885     1.0  0.34698  0.64463  0.43622  1.0000
  C   C1886     1.0  0.57260  0.59882  0.23767  1.0000
  C   C1887     1.0  0.65677  0.37234  0.46325  1.0000
  C   C1888     1.0  0.38186  0.59090  0.23190  1.0000
  H   H3038     1.0  0.61938  0.44066  0.23196  1.0000
  C   C1889     1.0  0.32565  0.64898  0.36456  1.0000
  N   N192      1.0  0.49488  0.64475  0.30536  1.0000
  Fe  Fe382     1.0  0.65756  0.44188  0.29316  1.0000
  C   C1890     1.0  0.46866  0.62448  0.24488  1.0000
  S   S763      1.0  0.54352  0.64663  0.29084  1.0000
  C   C1891     1.0  0.64526  0.53878  0.30078  1.0000
  S   S764      1.0  0.57886  0.38141  0.23553  1.0000
  S   S765      1.0  0.59677  0.40760  0.24532  1.0000
  N   N193      1.0  0.64884  0.37079  0.45311  1.0000
  H   H3039     1.0  0.64179  0.35193  0.46706  1.0000
  C   C1892     1.0  0.65658  0.37516  0.43804  1.0000
  C   C1893     1.0  0.63713  0.43001  0.27722  1.0000
  H   H3040     1.0  0.52224  0.61328  0.24450  1.0000
  H   H3041     1.0  0.51322  0.58146  0.23860  1.0000
  H   H3042     1.0  0.50535  0.63121  0.28999  1.0000
  H   H3043     1.0  0.55870  0.36410  0.23875  1.0000
  H   H3044     1.0  0.64865  0.50918  0.32809  1.0000
  H   H3045     1.0  0.60803  0.45473  0.28240  1.0000
  S   S766      1.0  0.39602  0.60724  0.23969  1.0000
  H   H3046     1.0  0.61016  0.59731  0.23726  1.0000
  H   H3047     1.0  0.63997  0.54683  0.30770  1.0000
  H   H3048     1.0  0.64841  0.41791  0.34291  1.0000
  H   H3049     1.0  0.47195  0.64784  0.31310  1.0000
  H   H3050     1.0  0.63401  0.51683  0.31884  1.0000
  H   H3051     1.0  0.53240  0.59854  0.25535  1.0000
  S   S767      1.0  0.42720  0.62445  0.24421  1.0000
  C   C1894     1.0  0.65306  0.53948  0.26245  1.0000
  S   S768      1.0  0.63874  0.44504  0.28283  1.0000
  S   S769      1.0  0.64665  0.52413  0.26366  1.0000
  H   H3052     1.0  0.63476  0.39164  0.45327  1.0000
  C   C1895     1.0  0.63194  0.33561  0.40642  1.0000
  H   H3053     1.0  0.61926  0.47175  0.28820  1.0000
  S   S770      1.0  0.51198  0.32110  0.24023  1.0000
  H   H3054     1.0  0.65351  0.49100  0.23181  1.0000
  S   S771      1.0  0.64648  0.38027  0.38753  1.0000
  H   H3055     1.0  0.62352  0.44295  0.26258  1.0000
  H   H3056     1.0  0.62011  0.42228  0.25503  1.0000
  C   C1896     1.0  0.64398  0.41596  0.28277  1.0000
  N   N194      1.0  0.59927  0.47743  0.28108  1.0000
  C   C1897     1.0  0.59131  0.48956  0.27170  1.0000
  C   C1898     1.0  0.59060  0.47526  0.29599  1.0000
  C   C1899     1.0  0.61308  0.48064  0.28108  1.0000
  C   C1900     1.0  0.60214  0.46417  0.27552  1.0000
  H   H3057     1.0  0.59764  0.49148  0.26038  1.0000
  H   H3058     1.0  0.58886  0.49979  0.27556  1.0000
  H   H3059     1.0  0.58095  0.48739  0.27127  1.0000
  H   H3060     1.0  0.59636  0.46612  0.30328  1.0000
  H   H3061     1.0  0.58828  0.48507  0.30053  1.0000
  H   H3062     1.0  0.58013  0.47275  0.29639  1.0000
  H   H3063     1.0  0.61142  0.49077  0.28487  1.0000
  H   H3064     1.0  0.62009  0.48189  0.27006  1.0000
  C   C1901     1.0  0.47598  0.62624  0.25455  1.0000
  H   H3065     1.0  0.35707  0.63710  0.43238  1.0000
  H   H3066     1.0  0.62190  0.36382  0.39718  1.0000
  C   C1902     1.0  0.61531  0.47558  0.23395  1.0000
  H   H3067     1.0  0.32903  0.64644  0.41038  1.0000
  H   H3068     1.0  0.61639  0.36225  0.38172  1.0000
  C   C1903     1.0  0.62491  0.33334  0.38552  1.0000
  C   C1904     1.0  0.64774  0.35556  0.45586  1.0000
  C   C1905     1.0  0.50694  0.63361  0.29985  1.0000
  H   H3069     1.0  0.45816  0.62179  0.24886  1.0000
  C   C1906     1.0  0.63427  0.38006  0.45531  1.0000
  H   H3070     1.0  0.64736  0.39332  0.28276  1.0000
  H   H3071     1.0  0.64177  0.57551  0.26176  1.0000
  N   N195      1.0  0.65305  0.52534  0.30884  1.0000
  H   H3072     1.0  0.53739  0.44146  0.23876  1.0000
  H   H3073     1.0  0.34480  0.63352  0.41472  1.0000
  H   H3074     1.0  0.63688  0.53668  0.29639  1.0000
  H   H3075     1.0  0.32815  0.63473  0.42790  1.0000
  C   C1907     1.0  0.49604  0.63108  0.23489  1.0000
  C   C1908     1.0  0.48966  0.62953  0.24962  1.0000
  C   C1909     1.0  0.33513  0.64117  0.41915  1.0000
  Fe  Fe383     1.0  0.51975  0.63820  0.25539  1.0000
  H   H3076     1.0  0.37255  0.64492  0.25619  1.0000
  H   H3077     1.0  0.65117  0.36925  0.47471  1.0000
  Fe  Fe384     1.0  0.41804  0.64816  0.23772  1.0000
  C   C1910     1.0  0.62040  0.58921  0.23812  1.0000
  Fe  Fe385     1.0  0.62021  0.39776  0.24405  1.0000
  S   S772      1.0  0.61372  0.32272  0.47779  1.0000
  H   H3078     1.0  0.64329  0.33523  0.40049  1.0000
  H   H3079     1.0  0.62380  0.32202  0.39055  1.0000
  C   C1911     1.0  0.49747  0.64764  0.31838  1.0000
  C   C1912     1.0  0.62151  0.46091  0.23459  1.0000
  H   H3080     1.0  0.43542  0.64407  0.25830  1.0000
  C   C1913     1.0  0.54452  0.41486  0.23279  1.0000
  H   H3081     1.0  0.51732  0.63719  0.29693  1.0000
  H   H3082     1.0  0.32828  0.63999  0.37327  1.0000
  Fe  Fe386     1.0  0.41253  0.62134  0.23157  1.0000
  C   C1914     1.0  0.64305  0.51935  0.32182  1.0000
  H   H3083     1.0  0.63173  0.45642  0.23783  1.0000
  H   H3084     1.0  0.64205  0.35385  0.44828  1.0000
  C   C1915     1.0  0.65347  0.39438  0.37470  1.0000
  H   H3085     1.0  0.65057  0.51246  0.29534  1.0000
  S   S773      1.0  0.62000  0.38156  0.23180  1.0000
  H   H3086     1.0  0.37288  0.59442  0.24020  1.0000
  H   H3087     1.0  0.53529  0.41597  0.24213  1.0000
  H   H3088     1.0  0.62794  0.37909  0.44791  1.0000
  C   C1916     1.0  0.56012  0.42049  0.24474  1.0000
  H   H3089     1.0  0.64920  0.58002  0.23310  1.0000
  C   C1917     1.0  0.54110  0.58087  0.23690  1.0000
  C   C1918     1.0  0.53136  0.60379  0.24402  1.0000
  H   H3090     1.0  0.65272  0.54398  0.29145  1.0000
  N   N196      1.0  0.52908  0.59365  0.23656  1.0000
  H   H3091     1.0  0.54194  0.57517  0.24819  1.0000
  C   C1919     1.0  0.65311  0.41255  0.35225  1.0000
  S   S774      1.0  0.53236  0.64468  0.23293  1.0000
  C   C1920     1.0  0.51534  0.58913  0.24393  1.0000
  H   H3092     1.0  0.50605  0.59856  0.24383  1.0000
  H   H3093     1.0  0.50650  0.63379  0.23093  1.0000
  H   H3094     1.0  0.55163  0.58396  0.23146  1.0000
  H   H3095     1.0  0.53980  0.57294  0.23138  1.0000
  Fe  Fe387     1.0  0.59716  0.39314  0.23079  1.0000
  C   C1921     1.0  0.32754  0.64479  0.68094  1.0000
  H   H3096     1.0  0.60846  0.63524  0.68075  1.0000
  S   S775      1.0  0.62741  0.32608  0.72474  1.0000
  C   C1922     1.0  0.39674  0.33150  0.68318  1.0000
  H   H3097     1.0  0.64754  0.44336  0.59642  1.0000
  S   S776      1.0  0.63091  0.47305  0.67132  1.0000
  H   H3098     1.0  0.44588  0.59112  0.63936  1.0000
  H   H3099     1.0  0.54063  0.42287  0.65689  1.0000
  S   S777      1.0  0.63623  0.44890  0.70062  1.0000
  H   H3100     1.0  0.36380  0.47989  0.65395  1.0000
  Fe  Fe388     1.0  0.62705  0.45064  0.68140  1.0000
  S   S778      1.0  0.60651  0.44235  0.68568  1.0000
  Fe  Fe389     1.0  0.64198  0.47057  0.68943  1.0000
  S   S779      1.0  0.63597  0.49065  0.69906  1.0000
  H   H3101     1.0  0.32656  0.63700  0.67504  1.0000
  H   H3102     1.0  0.33919  0.62522  0.70162  1.0000
  Fe  Fe390     1.0  0.57894  0.39111  0.65450  1.0000
  S   S780      1.0  0.55760  0.39557  0.66973  1.0000
  S   S781      1.0  0.59467  0.40615  0.64675  1.0000
  Fe  Fe391     1.0  0.57347  0.36343  0.65021  1.0000
  S   S782      1.0  0.55179  0.36576  0.66505  1.0000
  S   S783      1.0  0.58209  0.34341  0.64094  1.0000
  Fe  Fe392     1.0  0.54877  0.38912  0.65403  1.0000
  S   S784      1.0  0.52816  0.40248  0.64745  1.0000
  Fe  Fe393     1.0  0.56257  0.37187  0.67915  1.0000
  S   S785      1.0  0.55921  0.36138  0.70261  1.0000
  S   S786      1.0  0.56975  0.38638  0.63793  1.0000
  S   S787      1.0  0.58467  0.36772  0.66524  1.0000
  Fe  Fe394     1.0  0.43132  0.37271  0.65305  1.0000
  S   S788      1.0  0.42552  0.38084  0.63131  1.0000
  S   S789      1.0  0.41422  0.36678  0.67254  1.0000
  Fe  Fe395     1.0  0.46292  0.37431  0.64101  1.0000
  S   S790      1.0  0.45934  0.38307  0.61839  1.0000
  S   S791      1.0  0.48569  0.36533  0.64451  1.0000
  Fe  Fe396     1.0  0.43901  0.39686  0.62842  1.0000
  S   S792      1.0  0.43025  0.41949  0.61738  1.0000
  Fe  Fe397     1.0  0.44622  0.36626  0.62345  1.0000
  S   S793      1.0  0.45100  0.35145  0.60803  1.0000
  S   S794      1.0  0.44362  0.38968  0.65081  1.0000
  S   S795      1.0  0.45084  0.35664  0.64549  1.0000
  H   H3103     1.0  0.37225  0.50963  0.64302  1.0000
  Fe  Fe398     1.0  0.35340  0.45990  0.64302  1.0000
  C   C1923     1.0  0.33212  0.45551  0.59130  1.0000
  S   S796      1.0  0.37134  0.44709  0.65432  1.0000
  Fe  Fe399     1.0  0.33716  0.49065  0.63538  1.0000
  S   S797      1.0  0.33674  0.51456  0.63062  1.0000
  C   C1924     1.0  0.56278  0.42631  0.63422  1.0000
  S   S798      1.0  0.35586  0.47719  0.62282  1.0000
  H   H3104     1.0  0.62233  0.39317  0.68809  1.0000
  H   H3105     1.0  0.51509  0.34340  0.59110  1.0000
  C   C1925     1.0  0.57194  0.33327  0.70197  1.0000
  H   H3106     1.0  0.60578  0.62075  0.72973  1.0000
  S   S799      1.0  0.44585  0.63950  0.67016  1.0000
  H   H3107     1.0  0.34033  0.43941  0.60851  1.0000
  H   H3108     1.0  0.64217  0.60736  0.68111  1.0000
  S   S800      1.0  0.40688  0.63056  0.68443  1.0000
  C   C1926     1.0  0.39407  0.49059  0.65303  1.0000
  C   C1927     1.0  0.64837  0.32308  0.50755  1.0000
  C   C1928     1.0  0.60947  0.32546  0.66319  1.0000
  H   H3109     1.0  0.54477  0.32910  0.64744  1.0000
  Fe  Fe400     1.0  0.35619  0.60173  0.65336  1.0000
  S   S801      1.0  0.35281  0.58705  0.67525  1.0000
  S   S802      1.0  0.37384  0.61474  0.64501  1.0000
  C   C1929     1.0  0.55290  0.45162  0.63369  1.0000
  C   C1930     1.0  0.53944  0.33333  0.65744  1.0000
  C   C1931     1.0  0.36493  0.39870  0.65917  1.0000
  C   C1932     1.0  0.60335  0.61636  0.72189  1.0000
  C   C1933     1.0  0.64164  0.39176  0.71262  1.0000
  Fe  Fe401     1.0  0.34602  0.57313  0.66436  1.0000
  S   S803      1.0  0.35097  0.54859  0.66990  1.0000
  S   S804      1.0  0.33353  0.61475  0.65609  1.0000
  S   S805      1.0  0.35139  0.58675  0.64206  1.0000
  Fe  Fe402     1.0  0.64489  0.58204  0.71615  1.0000
  H   H3110     1.0  0.39728  0.34791  0.69378  1.0000
  H   H3111     1.0  0.58726  0.63526  0.71566  1.0000
  H   H3112     1.0  0.61917  0.32032  0.53646  1.0000
  H   H3113     1.0  0.39064  0.32559  0.69270  1.0000
  C   C1934     1.0  0.38552  0.38000  0.65281  1.0000
  H   H3114     1.0  0.62648  0.61635  0.69201  1.0000
  S   S806      1.0  0.64882  0.57437  0.69548  1.0000
  C   C1935     1.0  0.40055  0.34408  0.68380  1.0000
  H   H3115     1.0  0.64804  0.63007  0.66615  1.0000
  H   H3116     1.0  0.62506  0.60337  0.68285  1.0000
  H   H3117     1.0  0.60712  0.32072  0.63805  1.0000
  H   H3118     1.0  0.61564  0.32658  0.67067  1.0000
  H   H3119     1.0  0.51295  0.33310  0.60928  1.0000
  H   H3120     1.0  0.33227  0.38144  0.49615  1.0000
  C   C1936     1.0  0.61078  0.60258  0.71959  1.0000
  C   C1937     1.0  0.60743  0.59690  0.70958  1.0000
  C   C1938     1.0  0.59680  0.60502  0.70182  1.0000
  C   C1939     1.0  0.58955  0.61891  0.70389  1.0000
  C   C1940     1.0  0.59285  0.62459  0.71395  1.0000
  C   C1941     1.0  0.62579  0.38964  0.69864  1.0000
  C   C1942     1.0  0.38782  0.39806  0.66405  1.0000
  H   H3121     1.0  0.59419  0.60054  0.69414  1.0000
  H   H3122     1.0  0.62679  0.60928  0.65675  1.0000
  C   C1943     1.0  0.65553  0.32803  0.49343  1.0000
  H   H3123     1.0  0.35212  0.32305  0.65516  1.0000
  H   H3124     1.0  0.36097  0.41023  0.66006  1.0000
  C   C1944     1.0  0.44023  0.60212  0.63470  1.0000
  C   C1945     1.0  0.34763  0.52398  0.59034  1.0000
  H   H3125     1.0  0.64527  0.32353  0.53010  1.0000
  H   H3126     1.0  0.43829  0.63106  0.62522  1.0000
  H   H3127     1.0  0.42912  0.60144  0.63473  1.0000
  H   H3128     1.0  0.35709  0.52586  0.58148  1.0000
  C   C1946     1.0  0.65066  0.32741  0.51916  1.0000
  H   H3129     1.0  0.60863  0.33549  0.65459  1.0000
  H   H3130     1.0  0.44906  0.33252  0.59136  1.0000
  H   H3131     1.0  0.63117  0.62609  0.64611  1.0000
  H   H3132     1.0  0.33431  0.32642  0.71221  1.0000
  H   H3133     1.0  0.32706  0.37215  0.71387  1.0000
  H   H3134     1.0  0.45508  0.62119  0.64888  1.0000
  C   C1947     1.0  0.39721  0.62675  0.67353  1.0000
  C   C1948     1.0  0.39781  0.63387  0.65906  1.0000
  C   C1949     1.0  0.39063  0.63002  0.65048  1.0000
  C   C1950     1.0  0.38257  0.61921  0.65632  1.0000
  C   C1951     1.0  0.38169  0.61231  0.67087  1.0000
  C   C1952     1.0  0.38904  0.61603  0.67940  1.0000
  C   C1953     1.0  0.36600  0.31945  0.62829  1.0000
  H   H3135     1.0  0.39127  0.63549  0.63926  1.0000
  H   H3136     1.0  0.37559  0.60392  0.67550  1.0000
  H   H3137     1.0  0.38853  0.61042  0.69057  1.0000
  S   S807      1.0  0.39961  0.32510  0.60679  1.0000
  H   H3138     1.0  0.56318  0.42538  0.66171  1.0000
  H   H3139     1.0  0.43155  0.63530  0.64274  1.0000
  H   H3140     1.0  0.49119  0.33925  0.62752  1.0000
  H   H3141     1.0  0.37621  0.47206  0.66565  1.0000
  C   C1954     1.0  0.41145  0.34261  0.61554  1.0000
  H   H3142     1.0  0.37167  0.32855  0.62537  1.0000
  N   N197      1.0  0.43998  0.61274  0.64299  1.0000
  H   H3143     1.0  0.57058  0.32163  0.54044  1.0000
  H   H3144     1.0  0.54661  0.45998  0.64000  1.0000
  H   H3145     1.0  0.34242  0.53438  0.59388  1.0000
  H   H3146     1.0  0.32504  0.36195  0.51695  1.0000
  C   C1955     1.0  0.32606  0.32543  0.72192  1.0000
  H   H3147     1.0  0.56432  0.41527  0.64104  1.0000
  H   H3148     1.0  0.63257  0.39541  0.72127  1.0000
  N   N198      1.0  0.38355  0.48743  0.64668  1.0000
  C   C1956     1.0  0.56437  0.32579  0.61885  1.0000
  H   H3149     1.0  0.33542  0.58317  0.62206  1.0000
  H   H3150     1.0  0.33723  0.56582  0.60714  1.0000
  C   C1957     1.0  0.34072  0.52364  0.64184  1.0000
  C   C1958     1.0  0.34294  0.51684  0.65575  1.0000
  C   C1959     1.0  0.34632  0.52452  0.66419  1.0000
  C   C1960     1.0  0.34721  0.53910  0.65888  1.0000
  C   C1961     1.0  0.34483  0.54589  0.64502  1.0000
  C   C1962     1.0  0.34169  0.53815  0.63653  1.0000
  H   H3151     1.0  0.34198  0.50572  0.66002  1.0000
  H   H3152     1.0  0.34801  0.51926  0.67497  1.0000
  H   H3153     1.0  0.34547  0.55711  0.64080  1.0000
  H   H3154     1.0  0.33995  0.54346  0.62577  1.0000
  C   C1963     1.0  0.41399  0.42747  0.62755  1.0000
  C   C1964     1.0  0.41157  0.42438  0.64263  1.0000
  C   C1965     1.0  0.39860  0.43088  0.65069  1.0000
  C   C1966     1.0  0.38777  0.43999  0.64375  1.0000
  C   C1967     1.0  0.39013  0.44308  0.62866  1.0000
  C   C1968     1.0  0.40333  0.43698  0.62056  1.0000
  H   H3155     1.0  0.41982  0.41721  0.64806  1.0000
  H   H3156     1.0  0.39691  0.42865  0.66235  1.0000
  H   H3157     1.0  0.38180  0.45008  0.62322  1.0000
  H   H3158     1.0  0.40520  0.43935  0.60887  1.0000
  H   H3159     1.0  0.42137  0.62701  0.63581  1.0000
  H   H3160     1.0  0.41952  0.35212  0.64934  1.0000
  C   C1969     1.0  0.43643  0.34473  0.60735  1.0000
  H   H3161     1.0  0.37990  0.40242  0.63130  1.0000
  Fe  Fe403     1.0  0.64888  0.33011  0.71196  1.0000
  H   H3162     1.0  0.42110  0.60780  0.65871  1.0000
  Fe  Fe404     1.0  0.33940  0.46890  0.61711  1.0000
  C   C1970     1.0  0.51640  0.39237  0.64605  1.0000
  C   C1971     1.0  0.50201  0.39898  0.64541  1.0000
  C   C1972     1.0  0.49245  0.39091  0.64472  1.0000
  C   C1973     1.0  0.49727  0.37619  0.64465  1.0000
  C   C1974     1.0  0.51173  0.36970  0.64492  1.0000
  C   C1975     1.0  0.52126  0.37774  0.64560  1.0000
  H   H3163     1.0  0.49819  0.41031  0.64566  1.0000
  H   H3164     1.0  0.48132  0.39602  0.64447  1.0000
  H   H3165     1.0  0.51559  0.35840  0.64456  1.0000
  H   H3166     1.0  0.53239  0.37265  0.64559  1.0000
  C   C1976     1.0  0.57348  0.34646  0.70356  1.0000
  C   C1977     1.0  0.58683  0.34806  0.70452  1.0000
  H   H3167     1.0  0.36168  0.39195  0.67006  1.0000
  C   C1978     1.0  0.33239  0.52909  0.57321  1.0000
  H   H3168     1.0  0.35394  0.50562  0.57233  1.0000
  C   C1979     1.0  0.64679  0.50251  0.69904  1.0000
  H   H3169     1.0  0.50292  0.33119  0.59737  1.0000
  H   H3170     1.0  0.40092  0.34555  0.62221  1.0000
  H   H3171     1.0  0.39643  0.40291  0.63540  1.0000
  C   C1980     1.0  0.64812  0.52616  0.70180  1.0000
  C   C1981     1.0  0.64002  0.51638  0.70162  1.0000
  C   C1982     1.0  0.42741  0.32898  0.59813  1.0000
  H   H3172     1.0  0.34833  0.49634  0.59061  1.0000
  H   H3173     1.0  0.65090  0.39628  0.71255  1.0000
  H   H3174     1.0  0.62840  0.51957  0.70360  1.0000
  C   C1983     1.0  0.60394  0.43167  0.67502  1.0000
  C   C1984     1.0  0.59304  0.42370  0.68053  1.0000
  C   C1985     1.0  0.59042  0.41539  0.67221  1.0000
  C   C1986     1.0  0.59848  0.41525  0.65815  1.0000
  C   C1987     1.0  0.60948  0.42309  0.65270  1.0000
  C   C1988     1.0  0.61230  0.43115  0.66114  1.0000
  H   H3175     1.0  0.58656  0.42400  0.69129  1.0000
  H   H3176     1.0  0.58200  0.40932  0.67659  1.0000
  H   H3177     1.0  0.61577  0.42305  0.64184  1.0000
  H   H3178     1.0  0.62069  0.43727  0.65677  1.0000
  H   H3179     1.0  0.54181  0.34421  0.65556  1.0000
  H   H3180     1.0  0.34147  0.53074  0.56381  1.0000
  Fe  Fe405     1.0  0.32829  0.59845  0.64714  1.0000
  Fe  Fe406     1.0  0.32994  0.59942  0.67743  1.0000
  C   C1989     1.0  0.53994  0.43381  0.64974  1.0000
  H   H3181     1.0  0.39560  0.46594  0.64516  1.0000
  H   H3182     1.0  0.62918  0.37764  0.70088  1.0000
  C   C1990     1.0  0.40126  0.32638  0.67036  1.0000
  H   H3183     1.0  0.33304  0.41947  0.60309  1.0000
  H   H3184     1.0  0.62284  0.41598  0.70296  1.0000
  H   H3185     1.0  0.38045  0.37749  0.64519  1.0000
  C   C1991     1.0  0.37196  0.48227  0.65839  1.0000
  C   C1992     1.0  0.40901  0.35138  0.67167  1.0000
  H   H3186     1.0  0.58809  0.35841  0.70531  1.0000
  H   H3187     1.0  0.57298  0.43832  0.64977  1.0000
  C   C1993     1.0  0.41378  0.33276  0.60672  1.0000
  H   H3188     1.0  0.44584  0.60510  0.62322  1.0000
  H   H3189     1.0  0.59834  0.32498  0.66950  1.0000
  H   H3190     1.0  0.39738  0.37714  0.64893  1.0000
  C   C1994     1.0  0.34449  0.50459  0.58143  1.0000
  H   H3191     1.0  0.60906  0.33786  0.70423  1.0000
  C   C1995     1.0  0.55321  0.33707  0.61464  1.0000
  S   S808      1.0  0.33763  0.46982  0.59447  1.0000
  C   C1996     1.0  0.38455  0.40461  0.63945  1.0000
  C   C1997     1.0  0.57107  0.34117  0.63062  1.0000
  C   C1998     1.0  0.55975  0.35234  0.62665  1.0000
  C   C1999     1.0  0.55093  0.35033  0.61856  1.0000
  S   S809      1.0  0.65366  0.35201  0.70763  1.0000
  H   H3192     1.0  0.52496  0.33060  0.68501  1.0000
  H   H3193     1.0  0.55787  0.36261  0.62965  1.0000
  H   H3194     1.0  0.54230  0.35910  0.61535  1.0000
  H   H3195     1.0  0.33696  0.50016  0.57799  1.0000
  C   C2000     1.0  0.63273  0.41225  0.69510  1.0000
  H   H3196     1.0  0.53884  0.34023  0.68234  1.0000
  Fe  Fe407     1.0  0.65727  0.43948  0.68731  1.0000
  C   C2001     1.0  0.32696  0.57278  0.61038  1.0000
  H   H3197     1.0  0.53321  0.44169  0.65642  1.0000
  H   H3198     1.0  0.38566  0.50461  0.62782  1.0000
  Fe  Fe408     1.0  0.65256  0.46215  0.66045  1.0000
  H   H3199     1.0  0.41213  0.33049  0.64802  1.0000
  H   H3200     1.0  0.63458  0.64381  0.65813  1.0000
  H   H3201     1.0  0.56362  0.45434  0.62848  1.0000
  C   C2002     1.0  0.33056  0.43030  0.59677  1.0000
  H   H3202     1.0  0.46099  0.60260  0.64756  1.0000
  H   H3203     1.0  0.58223  0.31929  0.62960  1.0000
  H   H3204     1.0  0.36883  0.49890  0.63265  1.0000
  S   S810      1.0  0.62417  0.59257  0.72933  1.0000
  H   H3205     1.0  0.39896  0.48078  0.66032  1.0000
  H   H3206     1.0  0.64748  0.39535  0.67623  1.0000
  C   C2003     1.0  0.40907  0.33412  0.65807  1.0000
  H   H3207     1.0  0.54033  0.32223  0.69314  1.0000
  H   H3208     1.0  0.42923  0.32153  0.59117  1.0000
  H   H3209     1.0  0.36630  0.49041  0.66513  1.0000
  H   H3210     1.0  0.46089  0.61674  0.63150  1.0000
  N   N199      1.0  0.49531  0.35075  0.60538  1.0000
  C   C2004     1.0  0.50140  0.36132  0.60883  1.0000
  C   C2005     1.0  0.48554  0.34451  0.61843  1.0000
  C   C2006     1.0  0.50708  0.33910  0.60053  1.0000
  C   C2007     1.0  0.48724  0.35796  0.59378  1.0000
  H   H3211     1.0  0.50900  0.36611  0.59930  1.0000
  H   H3212     1.0  0.50746  0.35619  0.61765  1.0000
  H   H3213     1.0  0.49281  0.37030  0.61255  1.0000
  H   H3214     1.0  0.48088  0.33636  0.61625  1.0000
  Fe  Fe409     1.0  0.42181  0.64644  0.67610  1.0000
  H   H3215     1.0  0.47644  0.35299  0.62226  1.0000
  C   C2008     1.0  0.39085  0.47614  0.63823  1.0000
  H   H3216     1.0  0.64447  0.61238  0.65437  1.0000
  C   C2009     1.0  0.35227  0.64452  0.66864  1.0000
  H   H3217     1.0  0.65455  0.52986  0.65345  1.0000
  H   H3218     1.0  0.49429  0.36269  0.58373  1.0000
  H   H3219     1.0  0.35773  0.62530  0.69298  1.0000
  H   H3220     1.0  0.39968  0.47957  0.62927  1.0000
  C   C2010     1.0  0.42281  0.34846  0.61598  1.0000
  H   H3221     1.0  0.43174  0.61636  0.66464  1.0000
  C   C2011     1.0  0.63281  0.61764  0.65598  1.0000
  H   H3222     1.0  0.35414  0.65122  0.69281  1.0000
  H   H3223     1.0  0.46676  0.64873  0.60026  1.0000
  H   H3224     1.0  0.38890  0.49906  0.65952  1.0000
  H   H3225     1.0  0.55730  0.42621  0.62571  1.0000
  H   H3226     1.0  0.65419  0.38010  0.68933  1.0000
  H   H3227     1.0  0.35920  0.39679  0.65174  1.0000
  H   H3228     1.0  0.38051  0.41623  0.63976  1.0000
  H   H3229     1.0  0.35217  0.63673  0.66225  1.0000
  H   H3230     1.0  0.38375  0.40927  0.66584  1.0000
  S   S811      1.0  0.57701  0.62905  0.69318  1.0000
  H   H3231     1.0  0.64813  0.49467  0.65231  1.0000
  H   H3232     1.0  0.53405  0.43395  0.64145  1.0000
  H   H3233     1.0  0.61293  0.58618  0.70793  1.0000
  C   C2012     1.0  0.57341  0.32792  0.62665  1.0000
  H   H3234     1.0  0.63025  0.41625  0.68414  1.0000
  H   H3235     1.0  0.43784  0.59773  0.66354  1.0000
  H   H3236     1.0  0.64110  0.41768  0.69551  1.0000
  S   S812      1.0  0.45567  0.65058  0.62959  1.0000
  H   H3237     1.0  0.32563  0.32001  0.48396  1.0000
  C   C2013     1.0  0.37732  0.50071  0.63711  1.0000
  S   S813      1.0  0.33883  0.45018  0.63605  1.0000
  C   C2014     1.0  0.56192  0.43626  0.65445  1.0000
  S   S814      1.0  0.54214  0.33504  0.60424  1.0000
  H   H3238     1.0  0.39970  0.39648  0.65997  1.0000
  C   C2015     1.0  0.34670  0.62744  0.69097  1.0000
  C   C2016     1.0  0.59867  0.33644  0.70395  1.0000
  C   C2017     1.0  0.33472  0.44159  0.59984  1.0000
  H   H3239     1.0  0.56167  0.33216  0.70095  1.0000
  H   H3240     1.0  0.52763  0.33482  0.65864  1.0000
  N   N200      1.0  0.33738  0.51855  0.58566  1.0000
  H   H3241     1.0  0.40298  0.49452  0.64450  1.0000
  C   C2018     1.0  0.43235  0.60845  0.65811  1.0000
  H   H3242     1.0  0.61617  0.39261  0.70711  1.0000
  C   C2019     1.0  0.45489  0.61327  0.64273  1.0000
  N   N201      1.0  0.63758  0.39640  0.69838  1.0000
  C   C2020     1.0  0.65016  0.39201  0.68712  1.0000
  C   C2021     1.0  0.41314  0.34646  0.65877  1.0000
  C   C2022     1.0  0.43243  0.62714  0.63639  1.0000
  H   H3243     1.0  0.63073  0.32325  0.63963  1.0000
  H   H3244     1.0  0.47823  0.36681  0.59708  1.0000
  H   H3245     1.0  0.61011  0.63933  0.66151  1.0000
  H   H3246     1.0  0.63299  0.63958  0.67740  1.0000
  C   C2023     1.0  0.64841  0.50396  0.65659  1.0000
  S   S815      1.0  0.64769  0.44013  0.66875  1.0000
  H   H3247     1.0  0.44782  0.32541  0.63248  1.0000
  H   H3248     1.0  0.57374  0.42837  0.62891  1.0000
  N   N202      1.0  0.62801  0.62382  0.66907  1.0000
  C   C2024     1.0  0.43865  0.33512  0.59832  1.0000
  H   H3249     1.0  0.48233  0.35027  0.59113  1.0000
  H   H3250     1.0  0.54730  0.45250  0.62494  1.0000
  C   C2025     1.0  0.63627  0.63483  0.66761  1.0000
  C   C2026     1.0  0.53681  0.32937  0.68327  1.0000
  H   H3251     1.0  0.38294  0.37267  0.66353  1.0000
  H   H3252     1.0  0.42099  0.35589  0.62294  1.0000
  S   S816      1.0  0.33563  0.47394  0.65606  1.0000
  N   N203      1.0  0.55438  0.43701  0.64303  1.0000
  H   H3253     1.0  0.63986  0.51316  0.65298  1.0000
  H   H3254     1.0  0.56270  0.33283  0.66737  1.0000
  C   C2027     1.0  0.58379  0.32165  0.70139  1.0000
  H   H3255     1.0  0.64273  0.53676  0.70387  1.0000
  H   H3256     1.0  0.55601  0.44424  0.66130  1.0000
  H   H3257     1.0  0.38319  0.47341  0.63339  1.0000
  H   H3258     1.0  0.38602  0.39054  0.67477  1.0000
  N   N204      1.0  0.38071  0.39533  0.65386  1.0000
  H   H3259     1.0  0.36983  0.32699  0.65111  1.0000
  H   H3260     1.0  0.34662  0.61938  0.68490  1.0000
  C   C2028     1.0  0.56012  0.32222  0.66833  1.0000
  H   H3261     1.0  0.32748  0.41494  0.68401  1.0000
  C   C2029     1.0  0.61249  0.63052  0.67092  1.0000
  H   H3262     1.0  0.32645  0.35361  0.72220  1.0000
  C   C2030     1.0  0.63053  0.61223  0.68183  1.0000
  H   H3263     1.0  0.64543  0.50091  0.66860  1.0000
  N   N205      1.0  0.54447  0.32351  0.67024  1.0000
  H   H3264     1.0  0.35159  0.51624  0.59972  1.0000
  N   N206      1.0  0.34239  0.64237  0.68292  1.0000
  H   H3265     1.0  0.32718  0.53980  0.57601  1.0000
  H   H3266     1.0  0.48813  0.64404  0.70806  1.0000
  H   H3267     1.0  0.32590  0.37441  0.48443  1.0000
  H   H3268     1.0  0.40390  0.64223  0.65443  1.0000
  C   C2031     1.0  0.59714  0.32325  0.70238  1.0000
  H   H3269     1.0  0.64485  0.37980  0.71570  1.0000
  H   H3270     1.0  0.60591  0.62248  0.67217  1.0000
  C   C2032     1.0  0.32595  0.58262  0.61886  1.0000
  H   H3271     1.0  0.35434  0.32415  0.62880  1.0000
  H   H3272     1.0  0.32834  0.50849  0.60716  1.0000
  H   H3273     1.0  0.33576  0.65135  0.70199  1.0000
  H   H3274     1.0  0.36356  0.64288  0.66976  1.0000
  C   C2033     1.0  0.32505  0.45813  0.57992  1.0000
  H   H3275     1.0  0.32494  0.43935  0.66801  1.0000
  C   C2034     1.0  0.32494  0.51654  0.59772  1.0000
  C   C2035     1.0  0.65440  0.59816  0.76837  1.0000
  H   H3276     1.0  0.59685  0.33463  0.73832  1.0000
  C   C2036     1.0  0.64205  0.61011  0.74879  1.0000
  H   H3277     1.0  0.63375  0.58252  0.77665  1.0000
  H   H3278     1.0  0.33657  0.37337  0.73459  1.0000
  C   C2037     1.0  0.57622  0.31966  0.74527  1.0000
  C   C2038     1.0  0.63173  0.59286  0.76865  1.0000
  H   H3279     1.0  0.65608  0.57433  0.75925  1.0000
  H   H3280     1.0  0.63527  0.60917  0.74178  1.0000
  C   C2039     1.0  0.32921  0.36636  0.74185  1.0000
  H   H3281     1.0  0.63614  0.61920  0.75424  1.0000
  H   H3282     1.0  0.62467  0.59160  0.76206  1.0000
  H   H3283     1.0  0.58707  0.33584  0.75633  1.0000
  H   H3284     1.0  0.32649  0.36889  0.75277  1.0000
  H   H3285     1.0  0.56770  0.32710  0.75139  1.0000
  C   C2040     1.0  0.59493  0.32843  0.74971  1.0000
  H   H3286     1.0  0.62555  0.60144  0.77471  1.0000
  N   N207      1.0  0.64533  0.59648  0.75938  1.0000
  C   C2041     1.0  0.65309  0.58473  0.75165  1.0000
  H   H3287     1.0  0.65201  0.61315  0.74153  1.0000
  H   H3288     1.0  0.33533  0.35495  0.74274  1.0000
  H   H3289     1.0  0.57813  0.32538  0.73369  1.0000
  H   H3290     1.0  0.64637  0.58295  0.74511  1.0000
  C   C2042     1.0  0.32978  0.31931  0.73536  1.0000
  H   H3291     1.0  0.64904  0.60712  0.77416  1.0000
  H   H3292     1.0  0.60525  0.32557  0.75347  1.0000
  H   H3293     1.0  0.65694  0.58812  0.77659  1.0000
  S   S817      1.0  0.63907  0.78084  0.19665  1.0000
  H   H3294     1.0  0.43208  0.69943  0.21352  1.0000
  C   C2043     1.0  0.58713  0.65302  0.20828  1.0000
  S   S818      1.0  0.38687  0.74073  0.21578  1.0000
  H   H3295     1.0  0.63448  0.66042  0.21312  1.0000
  C   C2044     1.0  0.38489  0.65657  0.19514  1.0000
  H   H3296     1.0  0.57768  0.66225  0.20807  1.0000
  H   H3297     1.0  0.33962  0.75267  0.22797  1.0000
  N   N208      1.0  0.64942  0.82101  0.17289  1.0000
  Fe  Fe410     1.0  0.65273  0.77934  0.21221  1.0000
  S   S819      1.0  0.32504  0.82646  0.13841  1.0000
  H   H3298     1.0  0.34704  0.80153  0.07177  1.0000
  C   C2045     1.0  0.32831  0.78451  0.08536  1.0000
  H   H3299     1.0  0.63537  0.83004  0.19070  1.0000
  H   H3300     1.0  0.58695  0.66963  0.18154  1.0000
  Fe  Fe411     1.0  0.33920  0.69127  0.16659  1.0000
  Fe  Fe412     1.0  0.32669  0.80493  0.15398  1.0000
  S   S820      1.0  0.34949  0.66915  0.17770  1.0000
  Fe  Fe413     1.0  0.33885  0.71600  0.14018  1.0000
  H   H3301     1.0  0.34378  0.74678  0.06915  1.0000
  S   S821      1.0  0.35055  0.72573  0.11835  1.0000
  H   H3302     1.0  0.32809  0.72822  0.22528  1.0000
  H   H3303     1.0  0.64544  0.76568  0.13708  1.0000
  H   H3304     1.0  0.33190  0.79289  0.21212  1.0000
  N   N209      1.0  0.41499  0.69440  0.20722  1.0000
  S   S822      1.0  0.34952  0.71043  0.15903  1.0000
  H   H3305     1.0  0.41720  0.69206  0.18555  1.0000
  H   H3306     1.0  0.33843  0.81085  0.05682  1.0000
  Fe  Fe414     1.0  0.60776  0.74078  0.16831  1.0000
  S   S823      1.0  0.62371  0.73261  0.18263  1.0000
  S   S824      1.0  0.60750  0.76350  0.15560  1.0000
  Fe  Fe415     1.0  0.59497  0.71413  0.18015  1.0000
  S   S825      1.0  0.60945  0.70417  0.19592  1.0000
  S   S826      1.0  0.58084  0.70078  0.17775  1.0000
  Fe  Fe416     1.0  0.60503  0.72651  0.19982  1.0000
  H   H3307     1.0  0.43021  0.68091  0.21997  1.0000
  Fe  Fe417     1.0  0.62666  0.71132  0.17724  1.0000
  H   H3308     1.0  0.56142  0.77955  0.22470  1.0000
  S   S827      1.0  0.58874  0.73594  0.18591  1.0000
  S   S828      1.0  0.61252  0.71989  0.16110  1.0000
  H   H3309     1.0  0.62999  0.79043  0.10980  1.0000
  H   H3310     1.0  0.64092  0.81885  0.15573  1.0000
  H   H3311     1.0  0.37044  0.77442  0.17334  1.0000
  H   H3312     1.0  0.32719  0.75525  0.21669  1.0000
  C   C2046     1.0  0.35854  0.75446  0.15864  1.0000
  C   C2047     1.0  0.42395  0.69083  0.19345  1.0000
  H   H3313     1.0  0.59449  0.67872  0.19903  1.0000
  C   C2048     1.0  0.36187  0.77823  0.18181  1.0000
  H   H3314     1.0  0.57241  0.75464  0.21978  1.0000
  H   H3315     1.0  0.63567  0.68565  0.20045  1.0000
  C   C2049     1.0  0.32799  0.75493  0.22785  1.0000
  C   C2050     1.0  0.35915  0.76936  0.13460  1.0000
  S   S829      1.0  0.41253  0.66146  0.18675  1.0000
  C   C2051     1.0  0.65439  0.76831  0.14009  1.0000
  H   H3316     1.0  0.36821  0.74358  0.12664  1.0000
  S   S830      1.0  0.34778  0.79290  0.16013  1.0000
  H   H3317     1.0  0.37982  0.74531  0.13722  1.0000
  S   S831      1.0  0.33055  0.69553  0.14651  1.0000
  N   N210      1.0  0.35750  0.75504  0.14374  1.0000
  H   H3318     1.0  0.34213  0.75271  0.13298  1.0000
  C   C2052     1.0  0.63831  0.78292  0.15644  1.0000
  C   C2053     1.0  0.64601  0.75732  0.16498  1.0000
  C   C2054     1.0  0.40440  0.68503  0.21329  1.0000
  C   C2055     1.0  0.59604  0.66014  0.18254  1.0000
  S   S832      1.0  0.64262  0.77006  0.09125  1.0000
  C   C2056     1.0  0.61068  0.74785  0.21552  1.0000
  C   C2057     1.0  0.60959  0.75718  0.20215  1.0000
  C   C2058     1.0  0.61775  0.76787  0.19666  1.0000
  C   C2059     1.0  0.62706  0.76920  0.20453  1.0000
  H   H3319     1.0  0.41481  0.71714  0.20035  1.0000
  C   C2060     1.0  0.60364  0.66921  0.19917  1.0000
  H   H3320     1.0  0.60283  0.75588  0.19575  1.0000
  H   H3321     1.0  0.61719  0.77469  0.18610  1.0000
  H   H3322     1.0  0.65559  0.71420  0.12076  1.0000
  H   H3323     1.0  0.65708  0.83533  0.15316  1.0000
  S   S833      1.0  0.64751  0.80931  0.09213  1.0000
  C   C2061     1.0  0.56710  0.69721  0.19287  1.0000
  C   C2062     1.0  0.55951  0.68676  0.19366  1.0000
  C   C2063     1.0  0.54889  0.68326  0.20590  1.0000
  C   C2064     1.0  0.54539  0.69067  0.21710  1.0000
  C   C2065     1.0  0.55281  0.70129  0.21626  1.0000
  C   C2066     1.0  0.56386  0.70438  0.20424  1.0000
  H   H3324     1.0  0.56181  0.68138  0.18477  1.0000
  H   H3325     1.0  0.63410  0.80886  0.17340  1.0000
  H   H3326     1.0  0.43187  0.69788  0.18842  1.0000
  H   H3327     1.0  0.47690  0.67615  0.22078  1.0000
  H   H3328     1.0  0.33032  0.66043  0.15719  1.0000
  H   H3329     1.0  0.63539  0.78509  0.16750  1.0000
  C   C2067     1.0  0.63144  0.76857  0.10856  1.0000
  C   C2068     1.0  0.62730  0.75552  0.11585  1.0000
  C   C2069     1.0  0.61980  0.75383  0.13032  1.0000
  C   C2070     1.0  0.61585  0.76543  0.13726  1.0000
  C   C2071     1.0  0.61918  0.77875  0.12965  1.0000
  C   C2072     1.0  0.62725  0.78021  0.11546  1.0000
  H   H3330     1.0  0.36944  0.77191  0.13471  1.0000
  H   H3331     1.0  0.61692  0.74364  0.13602  1.0000
  H   H3332     1.0  0.61577  0.78789  0.13481  1.0000
  Fe  Fe418     1.0  0.32849  0.72226  0.16996  1.0000
  H   H3333     1.0  0.43002  0.67942  0.19505  1.0000
  H   H3334     1.0  0.32842  0.65200  0.17597  1.0000
  C   C2073     1.0  0.37088  0.65847  0.19306  1.0000
  Fe  Fe419     1.0  0.65559  0.78674  0.08792  1.0000
  H   H3335     1.0  0.37361  0.76715  0.19859  1.0000
  H   H3336     1.0  0.40030  0.71231  0.21481  1.0000
  H   H3337     1.0  0.60687  0.66687  0.20971  1.0000
  C   C2074     1.0  0.33828  0.79267  0.18934  1.0000
  C   C2075     1.0  0.35294  0.77940  0.20708  1.0000
  C   C2076     1.0  0.36647  0.66818  0.18094  1.0000
  C   C2077     1.0  0.37604  0.67620  0.17105  1.0000
  C   C2078     1.0  0.39005  0.67425  0.17309  1.0000
  H   H3338     1.0  0.33439  0.76089  0.14854  1.0000
  H   H3339     1.0  0.37281  0.68356  0.16155  1.0000
  H   H3340     1.0  0.39749  0.68026  0.16521  1.0000
  C   C2079     1.0  0.65353  0.83488  0.16501  1.0000
  H   H3341     1.0  0.62801  0.82808  0.16884  1.0000
  C   C2080     1.0  0.63759  0.81912  0.16745  1.0000
  C   C2081     1.0  0.33979  0.73396  0.10546  1.0000
  C   C2082     1.0  0.34657  0.73761  0.09095  1.0000
  H   H3342     1.0  0.35798  0.74358  0.16565  1.0000
  H   H3343     1.0  0.34191  0.78809  0.04920  1.0000
  C   C2083     1.0  0.33840  0.74430  0.08038  1.0000
  H   H3344     1.0  0.35819  0.73502  0.08784  1.0000
  H   H3345     1.0  0.65337  0.82201  0.19306  1.0000
  H   H3346     1.0  0.35036  0.77806  0.13855  1.0000
  C   C2084     1.0  0.36004  0.71536  0.21154  1.0000
  C   C2085     1.0  0.35421  0.70741  0.20558  1.0000
  C   C2086     1.0  0.34473  0.71456  0.19633  1.0000
  C   C2087     1.0  0.34110  0.72965  0.19300  1.0000
  C   C2088     1.0  0.34730  0.73762  0.19856  1.0000
  C   C2089     1.0  0.35669  0.73046  0.20792  1.0000
  H   H3347     1.0  0.35687  0.69573  0.20820  1.0000
  H   H3348     1.0  0.34006  0.70833  0.19198  1.0000
  H   H3349     1.0  0.34480  0.74930  0.19568  1.0000
  H   H3350     1.0  0.36104  0.73671  0.21254  1.0000
  H   H3351     1.0  0.60527  0.66296  0.17373  1.0000
  S   S834      1.0  0.42556  0.73114  0.22293  1.0000
  H   H3352     1.0  0.63419  0.76181  0.22465  1.0000
  H   H3353     1.0  0.40016  0.71173  0.19681  1.0000
  H   H3354     1.0  0.64306  0.75842  0.17646  1.0000
  N   N211      1.0  0.59968  0.65663  0.19691  1.0000
  H   H3355     1.0  0.32939  0.81261  0.07484  1.0000
  S   S835      1.0  0.64870  0.69777  0.17134  1.0000
  H   H3356     1.0  0.64123  0.81074  0.19479  1.0000
  H   H3357     1.0  0.35066  0.77822  0.06392  1.0000
  N   N212      1.0  0.33028  0.79227  0.07006  1.0000
  C   C2090     1.0  0.64816  0.67996  0.18040  1.0000
  C   C2091     1.0  0.34004  0.78251  0.06078  1.0000
  S   S836      1.0  0.60290  0.73265  0.22082  1.0000
  C   C2092     1.0  0.36894  0.74371  0.13774  1.0000
  C   C2093     1.0  0.64067  0.67699  0.19475  1.0000
  H   H3358     1.0  0.63642  0.75536  0.16247  1.0000
  H   H3359     1.0  0.63001  0.74665  0.11041  1.0000
  C   C2094     1.0  0.62729  0.76061  0.21838  1.0000
  C   C2095     1.0  0.34922  0.78757  0.17836  1.0000
  H   H3360     1.0  0.48154  0.69665  0.22804  1.0000
  H   H3361     1.0  0.65208  0.73921  0.09448  1.0000
  H   H3362     1.0  0.39665  0.68708  0.20617  1.0000
  C   C2096     1.0  0.64010  0.66272  0.20196  1.0000
  H   H3363     1.0  0.33878  0.78007  0.08881  1.0000
  H   H3364     1.0  0.64441  0.84421  0.16667  1.0000
  H   H3365     1.0  0.34176  0.74198  0.15093  1.0000
  C   C2097     1.0  0.64462  0.82096  0.18851  1.0000
  H   H3366     1.0  0.43538  0.75376  0.22820  1.0000
  N   N213      1.0  0.65042  0.77036  0.15512  1.0000
  C   C2098     1.0  0.39457  0.66434  0.18506  1.0000
  H   H3367     1.0  0.35885  0.77001  0.12320  1.0000
  H   H3368     1.0  0.34954  0.76229  0.16381  1.0000
  S   S837      1.0  0.35541  0.77493  0.22496  1.0000
  C   C2099     1.0  0.61899  0.75003  0.22395  1.0000
  H   H3369     1.0  0.64097  0.79285  0.14864  1.0000
  H   H3370     1.0  0.36875  0.75706  0.15889  1.0000
  C   C2100     1.0  0.36367  0.77406  0.19614  1.0000
  H   H3371     1.0  0.41765  0.69476  0.22817  1.0000
  H   H3372     1.0  0.55009  0.70704  0.22492  1.0000
  H   H3373     1.0  0.40971  0.67348  0.21455  1.0000
  C   C2101     1.0  0.34331  0.75260  0.14399  1.0000
  H   H3374     1.0  0.36806  0.73278  0.14448  1.0000
  C   C2102     1.0  0.40726  0.70960  0.20459  1.0000
  C   C2103     1.0  0.33659  0.80485  0.06826  1.0000
  C   C2104     1.0  0.34020  0.78868  0.20368  1.0000
  C   C2105     1.0  0.42419  0.69226  0.21763  1.0000
  H   H3375     1.0  0.56969  0.71247  0.20365  1.0000
  H   H3376     1.0  0.54308  0.67515  0.20648  1.0000
  S   S838      1.0  0.37094  0.70638  0.22400  1.0000
  H   H3377     1.0  0.58588  0.76713  0.22841  1.0000
  H   H3378     1.0  0.32853  0.79993  0.18673  1.0000
  H   H3379     1.0  0.33545  0.77309  0.06159  1.0000
  H   H3380     1.0  0.62850  0.78103  0.15432  1.0000
  H   H3381     1.0  0.61278  0.67251  0.19051  1.0000
  H   H3382     1.0  0.39815  0.68675  0.22416  1.0000
  S   S839      1.0  0.32888  0.73848  0.18185  1.0000
  H   H3383     1.0  0.65081  0.73301  0.12131  1.0000
  C   C2106     1.0  0.65489  0.65437  0.18057  1.0000
  H   H3384     1.0  0.65472  0.74752  0.16414  1.0000
  H   H3385     1.0  0.49135  0.66423  0.22880  1.0000
  C   C2107     1.0  0.65539  0.66863  0.17335  1.0000
  H   H3386     1.0  0.65677  0.72028  0.09446  1.0000
  H   H3387     1.0  0.36350  0.65227  0.20076  1.0000
  H   H3388     1.0  0.65693  0.77830  0.13234  1.0000
  C   C2108     1.0  0.32471  0.73717  0.10938  1.0000
  S   S840      1.0  0.64374  0.79090  0.23049  1.0000
  Fe  Fe420     1.0  0.37196  0.75473  0.23061  1.0000
  H   H3389     1.0  0.43250  0.70974  0.24798  1.0000
  H   H3390     1.0  0.36900  0.69419  0.31746  1.0000
  C   C2109     1.0  0.42336  0.66537  0.26065  1.0000
  H   H3391     1.0  0.35829  0.75737  0.26801  1.0000
  H   H3392     1.0  0.37997  0.68118  0.25173  1.0000
  H   H3393     1.0  0.42200  0.74866  0.28869  1.0000
  H   H3394     1.0  0.61933  0.76323  0.30524  1.0000
  H   H3395     1.0  0.56704  0.74308  0.25955  1.0000
  H   H3396     1.0  0.33359  0.73705  0.33034  1.0000
  S   S841      1.0  0.36563  0.72693  0.45520  1.0000
  H   H3397     1.0  0.42275  0.70970  0.45942  1.0000
  H   H3398     1.0  0.33218  0.75348  0.31678  1.0000
  C   C2110     1.0  0.47957  0.66761  0.25597  1.0000
  H   H3399     1.0  0.45712  0.69178  0.23563  1.0000
  Fe  Fe421     1.0  0.33781  0.70267  0.39866  1.0000
  S   S842      1.0  0.35499  0.69328  0.38141  1.0000
  S   S843      1.0  0.33996  0.66331  0.37455  1.0000
  Fe  Fe422     1.0  0.34739  0.71421  0.36665  1.0000
  S   S844      1.0  0.36096  0.72601  0.34731  1.0000
  H   H3400     1.0  0.60020  0.71570  0.26867  1.0000
  C   C2111     1.0  0.32671  0.67339  0.35137  1.0000
  Fe  Fe423     1.0  0.44214  0.69855  0.32129  1.0000
  S   S845      1.0  0.45781  0.71334  0.31240  1.0000
  S   S846      1.0  0.42701  0.69747  0.34307  1.0000
  Fe  Fe424     1.0  0.45384  0.68258  0.29668  1.0000
  S   S847      1.0  0.47031  0.69600  0.28552  1.0000
  S   S848      1.0  0.45473  0.66306  0.28848  1.0000
  Fe  Fe425     1.0  0.47437  0.69362  0.30754  1.0000
  S   S849      1.0  0.49735  0.68513  0.31044  1.0000
  Fe  Fe426     1.0  0.45249  0.71442  0.29120  1.0000
  S   S850      1.0  0.44956  0.73506  0.27472  1.0000
  S   S851      1.0  0.45918  0.67868  0.31831  1.0000
  S   S852      1.0  0.43544  0.70125  0.30042  1.0000
  H   H3401     1.0  0.58089  0.76913  0.24690  1.0000
  N   N214      1.0  0.61877  0.69706  0.39166  1.0000
  N   N215      1.0  0.33906  0.65198  0.42453  1.0000
  C   C2112     1.0  0.48397  0.68908  0.23819  1.0000
  H   H3402     1.0  0.63369  0.68748  0.26511  1.0000
  H   H3403     1.0  0.47685  0.67341  0.26495  1.0000
  Fe  Fe427     1.0  0.63595  0.74325  0.38117  1.0000
  C   C2113     1.0  0.43343  0.73164  0.23672  1.0000
  S   S853      1.0  0.61758  0.74891  0.36919  1.0000
  Fe  Fe428     1.0  0.64586  0.74818  0.40697  1.0000
  H   H3404     1.0  0.63161  0.74381  0.32257  1.0000
  S   S854      1.0  0.63822  0.75615  0.42824  1.0000
  H   H3405     1.0  0.54741  0.68629  0.25402  1.0000
  Fe  Fe429     1.0  0.40172  0.73548  0.23106  1.0000
  H   H3406     1.0  0.36710  0.66346  0.34933  1.0000
  C   C2114     1.0  0.33016  0.66183  0.36266  1.0000
  S   S855      1.0  0.64612  0.76018  0.38378  1.0000
  S   S856      1.0  0.63348  0.73290  0.40482  1.0000
  S   S857      1.0  0.36149  0.73694  0.24499  1.0000
  N   N216      1.0  0.62138  0.70822  0.25665  1.0000
  H   H3407     1.0  0.36759  0.67874  0.26884  1.0000
  C   C2115     1.0  0.43429  0.65316  0.26303  1.0000
  Fe  Fe430     1.0  0.65512  0.71902  0.39842  1.0000
  C   C2116     1.0  0.55741  0.65516  0.28997  1.0000
  H   H3408     1.0  0.38818  0.66992  0.35333  1.0000
  S   S858      1.0  0.64933  0.75976  0.26601  1.0000
  H   H3409     1.0  0.60047  0.70992  0.25275  1.0000
  Fe  Fe431     1.0  0.55919  0.71701  0.31541  1.0000
  S   S859      1.0  0.57443  0.69657  0.32350  1.0000
  S   S860      1.0  0.53487  0.72305  0.32145  1.0000
  Fe  Fe432     1.0  0.58295  0.72952  0.29318  1.0000
  S   S861      1.0  0.59989  0.71026  0.29917  1.0000
  S   S862      1.0  0.58810  0.74696  0.27383  1.0000
  Fe  Fe433     1.0  0.58412  0.69733  0.29988  1.0000
  S   S863      1.0  0.59148  0.68031  0.28648  1.0000
  Fe  Fe434     1.0  0.58901  0.71149  0.32214  1.0000
  S   S864      1.0  0.60552  0.70739  0.33605  1.0000
  S   S865      1.0  0.56801  0.71660  0.29202  1.0000
  S   S866      1.0  0.57292  0.73190  0.31596  1.0000
  C   C2117     1.0  0.63237  0.75607  0.26832  1.0000
  C   C2118     1.0  0.62466  0.76186  0.25733  1.0000
  C   C2119     1.0  0.61101  0.75915  0.25916  1.0000
  C   C2120     1.0  0.60502  0.75055  0.27201  1.0000
  C   C2121     1.0  0.61271  0.74471  0.28307  1.0000
  C   C2122     1.0  0.62643  0.74741  0.28120  1.0000
  H   H3410     1.0  0.62915  0.76857  0.24743  1.0000
  H   H3411     1.0  0.60518  0.76374  0.25057  1.0000
  H   H3412     1.0  0.60806  0.73822  0.29311  1.0000
  H   H3413     1.0  0.63241  0.74282  0.28971  1.0000
  H   H3414     1.0  0.33961  0.72692  0.23719  1.0000
  S   S867      1.0  0.32787  0.65561  0.46972  1.0000
  H   H3415     1.0  0.65302  0.77238  0.30679  1.0000
  C   C2123     1.0  0.57847  0.67042  0.28812  1.0000
  C   C2124     1.0  0.56648  0.67058  0.29957  1.0000
  N   N217      1.0  0.47585  0.67741  0.24259  1.0000
  C   C2125     1.0  0.43702  0.74441  0.23687  1.0000
  H   H3416     1.0  0.64583  0.78347  0.42447  1.0000
  H   H3417     1.0  0.56529  0.67656  0.30775  1.0000
  H   H3418     1.0  0.60493  0.72688  0.25128  1.0000
  C   C2126     1.0  0.61493  0.73820  0.35856  1.0000
  C   C2127     1.0  0.60147  0.74091  0.35492  1.0000
  C   C2128     1.0  0.59865  0.73207  0.34726  1.0000
  C   C2129     1.0  0.60927  0.72036  0.34327  1.0000
  C   C2130     1.0  0.62293  0.71804  0.34636  1.0000
  C   C2131     1.0  0.62580  0.72699  0.35384  1.0000
  H   H3419     1.0  0.59301  0.74964  0.35840  1.0000
  H   H3420     1.0  0.58806  0.73394  0.34501  1.0000
  H   H3421     1.0  0.63125  0.70906  0.34322  1.0000
  H   H3422     1.0  0.63634  0.72503  0.35618  1.0000
  C   C2132     1.0  0.35285  0.73901  0.28446  1.0000
  H   H3423     1.0  0.38738  0.73463  0.46751  1.0000
  H   H3424     1.0  0.40387  0.74007  0.45771  1.0000
  H   H3425     1.0  0.51776  0.71580  0.26636  1.0000
  C   C2133     1.0  0.36482  0.67437  0.34226  1.0000
  H   H3426     1.0  0.44492  0.75521  0.24859  1.0000
  H   H3427     1.0  0.34404  0.72244  0.30099  1.0000
  C   C2134     1.0  0.52695  0.68795  0.27804  1.0000
  H   H3428     1.0  0.64010  0.71128  0.26182  1.0000
  N   N218      1.0  0.37812  0.67983  0.33510  1.0000
  H   H3429     1.0  0.62470  0.71766  0.38327  1.0000
  H   H3430     1.0  0.39636  0.76570  0.26403  1.0000
  C   C2135     1.0  0.34990  0.66734  0.26032  1.0000
  H   H3431     1.0  0.45687  0.68927  0.25450  1.0000
  C   C2136     1.0  0.52805  0.71017  0.26033  1.0000
  H   H3432     1.0  0.33197  0.74336  0.25485  1.0000
  H   H3433     1.0  0.61806  0.67463  0.40007  1.0000
  H   H3434     1.0  0.38677  0.77035  0.28104  1.0000
  H   H3435     1.0  0.48476  0.66669  0.29792  1.0000
  H   H3436     1.0  0.62451  0.76715  0.34011  1.0000
  H   H3437     1.0  0.39929  0.73273  0.27505  1.0000
  H   H3438     1.0  0.61669  0.68704  0.26189  1.0000
  C   C2137     1.0  0.32820  0.72939  0.23621  1.0000
  H   H3439     1.0  0.41624  0.72977  0.28001  1.0000
  H   H3440     1.0  0.61948  0.69443  0.37039  1.0000
  N   N219      1.0  0.40214  0.75014  0.28269  1.0000
  C   C2138     1.0  0.50733  0.69585  0.31392  1.0000
  C   C2139     1.0  0.50168  0.71035  0.31460  1.0000
  C   C2140     1.0  0.51019  0.71855  0.31703  1.0000
  C   C2141     1.0  0.52446  0.71241  0.31852  1.0000
  C   C2142     1.0  0.53011  0.69793  0.31775  1.0000
  C   C2143     1.0  0.52152  0.68969  0.31557  1.0000
  H   H3441     1.0  0.49074  0.71522  0.31339  1.0000
  H   H3442     1.0  0.50572  0.72972  0.31773  1.0000
  H   H3443     1.0  0.54101  0.69303  0.31908  1.0000
  H   H3444     1.0  0.52582  0.67845  0.31524  1.0000
  C   C2144     1.0  0.44235  0.66421  0.27802  1.0000
  C   C2145     1.0  0.43160  0.67658  0.27542  1.0000
  H   H3445     1.0  0.63544  0.70517  0.39507  1.0000
  C   C2146     1.0  0.38526  0.68066  0.34621  1.0000
  H   H3446     1.0  0.34247  0.66610  0.40365  1.0000
  C   C2147     1.0  0.55714  0.77447  0.23609  1.0000
  H   H3447     1.0  0.43058  0.68568  0.28008  1.0000
  H   H3448     1.0  0.34646  0.67207  0.47213  1.0000
  C   C2148     1.0  0.44242  0.74522  0.24838  1.0000
  C   C2149     1.0  0.44434  0.73324  0.25971  1.0000
  C   C2150     1.0  0.44112  0.72030  0.25940  1.0000
  C   C2151     1.0  0.43549  0.71956  0.24798  1.0000
  H   H3449     1.0  0.42719  0.72486  0.46288  1.0000
  H   H3450     1.0  0.44253  0.71104  0.26817  1.0000
  H   H3451     1.0  0.37815  0.68804  0.35328  1.0000
  C   C2152     1.0  0.37946  0.71900  0.34631  1.0000
  C   C2153     1.0  0.38890  0.72011  0.33280  1.0000
  C   C2154     1.0  0.40361  0.71372  0.33166  1.0000
  C   C2155     1.0  0.40889  0.70631  0.34410  1.0000
  C   C2156     1.0  0.39944  0.70539  0.35764  1.0000
  C   C2157     1.0  0.38475  0.71172  0.35876  1.0000
  H   H3452     1.0  0.38470  0.72555  0.32321  1.0000
  H   H3453     1.0  0.41084  0.71439  0.32121  1.0000
  C   C2158     1.0  0.33063  0.74904  0.32864  1.0000
  H   H3454     1.0  0.37757  0.71100  0.36926  1.0000
  H   H3455     1.0  0.35723  0.68158  0.34927  1.0000
  H   H3456     1.0  0.52466  0.68267  0.27047  1.0000
  H   H3457     1.0  0.61957  0.74321  0.23447  1.0000
  C   C2159     1.0  0.64887  0.76171  0.43693  1.0000
  H   H3458     1.0  0.36512  0.66093  0.23452  1.0000
  C   C2160     1.0  0.64371  0.77477  0.31580  1.0000
  N   N220      1.0  0.36507  0.66799  0.25350  1.0000
  H   H3459     1.0  0.64868  0.74759  0.31215  1.0000
  H   H3460     1.0  0.54513  0.69643  0.28847  1.0000
  H   H3461     1.0  0.54597  0.77350  0.23683  1.0000
  C   C2161     1.0  0.35852  0.71840  0.44583  1.0000
  C   C2162     1.0  0.35259  0.70635  0.45305  1.0000
  C   C2163     1.0  0.34706  0.69957  0.44549  1.0000
  C   C2164     1.0  0.34707  0.70496  0.43075  1.0000
  C   C2165     1.0  0.35304  0.71700  0.42345  1.0000
  C   C2166     1.0  0.35888  0.72362  0.43097  1.0000
  H   H3462     1.0  0.35246  0.70212  0.46444  1.0000
  H   H3463     1.0  0.34265  0.69014  0.45109  1.0000
  H   H3464     1.0  0.35315  0.72120  0.41206  1.0000
  H   H3465     1.0  0.36353  0.73291  0.42530  1.0000
  C   C2167     1.0  0.42204  0.67712  0.26682  1.0000
  Fe  Fe435     1.0  0.53509  0.66296  0.24095  1.0000
  C   C2168     1.0  0.34979  0.75289  0.27595  1.0000
  H   H3466     1.0  0.62337  0.71710  0.27363  1.0000
  H   H3467     1.0  0.45383  0.67525  0.24790  1.0000
  H   H3468     1.0  0.54603  0.71299  0.27536  1.0000
  H   H3469     1.0  0.32839  0.67008  0.43454  1.0000
  S   S868      1.0  0.37043  0.72863  0.28178  1.0000
  C   C2169     1.0  0.62856  0.70755  0.24149  1.0000
  C   C2170     1.0  0.38794  0.66994  0.32598  1.0000
  H   H3470     1.0  0.51645  0.69312  0.28407  1.0000
  H   H3471     1.0  0.49201  0.65638  0.28412  1.0000
  H   H3472     1.0  0.63097  0.68064  0.40570  1.0000
  C   C2171     1.0  0.62749  0.76958  0.30423  1.0000
  H   H3473     1.0  0.61245  0.76328  0.33156  1.0000
  H   H3474     1.0  0.61549  0.78128  0.32769  1.0000
  H   H3475     1.0  0.33032  0.68322  0.34963  1.0000
  H   H3476     1.0  0.38294  0.66910  0.31741  1.0000
  H   H3477     1.0  0.39813  0.67374  0.32051  1.0000
  C   C2172     1.0  0.34173  0.73324  0.29453  1.0000
  H   H3478     1.0  0.33341  0.77190  0.27120  1.0000
  C   C2173     1.0  0.40788  0.73813  0.27497  1.0000
  H   H3479     1.0  0.47377  0.66016  0.23417  1.0000
  H   H3480     1.0  0.61066  0.75761  0.47353  1.0000
  H   H3481     1.0  0.41011  0.76605  0.28794  1.0000
  H   H3482     1.0  0.39090  0.65886  0.33252  1.0000
  H   H3483     1.0  0.49581  0.68471  0.23627  1.0000
  H   H3484     1.0  0.38424  0.69882  0.32043  1.0000
  H   H3485     1.0  0.61719  0.69345  0.27709  1.0000
  H   H3486     1.0  0.62559  0.76649  0.46741  1.0000
  C   C2174     1.0  0.60609  0.71548  0.25736  1.0000
  C   C2175     1.0  0.56030  0.75383  0.25578  1.0000
  H   H3487     1.0  0.38611  0.65467  0.25446  1.0000
  Fe  Fe436     1.0  0.33735  0.68602  0.37678  1.0000
  H   H3488     1.0  0.42752  0.70829  0.47626  1.0000
  C   C2176     1.0  0.49385  0.65817  0.29414  1.0000
  C   C2177     1.0  0.62079  0.76964  0.32976  1.0000
  S   S869      1.0  0.39331  0.71646  0.24565  1.0000
  H   H3489     1.0  0.36156  0.69062  0.25320  1.0000
  H   H3490     1.0  0.53228  0.67931  0.28604  1.0000
  C   C2178     1.0  0.54949  0.69144  0.26186  1.0000
  H   H3491     1.0  0.63451  0.67787  0.38765  1.0000
  N   N221      1.0  0.63287  0.76616  0.31770  1.0000
  C   C2179     1.0  0.32752  0.74125  0.29585  1.0000
  H   H3492     1.0  0.62320  0.70175  0.23686  1.0000
  H   H3493     1.0  0.34987  0.65257  0.44062  1.0000
  C   C2180     1.0  0.53923  0.70491  0.28078  1.0000
  C   C2181     1.0  0.46025  0.68372  0.24524  1.0000
  H   H3494     1.0  0.59956  0.69562  0.40819  1.0000
  S   S870      1.0  0.38794  0.75156  0.24441  1.0000
  H   H3495     1.0  0.63910  0.78655  0.31320  1.0000
  N   N222      1.0  0.53594  0.69863  0.27024  1.0000
  H   H3496     1.0  0.33852  0.75236  0.33268  1.0000
  H   H3497     1.0  0.35974  0.68011  0.23320  1.0000
  C   C2182     1.0  0.64978  0.77623  0.43367  1.0000
  H   H3498     1.0  0.63792  0.70276  0.37706  1.0000
  H   H3499     1.0  0.37828  0.67140  0.23210  1.0000
  C   C2183     1.0  0.62585  0.68187  0.39649  1.0000
  H   H3500     1.0  0.60328  0.69157  0.38332  1.0000
  N   N223      1.0  0.40636  0.72079  0.47440  1.0000
  H   H3501     1.0  0.38236  0.75658  0.27517  1.0000
  C   C2184     1.0  0.36868  0.68015  0.25700  1.0000
  H   H3502     1.0  0.55650  0.69917  0.25568  1.0000
  C   C2185     1.0  0.62132  0.75742  0.47547  1.0000
  C   C2186     1.0  0.44364  0.65254  0.27181  1.0000
  C   C2187     1.0  0.39894  0.73053  0.46303  1.0000
  H   H3503     1.0  0.55571  0.68284  0.26911  1.0000
  H   H3504     1.0  0.64800  0.77250  0.32576  1.0000
  H   H3505     1.0  0.62823  0.71851  0.23447  1.0000
  C   C2188     1.0  0.62233  0.69340  0.26554  1.0000
  C   C2189     1.0  0.55613  0.66273  0.30063  1.0000
  H   H3506     1.0  0.62239  0.78122  0.30136  1.0000
  H   H3507     1.0  0.34793  0.66574  0.27229  1.0000
  H   H3508     1.0  0.48121  0.69556  0.24666  1.0000
  H   H3509     1.0  0.55651  0.78203  0.24301  1.0000
  H   H3510     1.0  0.65260  0.74145  0.45212  1.0000
  H   H3511     1.0  0.35819  0.65311  0.40784  1.0000
  C   C2190     1.0  0.34823  0.66027  0.41254  1.0000
  S   S871      1.0  0.65763  0.69581  0.41027  1.0000
  C   C2191     1.0  0.39519  0.74456  0.29773  1.0000
  H   H3512     1.0  0.39075  0.75327  0.30397  1.0000
  H   H3513     1.0  0.40301  0.73617  0.30348  1.0000
  H   H3514     1.0  0.38616  0.73958  0.29807  1.0000
  H   H3515     1.0  0.60246  0.71365  0.40051  1.0000
  C   C2192     1.0  0.39144  0.76120  0.27541  1.0000
  Fe  Fe437     1.0  0.65651  0.77152  0.24317  1.0000
  H   H3516     1.0  0.36710  0.70212  0.33253  1.0000
  C   C2193     1.0  0.41406  0.75659  0.28270  1.0000
  S   S872      1.0  0.33906  0.69644  0.42222  1.0000
  H   H3517     1.0  0.52532  0.70571  0.25233  1.0000
  C   C2194     1.0  0.32585  0.66189  0.43021  1.0000
  H   H3518     1.0  0.40350  0.69971  0.36730  1.0000
  C   C2195     1.0  0.33569  0.76111  0.27770  1.0000
  C   C2196     1.0  0.60796  0.70219  0.40388  1.0000
  C   C2197     1.0  0.32450  0.75526  0.28753  1.0000
  H   H3519     1.0  0.62792  0.72769  0.25585  1.0000
  H   H3520     1.0  0.62871  0.74724  0.47296  1.0000
  H   H3521     1.0  0.50378  0.66255  0.29141  1.0000
  C   C2198     1.0  0.63952  0.75061  0.32103  1.0000
  C   C2199     1.0  0.62853  0.71640  0.26221  1.0000
  H   H3522     1.0  0.54708  0.66259  0.30969  1.0000
  S   S873      1.0  0.41126  0.66604  0.25006  1.0000
  C   C2200     1.0  0.58005  0.66240  0.27773  1.0000
  H   H3523     1.0  0.58940  0.66211  0.26895  1.0000
  H   H3524     1.0  0.61306  0.70167  0.41291  1.0000
  H   H3525     1.0  0.64006  0.70193  0.24057  1.0000
  C   C2201     1.0  0.61164  0.69818  0.37982  1.0000
  C   C2202     1.0  0.65352  0.75262  0.44930  1.0000
  H   H3526     1.0  0.60624  0.70954  0.37588  1.0000
  C   C2203     1.0  0.58097  0.76215  0.23961  1.0000
  H   H3527     1.0  0.39534  0.68478  0.34124  1.0000
  H   H3528     1.0  0.41364  0.68663  0.26494  1.0000
  H   H3529     1.0  0.63638  0.76711  0.29491  1.0000
  S   S874      1.0  0.33153  0.72430  0.38425  1.0000
  H   H3530     1.0  0.41286  0.74199  0.26346  1.0000
  H   H3531     1.0  0.49125  0.66261  0.25436  1.0000
  H   H3532     1.0  0.53452  0.71838  0.25416  1.0000
  H   H3533     1.0  0.42008  0.76020  0.27152  1.0000
  H   H3534     1.0  0.52922  0.71036  0.28736  1.0000
  H   H3535     1.0  0.35151  0.66843  0.41623  1.0000
  S   S875      1.0  0.52089  0.65750  0.26254  1.0000
  H   H3536     1.0  0.47365  0.65864  0.25967  1.0000
  C   C2204     1.0  0.37445  0.69435  0.32597  1.0000
  C   C2205     1.0  0.62969  0.70605  0.38649  1.0000
  H   H3537     1.0  0.57342  0.73958  0.23474  1.0000
  N   N224      1.0  0.56635  0.76025  0.24066  1.0000
  H   H3538     1.0  0.55994  0.76070  0.26332  1.0000
  H   H3539     1.0  0.54920  0.75238  0.25710  1.0000
  Fe  Fe438     1.0  0.37827  0.73278  0.25776  1.0000
  H   H3540     1.0  0.34244  0.67750  0.25637  1.0000
  H   H3541     1.0  0.58828  0.75161  0.24281  1.0000
  H   H3542     1.0  0.34684  0.65828  0.25787  1.0000
  C   C2206     1.0  0.42164  0.71569  0.46795  1.0000
  S   S876      1.0  0.33127  0.70600  0.36046  1.0000
  C   C2207     1.0  0.37458  0.65433  0.25904  1.0000
  C   C2208     1.0  0.65502  0.78166  0.44270  1.0000
  C   C2209     1.0  0.36714  0.67017  0.23765  1.0000
  H   H3543     1.0  0.64368  0.74766  0.33117  1.0000
  H   H3544     1.0  0.39919  0.72488  0.45449  1.0000
  H   H3545     1.0  0.35905  0.67359  0.33427  1.0000
  S   S877      1.0  0.53167  0.68676  0.23209  1.0000
  Fe  Fe439     1.0  0.35685  0.72347  0.47929  1.0000
  H   H3546     1.0  0.65531  0.79299  0.44015  1.0000
  H   H3547     1.0  0.39971  0.70222  0.47279  1.0000
  Fe  Fe440     1.0  0.37748  0.72275  0.23137  1.0000
  H   H3548     1.0  0.65543  0.66638  0.41683  1.0000
  H   H3549     1.0  0.48864  0.65613  0.32273  1.0000
  C   C2210     1.0  0.56947  0.65489  0.27858  1.0000
  S   S878      1.0  0.65674  0.72808  0.37460  1.0000
  C   C2211     1.0  0.56706  0.75059  0.23115  1.0000
  H   H3550     1.0  0.37309  0.65216  0.27100  1.0000
  H   H3551     1.0  0.55617  0.74944  0.23107  1.0000
  C   C2212     1.0  0.47964  0.66916  0.23105  1.0000
  H   H3552     1.0  0.38882  0.68576  0.68781  1.0000
  H   H3553     1.0  0.40631  0.70422  0.53538  1.0000
  H   H3554     1.0  0.62028  0.78476  0.56967  1.0000
  H   H3555     1.0  0.34964  0.76132  0.66758  1.0000
  Fe  Fe441     1.0  0.44407  0.65718  0.65046  1.0000
  C   C2213     1.0  0.33737  0.67266  0.48117  1.0000
  S   S879      1.0  0.34559  0.79266  0.65170  1.0000
  C   C2214     1.0  0.38237  0.70900  0.71022  1.0000
  H   H3556     1.0  0.46624  0.66685  0.57737  1.0000
  H   H3557     1.0  0.34505  0.74358  0.56835  1.0000
  Fe  Fe442     1.0  0.34811  0.80442  0.62860  1.0000
  S   S880      1.0  0.36956  0.80405  0.61334  1.0000
  S   S881      1.0  0.51588  0.68271  0.68701  1.0000
  C   C2215     1.0  0.33748  0.75412  0.56595  1.0000
  Fe  Fe443     1.0  0.42075  0.74395  0.55767  1.0000
  S   S882      1.0  0.41783  0.72598  0.57716  1.0000
  S   S883      1.0  0.40451  0.75215  0.54320  1.0000
  Fe  Fe444     1.0  0.44693  0.74947  0.56542  1.0000
  S   S884      1.0  0.44566  0.73213  0.58549  1.0000
  S   S885      1.0  0.46468  0.76204  0.55851  1.0000
  Fe  Fe445     1.0  0.44188  0.71931  0.57174  1.0000
  S   S886      1.0  0.45468  0.69690  0.57117  1.0000
  Fe  Fe446     1.0  0.42182  0.74071  0.58892  1.0000
  S   S887      1.0  0.40967  0.74266  0.61150  1.0000
  S   S888      1.0  0.44467  0.73605  0.55119  1.0000
  S   S889      1.0  0.42328  0.75926  0.56984  1.0000
  H   H3558     1.0  0.60407  0.74584  0.49971  1.0000
  H   H3559     1.0  0.43978  0.69755  0.69820  1.0000
  Fe  Fe447     1.0  0.44746  0.65682  0.68034  1.0000
  C   C2216     1.0  0.65360  0.81203  0.69110  1.0000
  S   S890      1.0  0.36188  0.70242  0.49487  1.0000
  H   H3560     1.0  0.39397  0.73262  0.49080  1.0000
  Fe  Fe448     1.0  0.56720  0.68260  0.67921  1.0000
  S   S891      1.0  0.54824  0.69216  0.69469  1.0000
  S   S892      1.0  0.57903  0.69807  0.66215  1.0000
  Fe  Fe449     1.0  0.55863  0.67594  0.71179  1.0000
  S   S893      1.0  0.33226  0.82477  0.63311  1.0000
  H   H3561     1.0  0.64246  0.74828  0.49025  1.0000
  Fe  Fe450     1.0  0.32837  0.81208  0.65607  1.0000
  H   H3562     1.0  0.60944  0.73969  0.70058  1.0000
  C   C2217     1.0  0.33195  0.77628  0.54866  1.0000
  H   H3563     1.0  0.37337  0.69100  0.71116  1.0000
  Fe  Fe451     1.0  0.61139  0.80217  0.63328  1.0000
  S   S894      1.0  0.62492  0.77979  0.63534  1.0000
  S   S895      1.0  0.59592  0.80861  0.61826  1.0000
  Fe  Fe452     1.0  0.62529  0.81025  0.65382  1.0000
  S   S896      1.0  0.63973  0.78839  0.65759  1.0000
  S   S897      1.0  0.62583  0.82850  0.66366  1.0000
  Fe  Fe453     1.0  0.64292  0.79032  0.63371  1.0000
  H   H3564     1.0  0.61552  0.76371  0.56374  1.0000
  Fe  Fe454     1.0  0.62028  0.78003  0.65883  1.0000
  S   S898      1.0  0.61238  0.76159  0.67517  1.0000
  S   S899      1.0  0.62991  0.81290  0.62966  1.0000
  S   S900      1.0  0.60533  0.80176  0.65708  1.0000
  Fe  Fe455     1.0  0.55562  0.75770  0.60584  1.0000
  S   S901      1.0  0.57404  0.74765  0.59022  1.0000
  S   S902      1.0  0.55995  0.76149  0.62584  1.0000
  Fe  Fe456     1.0  0.53292  0.75357  0.59152  1.0000
  S   S903      1.0  0.54992  0.74329  0.57466  1.0000
  S   S904      1.0  0.50926  0.75220  0.59833  1.0000
  Fe  Fe457     1.0  0.56108  0.73127  0.59290  1.0000
  S   S905      1.0  0.56901  0.70733  0.59929  1.0000
  Fe  Fe458     1.0  0.56144  0.76074  0.57348  1.0000
  S   S906      1.0  0.57392  0.77353  0.55364  1.0000
  S   S907      1.0  0.54359  0.74033  0.60971  1.0000
  S   S908      1.0  0.54353  0.77210  0.58906  1.0000
  S   S909      1.0  0.33328  0.72827  0.48927  1.0000
  C   C2218     1.0  0.60524  0.72350  0.67896  1.0000
  S   S910      1.0  0.63839  0.74218  0.53235  1.0000
  H   H3565     1.0  0.43490  0.66008  0.71464  1.0000
  H   H3566     1.0  0.41528  0.68175  0.70926  1.0000
  C   C2219     1.0  0.39227  0.71755  0.70215  1.0000
  H   H3567     1.0  0.55257  0.71162  0.72420  1.0000
  S   S911      1.0  0.44725  0.67408  0.66010  1.0000
  C   C2220     1.0  0.59176  0.76483  0.54743  1.0000
  C   C2221     1.0  0.60164  0.77294  0.53808  1.0000
  C   C2222     1.0  0.61606  0.76619  0.53343  1.0000
  C   C2223     1.0  0.62057  0.75126  0.53796  1.0000
  C   C2224     1.0  0.61063  0.74318  0.54711  1.0000
  C   C2225     1.0  0.59630  0.74993  0.55189  1.0000
  H   H3568     1.0  0.59815  0.78449  0.53461  1.0000
  H   H3569     1.0  0.62364  0.77252  0.52640  1.0000
  H   H3570     1.0  0.61403  0.73161  0.55059  1.0000
  H   H3571     1.0  0.58875  0.74357  0.55897  1.0000
  C   C2226     1.0  0.61168  0.80317  0.69793  1.0000
  H   H3572     1.0  0.60931  0.77323  0.50457  1.0000
  H   H3573     1.0  0.56152  0.73198  0.72662  1.0000
  H   H3574     1.0  0.39328  0.72640  0.70614  1.0000
  H   H3575     1.0  0.41399  0.72108  0.54521  1.0000
  S   S912      1.0  0.34316  0.71939  0.52081  1.0000
  S   S913      1.0  0.57833  0.66757  0.69626  1.0000
  C   C2227     1.0  0.58523  0.79599  0.62088  1.0000
  C   C2228     1.0  0.58548  0.78411  0.63251  1.0000
  C   C2229     1.0  0.57743  0.77377  0.63407  1.0000
  C   C2230     1.0  0.56934  0.77505  0.62385  1.0000
  C   C2231     1.0  0.56899  0.78697  0.61225  1.0000
  C   C2232     1.0  0.57679  0.79752  0.61088  1.0000
  H   H3576     1.0  0.59183  0.78292  0.64035  1.0000
  H   H3577     1.0  0.57764  0.76464  0.64311  1.0000
  H   H3578     1.0  0.56260  0.78813  0.60444  1.0000
  H   H3579     1.0  0.57642  0.80679  0.60197  1.0000
  H   H3580     1.0  0.61138  0.75689  0.60328  1.0000
  S   S914      1.0  0.32800  0.75986  0.50997  1.0000
  C   C2233     1.0  0.64552  0.81326  0.68081  1.0000
  C   C2234     1.0  0.63691  0.82655  0.67584  1.0000
  C   C2235     1.0  0.63692  0.83870  0.68077  1.0000
  S   S915      1.0  0.54664  0.65904  0.71225  1.0000
  C   C2236     1.0  0.61287  0.78871  0.72184  1.0000
  C   C2237     1.0  0.61034  0.77212  0.49332  1.0000
  H   H3581     1.0  0.63022  0.84901  0.67706  1.0000
  H   H3582     1.0  0.40475  0.70065  0.48962  1.0000
  C   C2238     1.0  0.57771  0.69955  0.64435  1.0000
  C   C2239     1.0  0.57366  0.68882  0.64035  1.0000
  C   C2240     1.0  0.57171  0.69085  0.62622  1.0000
  C   C2241     1.0  0.57350  0.70374  0.61622  1.0000
  C   C2242     1.0  0.57791  0.71424  0.62019  1.0000
  C   C2243     1.0  0.58015  0.71209  0.63415  1.0000
  H   H3583     1.0  0.57200  0.67899  0.64812  1.0000
  H   H3584     1.0  0.56836  0.68266  0.62317  1.0000
  H   H3585     1.0  0.57945  0.72412  0.61257  1.0000
  H   H3586     1.0  0.58327  0.72045  0.63716  1.0000
  H   H3587     1.0  0.34108  0.73817  0.67617  1.0000
  C   C2244     1.0  0.61494  0.74613  0.50075  1.0000
  C   C2245     1.0  0.63975  0.75109  0.68045  1.0000
  C   C2246     1.0  0.62524  0.75015  0.68467  1.0000
  C   C2247     1.0  0.38103  0.69763  0.70496  1.0000
  H   H3588     1.0  0.35640  0.77148  0.55806  1.0000
  H   H3589     1.0  0.64345  0.75840  0.67061  1.0000
  C   C2248     1.0  0.48012  0.67313  0.68147  1.0000
  H   H3590     1.0  0.60949  0.71955  0.68906  1.0000
  C   C2249     1.0  0.47725  0.75887  0.56951  1.0000
  C   C2250     1.0  0.47394  0.75289  0.58430  1.0000
  C   C2251     1.0  0.48393  0.75087  0.59292  1.0000
  C   C2252     1.0  0.49738  0.75462  0.58683  1.0000
  C   C2253     1.0  0.50080  0.76038  0.57199  1.0000
  C   C2254     1.0  0.49069  0.76261  0.56339  1.0000
  H   H3591     1.0  0.46358  0.75014  0.58918  1.0000
  H   H3592     1.0  0.48120  0.74648  0.60440  1.0000
  H   H3593     1.0  0.51110  0.76337  0.56720  1.0000
  H   H3594     1.0  0.49331  0.76731  0.55196  1.0000
  C   C2255     1.0  0.45461  0.68453  0.58774  1.0000
  H   H3595     1.0  0.36845  0.76108  0.66042  1.0000
  C   C2256     1.0  0.44858  0.67842  0.61402  1.0000
  C   C2257     1.0  0.44828  0.68875  0.60096  1.0000
  C   C2258     1.0  0.32469  0.68197  0.50268  1.0000
  H   H3596     1.0  0.44387  0.68161  0.62427  1.0000
  H   H3597     1.0  0.44329  0.69993  0.60109  1.0000
  H   H3598     1.0  0.62201  0.75204  0.57916  1.0000
  C   C2259     1.0  0.59332  0.78038  0.57838  1.0000
  H   H3599     1.0  0.62961  0.77946  0.68955  1.0000
  S   S916      1.0  0.36273  0.73637  0.49178  1.0000
  H   H3600     1.0  0.64993  0.85181  0.62462  1.0000
  S   S917      1.0  0.32648  0.81747  0.67744  1.0000
  C   C2260     1.0  0.60305  0.78098  0.70579  1.0000
  C   C2261     1.0  0.38980  0.69464  0.69178  1.0000
  H   H3601     1.0  0.50872  0.65537  0.70521  1.0000
  C   C2262     1.0  0.37661  0.73279  0.66016  1.0000
  C   C2263     1.0  0.37913  0.78631  0.61320  1.0000
  C   C2264     1.0  0.38219  0.77687  0.62599  1.0000
  C   C2265     1.0  0.39125  0.76323  0.62548  1.0000
  C   C2266     1.0  0.39710  0.75900  0.61222  1.0000
  C   C2267     1.0  0.39342  0.76816  0.59958  1.0000
  C   C2268     1.0  0.38460  0.78188  0.60004  1.0000
  H   H3602     1.0  0.37806  0.78036  0.63614  1.0000
  H   H3603     1.0  0.39411  0.75619  0.63528  1.0000
  H   H3604     1.0  0.39735  0.76475  0.58942  1.0000
  H   H3605     1.0  0.38206  0.78910  0.59017  1.0000
  H   H3606     1.0  0.37414  0.74366  0.68312  1.0000
  H   H3607     1.0  0.32521  0.79272  0.58436  1.0000
  C   C2269     1.0  0.65363  0.82421  0.69600  1.0000
  H   H3608     1.0  0.61924  0.80926  0.69897  1.0000
  H   H3609     1.0  0.37943  0.72111  0.66521  1.0000
  H   H3610     1.0  0.60436  0.75262  0.57698  1.0000
  C   C2270     1.0  0.32673  0.66500  0.48300  1.0000
  C   C2271     1.0  0.47869  0.66027  0.69162  1.0000
  S   S918      1.0  0.33857  0.72167  0.71050  1.0000
  C   C2272     1.0  0.38386  0.73532  0.52306  1.0000
  C   C2273     1.0  0.38841  0.74488  0.52842  1.0000
  C   C2274     1.0  0.39923  0.73981  0.53651  1.0000
  H   H3611     1.0  0.37552  0.73935  0.51686  1.0000
  H   H3612     1.0  0.38362  0.75628  0.52621  1.0000
  Fe  Fe459     1.0  0.36592  0.71575  0.50822  1.0000
  C   C2275     1.0  0.33625  0.68127  0.49085  1.0000
  H   H3613     1.0  0.60219  0.79492  0.72646  1.0000
  Fe  Fe460     1.0  0.33966  0.73908  0.50328  1.0000
  H   H3614     1.0  0.60919  0.73351  0.67297  1.0000
  H   H3615     1.0  0.65334  0.81152  0.60490  1.0000
  H   H3616     1.0  0.35794  0.75684  0.65033  1.0000
  S   S919      1.0  0.33235  0.79459  0.62382  1.0000
  C   C2276     1.0  0.63036  0.73177  0.70563  1.0000
  H   H3617     1.0  0.45409  0.68234  0.70221  1.0000
  N   N225      1.0  0.43378  0.68148  0.71711  1.0000
  H   H3618     1.0  0.49247  0.68978  0.67242  1.0000
  Fe  Fe461     1.0  0.65634  0.75348  0.51924  1.0000
  S   S920      1.0  0.42334  0.66195  0.68862  1.0000
  H   H3619     1.0  0.59201  0.78632  0.71061  1.0000
  H   H3620     1.0  0.33487  0.78260  0.53746  1.0000
  S   S921      1.0  0.32710  0.68885  0.70264  1.0000
  H   H3621     1.0  0.61427  0.77771  0.72882  1.0000
  C   C2277     1.0  0.63469  0.75840  0.49235  1.0000
  H   H3622     1.0  0.58805  0.70872  0.70078  1.0000
  C   C2278     1.0  0.40123  0.71556  0.53348  1.0000
  S   S922      1.0  0.42004  0.66303  0.65572  1.0000
  C   C2279     1.0  0.50084  0.66036  0.69853  1.0000
  H   H3623     1.0  0.60058  0.80932  0.70139  1.0000
  C   C2280     1.0  0.45521  0.66396  0.61374  1.0000
  H   H3624     1.0  0.41060  0.72148  0.49460  1.0000
  S   S923      1.0  0.38546  0.70840  0.51831  1.0000
  H   H3625     1.0  0.59586  0.78487  0.56654  1.0000
  N   N226      1.0  0.36315  0.74011  0.66857  1.0000
  C   C2281     1.0  0.35126  0.73319  0.66947  1.0000
  Fe  Fe462     1.0  0.56595  0.65192  0.69537  1.0000
  C   C2282     1.0  0.36499  0.73896  0.68332  1.0000
  C   C2283     1.0  0.35969  0.75549  0.66141  1.0000
  H   H3626     1.0  0.64518  0.84699  0.69451  1.0000
  H   H3627     1.0  0.35361  0.72147  0.67448  1.0000
  C   C2284     1.0  0.48911  0.65396  0.70014  1.0000
  C   C2285     1.0  0.64946  0.74275  0.68924  1.0000
  H   H3628     1.0  0.36714  0.72749  0.68917  1.0000
  C   C2286     1.0  0.60216  0.76474  0.59920  1.0000
  H   H3629     1.0  0.32664  0.75194  0.56726  1.0000
  C   C2287     1.0  0.43729  0.68825  0.72711  1.0000
  H   H3630     1.0  0.61417  0.78168  0.48582  1.0000
  C   C2288     1.0  0.61698  0.77982  0.58132  1.0000
  H   H3631     1.0  0.35111  0.74352  0.54203  1.0000
  H   H3632     1.0  0.64566  0.80384  0.67705  1.0000
  H   H3633     1.0  0.64969  0.82783  0.63965  1.0000
  H   H3634     1.0  0.61331  0.80331  0.68622  1.0000
  H   H3635     1.0  0.63069  0.76896  0.70729  1.0000
  C   C2289     1.0  0.40061  0.71492  0.68875  1.0000
  C   C2290     1.0  0.61230  0.75935  0.57554  1.0000
  H   H3636     1.0  0.40804  0.72175  0.68242  1.0000
  C   C2291     1.0  0.35668  0.76522  0.55004  1.0000
  C   C2292     1.0  0.46158  0.65987  0.60051  1.0000
  C   C2293     1.0  0.44233  0.68568  0.70240  1.0000
  C   C2294     1.0  0.43726  0.66560  0.72200  1.0000
  H   H3637     1.0  0.34906  0.73443  0.65860  1.0000
  C   C2295     1.0  0.62850  0.78022  0.70091  1.0000
  N   N227      1.0  0.49096  0.71194  0.57151  1.0000
  C   C2296     1.0  0.49640  0.69738  0.56822  1.0000
  C   C2297     1.0  0.48153  0.71085  0.58608  1.0000
  C   C2298     1.0  0.48268  0.72130  0.56067  1.0000
  C   C2299     1.0  0.50316  0.71821  0.57108  1.0000
  H   H3638     1.0  0.50348  0.69778  0.55726  1.0000
  H   H3639     1.0  0.48737  0.69241  0.56853  1.0000
  H   H3640     1.0  0.50270  0.68999  0.57618  1.0000
  H   H3641     1.0  0.47214  0.70628  0.58672  1.0000
  H   H3642     1.0  0.48739  0.70375  0.59451  1.0000
  H   H3643     1.0  0.47730  0.72163  0.58896  1.0000
  H   H3644     1.0  0.48951  0.72265  0.54957  1.0000
  H   H3645     1.0  0.47810  0.73224  0.56300  1.0000
  H   H3646     1.0  0.47355  0.71678  0.56047  1.0000
  H   H3647     1.0  0.49935  0.72924  0.57345  1.0000
  H   H3648     1.0  0.51053  0.71920  0.56025  1.0000
  H   H3649     1.0  0.50961  0.71152  0.57920  1.0000
  N   N228      1.0  0.40317  0.70146  0.62553  1.0000
  C   C2300     1.0  0.40977  0.68943  0.61791  1.0000
  C   C2301     1.0  0.39349  0.69649  0.63929  1.0000
  C   C2302     1.0  0.39477  0.71338  0.61637  1.0000
  C   C2303     1.0  0.41462  0.70661  0.62856  1.0000
  H   H3650     1.0  0.41697  0.69295  0.60738  1.0000
  H   H3651     1.0  0.40147  0.68513  0.61558  1.0000
  H   H3652     1.0  0.41640  0.68033  0.62441  1.0000
  H   H3653     1.0  0.38842  0.70534  0.64527  1.0000
  H   H3654     1.0  0.38478  0.69239  0.63748  1.0000
  H   H3655     1.0  0.39945  0.68769  0.64660  1.0000
  H   H3656     1.0  0.38969  0.72269  0.62175  1.0000
  H   H3657     1.0  0.38612  0.70988  0.61373  1.0000
  H   H3658     1.0  0.40175  0.71755  0.60599  1.0000
  H   H3659     1.0  0.41006  0.71564  0.63440  1.0000
  H   H3660     1.0  0.42200  0.71068  0.61841  1.0000
  H   H3661     1.0  0.42121  0.69789  0.63542  1.0000
  S   S924      1.0  0.40971  0.70060  0.66659  1.0000
  C   C2304     1.0  0.58462  0.71269  0.69024  1.0000
  C   C2305     1.0  0.58426  0.73131  0.66842  1.0000
  H   H3662     1.0  0.57270  0.71418  0.69253  1.0000
  H   H3663     1.0  0.58921  0.70394  0.68406  1.0000
  H   H3664     1.0  0.57234  0.73305  0.67033  1.0000
  H   H3665     1.0  0.58887  0.72332  0.66135  1.0000
  C   C2306     1.0  0.39952  0.70337  0.68362  1.0000
  C   C2307     1.0  0.40560  0.72509  0.53906  1.0000
  C   C2308     1.0  0.49165  0.67971  0.68011  1.0000
  H   H3666     1.0  0.47221  0.67817  0.67485  1.0000
  N   N229      1.0  0.61402  0.78826  0.70663  1.0000
  C   C2309     1.0  0.50211  0.67337  0.68860  1.0000
  C   C2310     1.0  0.39033  0.72062  0.52552  1.0000
  H   H3667     1.0  0.60321  0.78111  0.69437  1.0000
  H   H3668     1.0  0.36484  0.75498  0.55191  1.0000
  H   H3669     1.0  0.44032  0.68043  0.69462  1.0000
  H   H3670     1.0  0.62657  0.72442  0.71537  1.0000
  C   C2311     1.0  0.64544  0.83760  0.69061  1.0000
  H   H3671     1.0  0.33127  0.78307  0.55636  1.0000
  Fe  Fe463     1.0  0.33866  0.70815  0.50589  1.0000
  N   N230      1.0  0.60619  0.77107  0.58361  1.0000
  S   S925      1.0  0.37169  0.71288  0.72670  1.0000
  H   H3672     1.0  0.63436  0.75910  0.50356  1.0000
  H   H3673     1.0  0.41144  0.68320  0.72780  1.0000
  S   S926      1.0  0.65421  0.77693  0.50878  1.0000
  H   H3674     1.0  0.64828  0.84844  0.65089  1.0000
  H   H3675     1.0  0.59318  0.75903  0.60160  1.0000
  N   N231      1.0  0.53009  0.71339  0.65020  1.0000
  C   C2312     1.0  0.54236  0.72058  0.64654  1.0000
  C   C2313     1.0  0.53551  0.69763  0.65190  1.0000
  C   C2314     1.0  0.52198  0.71871  0.63847  1.0000
  C   C2315     1.0  0.52056  0.71659  0.66389  1.0000
  H   H3676     1.0  0.53877  0.73252  0.64510  1.0000
  H   H3677     1.0  0.54970  0.71837  0.63626  1.0000
  H   H3678     1.0  0.54885  0.71670  0.65506  1.0000
  H   H3679     1.0  0.52655  0.69177  0.65512  1.0000
  H   H3680     1.0  0.54250  0.69477  0.64170  1.0000
  H   H3681     1.0  0.54197  0.69334  0.66043  1.0000
  H   H3682     1.0  0.52886  0.71621  0.62805  1.0000
  H   H3683     1.0  0.51800  0.73064  0.63661  1.0000
  H   H3684     1.0  0.51253  0.71365  0.64097  1.0000
  H   H3685     1.0  0.52632  0.71239  0.67300  1.0000
  H   H3686     1.0  0.51115  0.71135  0.66696  1.0000
  H   H3687     1.0  0.51642  0.72840  0.66309  1.0000
  H   H3688     1.0  0.44892  0.66153  0.72216  1.0000
  H   H3689     1.0  0.37567  0.73373  0.64888  1.0000
  C   C2316     1.0  0.56811  0.72118  0.72818  1.0000
  H   H3690     1.0  0.38805  0.71181  0.48611  1.0000
  H   H3691     1.0  0.58470  0.77433  0.58033  1.0000
  H   H3692     1.0  0.59937  0.77260  0.49197  1.0000
  S   S927      1.0  0.55652  0.66633  0.67666  1.0000
  Fe  Fe464     1.0  0.53791  0.67466  0.69345  1.0000
  C   C2317     1.0  0.56304  0.70966  0.72673  1.0000
  H   H3693     1.0  0.41525  0.69834  0.71357  1.0000
  H   H3694     1.0  0.58867  0.78962  0.58389  1.0000
  H   H3695     1.0  0.62682  0.77317  0.58519  1.0000
  Fe  Fe465     1.0  0.42316  0.67807  0.66765  1.0000
  H   H3696     1.0  0.59860  0.77319  0.60572  1.0000
  N   N232      1.0  0.43029  0.78749  0.59281  1.0000
  C   C2318     1.0  0.43388  0.79604  0.60115  1.0000
  C   C2319     1.0  0.41606  0.79446  0.58923  1.0000
  C   C2320     1.0  0.42990  0.77275  0.60157  1.0000
  C   C2321     1.0  0.44134  0.78670  0.57932  1.0000
  H   H3697     1.0  0.43423  0.80724  0.59487  1.0000
  H   H3698     1.0  0.44459  0.79109  0.60398  1.0000
  H   H3699     1.0  0.42576  0.79683  0.61141  1.0000
  H   H3700     1.0  0.41594  0.80558  0.58256  1.0000
  H   H3701     1.0  0.41297  0.78823  0.58301  1.0000
  H   H3702     1.0  0.40745  0.79531  0.59916  1.0000
  H   H3703     1.0  0.42725  0.76598  0.59563  1.0000
  H   H3704     1.0  0.42157  0.77291  0.61177  1.0000
  H   H3705     1.0  0.44047  0.76715  0.60448  1.0000
  H   H3706     1.0  0.43894  0.78043  0.57268  1.0000
  H   H3707     1.0  0.45222  0.78135  0.58157  1.0000
  H   H3708     1.0  0.44204  0.79761  0.57246  1.0000
  N   N233      1.0  0.58935  0.72621  0.68215  1.0000
  C   C2322     1.0  0.62065  0.74031  0.69712  1.0000
  H   H3709     1.0  0.35515  0.74470  0.68985  1.0000
  H   H3710     1.0  0.57139  0.73971  0.69350  1.0000
  H   H3711     1.0  0.62124  0.79379  0.72292  1.0000
  H   H3712     1.0  0.61264  0.78878  0.58731  1.0000
  H   H3713     1.0  0.63707  0.78550  0.70116  1.0000
  H   H3714     1.0  0.58738  0.74168  0.66222  1.0000
  H   H3715     1.0  0.58686  0.74767  0.68523  1.0000
  C   C2323     1.0  0.58336  0.73736  0.69095  1.0000
  N   N234      1.0  0.34236  0.76241  0.55127  1.0000
  H   H3716     1.0  0.38587  0.73754  0.65954  1.0000
  C   C2324     1.0  0.64461  0.73337  0.70206  1.0000
  H   H3717     1.0  0.61009  0.71524  0.67221  1.0000
  H   H3718     1.0  0.58694  0.73386  0.70142  1.0000
  C   C2325     1.0  0.46131  0.67012  0.58757  1.0000
  H   H3719     1.0  0.63912  0.76762  0.48482  1.0000
  C   C2326     1.0  0.34307  0.65270  0.69113  1.0000
  H   H3720     1.0  0.33266  0.75175  0.54105  1.0000
  H   H3721     1.0  0.33653  0.76022  0.57435  1.0000
  H   H3722     1.0  0.60491  0.76946  0.71157  1.0000
  C   C2327     1.0  0.40536  0.72862  0.48570  1.0000
  N   N235      1.0  0.62030  0.75852  0.49046  1.0000
  H   H3723     1.0  0.36065  0.77151  0.53910  1.0000
  H   H3724     1.0  0.61415  0.74662  0.51216  1.0000
  H   H3725     1.0  0.34438  0.68734  0.48913  1.0000
  H   H3726     1.0  0.43489  0.70023  0.72371  1.0000
  H   H3727     1.0  0.34926  0.65559  0.66214  1.0000
  H   H3728     1.0  0.34682  0.76003  0.52923  1.0000
  H   H3729     1.0  0.62227  0.73569  0.49896  1.0000
  Fe  Fe466     1.0  0.32808  0.78503  0.64734  1.0000
  S   S928      1.0  0.46351  0.65233  0.69486  1.0000
  H   H3730     1.0  0.33979  0.66410  0.68543  1.0000
  S   S929      1.0  0.65513  0.72567  0.71511  1.0000
  C   C2328     1.0  0.41827  0.68639  0.71694  1.0000
  H   H3731     1.0  0.44893  0.68470  0.72750  1.0000
  C   C2329     1.0  0.34329  0.75404  0.54046  1.0000
  C   C2330     1.0  0.57102  0.69551  0.72956  1.0000
  Fe  Fe467     1.0  0.34877  0.71123  0.72962  1.0000
  Fe  Fe468     1.0  0.32855  0.70230  0.71725  1.0000
  C   C2331     1.0  0.39948  0.70828  0.48097  1.0000
  H   H3732     1.0  0.41051  0.73811  0.48123  1.0000
  C   C2332     1.0  0.63201  0.77693  0.76542  1.0000
  H   H3733     1.0  0.61992  0.79872  0.76074  1.0000
  C   C2333     1.0  0.64828  0.78866  0.77744  1.0000
  H   H3734     1.0  0.56413  0.71780  0.79202  1.0000
  H   H3735     1.0  0.64740  0.83676  0.80160  1.0000
  S   S930      1.0  0.56320  0.68074  0.73137  1.0000
  H   H3736     1.0  0.64585  0.86005  0.78384  1.0000
  H   H3737     1.0  0.60041  0.69887  0.77587  1.0000
  C   C2334     1.0  0.59201  0.70078  0.76952  1.0000
  S   S931      1.0  0.33988  0.69116  0.73547  1.0000
  H   H3738     1.0  0.65572  0.86074  0.76551  1.0000
  H   H3739     1.0  0.55551  0.70667  0.77640  1.0000
  H   H3740     1.0  0.58411  0.68797  0.79718  1.0000
  C   C2335     1.0  0.64363  0.76793  0.77142  1.0000
  H   H3741     1.0  0.59423  0.69132  0.76447  1.0000
  H   H3742     1.0  0.43101  0.68534  0.73832  1.0000
  Fe  Fe469     1.0  0.62489  0.71630  0.76612  1.0000
  S   S932      1.0  0.60567  0.73468  0.76652  1.0000
  S   S933      1.0  0.62679  0.69704  0.78431  1.0000
  H   H3743     1.0  0.56854  0.69630  0.76431  1.0000
  H   H3744     1.0  0.57584  0.72574  0.77623  1.0000
  H   H3745     1.0  0.56516  0.69148  0.79764  1.0000
  Fe  Fe470     1.0  0.62225  0.74825  0.75524  1.0000
  S   S934      1.0  0.62091  0.77079  0.75782  1.0000
  Fe  Fe471     1.0  0.60592  0.73134  0.74461  1.0000
  H   H3746     1.0  0.64901  0.68486  0.73915  1.0000
  S   S935      1.0  0.64148  0.73003  0.75626  1.0000
  S   S936      1.0  0.62390  0.71187  0.74522  1.0000
  C   C2336     1.0  0.57499  0.71582  0.78489  1.0000
  H   H3747     1.0  0.32635  0.86490  0.75883  1.0000
  H   H3748     1.0  0.34153  0.74629  0.75113  1.0000
  H   H3749     1.0  0.64295  0.82816  0.78979  1.0000
  C   C2337     1.0  0.63683  0.79747  0.77128  1.0000
  C   C2338     1.0  0.65116  0.70429  0.78573  1.0000
  H   H3750     1.0  0.33614  0.77461  0.76161  1.0000
  H   H3751     1.0  0.59343  0.71038  0.76067  1.0000
  H   H3752     1.0  0.64498  0.71524  0.78506  1.0000
  C   C2339     1.0  0.65006  0.85380  0.77512  1.0000
  H   H3753     1.0  0.64069  0.85202  0.77207  1.0000
  H   H3754     1.0  0.63405  0.80891  0.77112  1.0000
  C   C2340     1.0  0.56666  0.70542  0.76977  1.0000
  C   C2341     1.0  0.57602  0.69014  0.79041  1.0000
  C   C2342     1.0  0.64444  0.69308  0.78685  1.0000
  H   H3755     1.0  0.57772  0.68034  0.78600  1.0000
  C   C2343     1.0  0.62881  0.79168  0.76534  1.0000
  C   C2344     1.0  0.65195  0.83107  0.79247  1.0000
  H   H3756     1.0  0.65386  0.69692  0.75590  1.0000
  N   N236      1.0  0.57739  0.70303  0.77866  1.0000
  H   H3757     1.0  0.65612  0.82968  0.76469  1.0000
  H   H3758     1.0  0.58312  0.71450  0.79140  1.0000
  S   S937      1.0  0.58606  0.73326  0.73607  1.0000
  H   H3759     1.0  0.56709  0.71539  0.76114  1.0000
  H   H3760     1.0  0.64718  0.67017  0.78919  1.0000
  H   H3761     1.0  0.43102  0.66199  0.73305  1.0000
  S   S938      1.0  0.33110  0.72243  0.74520  1.0000
  H   H3762     1.0  0.34415  0.76349  0.73992  1.0000
  C   C2345     1.0  0.65236  0.67887  0.78826  1.0000
  H   H3763     1.0  0.64618  0.75650  0.77158  1.0000
  H   H3764     1.0  0.33402  0.75716  0.77268  1.0000
  H   H3765     1.0  0.33268  0.75415  0.73619  1.0000
  C   C2346     1.0  0.33604  0.75665  0.74506  1.0000
  H   H3766     1.0  0.59059  0.68217  0.73557  1.0000
  C   C2347     1.0  0.65179  0.77382  0.77745  1.0000
  H   H3767     1.0  0.33133  0.88125  0.74737  1.0000
  C   C2348     1.0  0.32852  0.76719  0.76615  1.0000
  H   H3768     1.0  0.59998  0.70266  0.73717  1.0000
  Fe  Fe472     1.0  0.63840  0.72754  0.73537  1.0000
  H   H3769     1.0  0.32674  0.89175  0.76894  1.0000
  C   C2349     1.0  0.58966  0.70468  0.73433  1.0000
  S   S939      1.0  0.62038  0.74687  0.73344  1.0000
  C   C2350     1.0  0.58442  0.69310  0.73324  1.0000
  C   C2351     1.0  0.58127  0.71872  0.73232  1.0000
  H   H3770     1.0  0.81454  0.02623  0.14011  1.0000
  C   C2352     1.0  0.71543  0.13815  0.10017  1.0000
  H   H3771     1.0  0.68849  0.13549  0.11309  1.0000
  N   N237      1.0  0.77033  0.10748  0.14172  1.0000
  H   H3772     1.0  0.69942  0.23797  0.09950  1.0000
  Fe  Fe473     1.0  0.86758  0.04810  0.16506  1.0000
  S   S940      1.0  0.86688  0.06873  0.14830  1.0000
  S   S941      1.0  0.87899  0.02628  0.16015  1.0000
  Fe  Fe474     1.0  0.85077  0.06327  0.18935  1.0000
  S   S942      1.0  0.84861  0.08511  0.17473  1.0000
  S   S943      1.0  0.84225  0.05932  0.21331  1.0000
  Fe  Fe475     1.0  0.84386  0.07429  0.15965  1.0000
  S   S944      1.0  0.82546  0.08497  0.14834  1.0000
  Fe  Fe476     1.0  0.87173  0.07788  0.16473  1.0000
  S   S945      1.0  0.88668  0.09358  0.15603  1.0000
  S   S946      1.0  0.84408  0.05292  0.17515  1.0000
  S   S947      1.0  0.87446  0.05669  0.18060  1.0000
  Fe  Fe477     1.0  0.78315  0.03428  0.09777  1.0000
  S   S948      1.0  0.79671  0.04819  0.08055  1.0000
  S   S949      1.0  0.78803  0.01038  0.09795  1.0000
  Fe  Fe478     1.0  0.77068  0.05772  0.11580  1.0000
  S   S950      1.0  0.78328  0.07320  0.10001  1.0000
  S   S951      1.0  0.75914  0.06296  0.13750  1.0000
  Fe  Fe479     1.0  0.77698  0.06597  0.08317  1.0000
  S   S952      1.0  0.76782  0.08381  0.06607  1.0000
  Fe  Fe480     1.0  0.80164  0.05404  0.09901  1.0000
  S   S953      1.0  0.82411  0.05201  0.10165  1.0000
  S   S954      1.0  0.76285  0.05161  0.09919  1.0000
  S   S955      1.0  0.78947  0.03906  0.11602  1.0000
  Fe  Fe481     1.0  0.71850  0.15760  0.15104  1.0000
  H   H3773     1.0  0.78644  0.22820  0.04014  1.0000
  H   H3774     1.0  0.89234  0.22481  0.01544  1.0000
  Fe  Fe482     1.0  0.72388  0.13101  0.17471  1.0000
  S   S956      1.0  0.70317  0.12492  0.17611  1.0000
  S   S957      1.0  0.73990  0.11814  0.18820  1.0000
  Fe  Fe483     1.0  0.70868  0.13073  0.15186  1.0000
  S   S958      1.0  0.70851  0.11832  0.13572  1.0000
  Fe  Fe484     1.0  0.83876  0.19921  0.01293  1.0000
  S   S959      1.0  0.73019  0.13481  0.15068  1.0000
  S   S960      1.0  0.71424  0.15425  0.17513  1.0000
  Fe  Fe485     1.0  0.91705  0.16520  0.18396  1.0000
  S   S961      1.0  0.92275  0.14739  0.20243  1.0000
  S   S962      1.0  0.89596  0.18139  0.18574  1.0000
  Fe  Fe486     1.0  0.94281  0.15301  0.16265  1.0000
  S   S963      1.0  0.95453  0.15837  0.13953  1.0000
  Fe  Fe487     1.0  0.92687  0.13278  0.18700  1.0000
  S   S964      1.0  0.91589  0.11370  0.19558  1.0000
  C   C2353     1.0  0.69144  0.23139  0.10062  1.0000
  S   S965      1.0  0.91990  0.15054  0.16906  1.0000
  S   S966      1.0  0.93937  0.16944  0.17597  1.0000
  C   C2354     1.0  0.87085  0.00308  0.15627  1.0000
  Fe  Fe488     1.0  0.94563  0.15012  0.19313  1.0000
  C   C2355     1.0  0.81000  0.27323  0.04329  1.0000
  H   H3775     1.0  0.82560  0.98693  0.10059  1.0000
  S   S967      1.0  0.95039  0.13375  0.17933  1.0000
  H   H3776     1.0  0.85396  0.13948  0.21124  1.0000
  Fe  Fe489     1.0  0.92353  0.24291  0.06237  1.0000
  S   S968      1.0  0.90607  0.24482  0.08209  1.0000
  S   S969      1.0  0.91932  0.24125  0.04124  1.0000
  Fe  Fe490     1.0  0.94700  0.24295  0.07811  1.0000
  S   S970      1.0  0.93119  0.24423  0.09921  1.0000
  Fe  Fe491     1.0  0.92196  0.22831  0.09377  1.0000
  S   S971      1.0  0.91231  0.21049  0.10938  1.0000
  Fe  Fe492     1.0  0.91685  0.26058  0.08555  1.0000
  S   S972      1.0  0.90484  0.28132  0.09242  1.0000
  S   S973      1.0  0.93897  0.22533  0.07387  1.0000
  S   S974      1.0  0.93310  0.26040  0.06463  1.0000
  Fe  Fe493     1.0  0.81182  0.29886  0.17392  1.0000
  S   S975      1.0  0.83433  0.29735  0.17582  1.0000
  S   S976      1.0  0.79692  0.28909  0.19334  1.0000
  H   H3777     1.0  0.82139  0.04620  0.14553  1.0000
  Fe  Fe494     1.0  0.85930  0.21398  0.98800  1.0000
  Fe  Fe495     1.0  0.84098  0.29130  0.15420  1.0000
  S   S977      1.0  0.85746  0.27125  0.14979  1.0000
  S   S978      1.0  0.81866  0.29084  0.15335  1.0000
  H   H3778     1.0  0.74338  0.09432  0.99840  1.0000
  H   H3779     1.0  0.93826  0.29314  0.06034  1.0000
  H   H3780     1.0  0.95086  0.26809  0.08190  1.0000
  H   H3781     1.0  0.66265  0.27344  0.17175  1.0000
  S   S979      1.0  0.80198  0.09991  0.00170  1.0000
  H   H3782     1.0  0.67440  0.21683  0.08045  1.0000
  H   H3783     1.0  0.68287  0.27923  0.07678  1.0000
  S   S980      1.0  0.74000  0.14165  0.99778  1.0000
  S   S981      1.0  0.83634  0.21505  0.02656  1.0000
  S   S982      1.0  0.77893  0.13952  0.99735  1.0000
  H   H3784     1.0  0.91137  0.23617  0.01717  1.0000
  S   S983      1.0  0.70875  0.19936  0.07842  1.0000
  Fe  Fe496     1.0  0.71425  0.20157  0.03747  1.0000
  S   S984      1.0  0.73031  0.20667  0.04674  1.0000
  S   S985      1.0  0.72010  0.20306  0.01352  1.0000
  Fe  Fe497     1.0  0.72663  0.18717  0.06393  1.0000
  S   S986      1.0  0.74418  0.16980  0.07218  1.0000
  Fe  Fe498     1.0  0.71093  0.21847  0.06011  1.0000
  S   S987      1.0  0.71001  0.24018  0.06395  1.0000
  S   S988      1.0  0.71206  0.18100  0.05379  1.0000
  S   S989      1.0  0.69507  0.21524  0.04930  1.0000
  H   H3785     1.0  0.75539  0.31103  0.21904  1.0000
  H   H3786     1.0  0.86436  0.21062  0.21976  1.0000
  H   H3787     1.0  0.82206  0.28730  0.10170  1.0000
  C   C2356     1.0  0.72305  0.31693  0.08259  1.0000
  C   C2357     1.0  0.80208  0.27021  0.02311  1.0000
  C   C2358     1.0  0.79958  0.27662  0.03496  1.0000
  H   H3788     1.0  0.79400  0.27288  0.01668  1.0000
  C   C2359     1.0  0.72444  0.23921  0.07156  1.0000
  C   C2360     1.0  0.73181  0.22592  0.07822  1.0000
  C   C2361     1.0  0.74331  0.22533  0.08439  1.0000
  C   C2362     1.0  0.74736  0.23808  0.08387  1.0000
  C   C2363     1.0  0.73990  0.25135  0.07729  1.0000
  C   C2364     1.0  0.72853  0.25187  0.07106  1.0000
  H   H3789     1.0  0.72866  0.21615  0.07855  1.0000
  H   H3790     1.0  0.74909  0.21505  0.08947  1.0000
  C   C2365     1.0  0.97325  0.25235  0.09725  1.0000
  H   H3791     1.0  0.72317  0.26203  0.06551  1.0000
  C   C2366     1.0  0.81439  0.16537  0.00928  1.0000
  C   C2367     1.0  0.80776  0.16344  0.99908  1.0000
  H   H3792     1.0  0.81739  0.15638  0.01784  1.0000
  H   H3793     1.0  0.80562  0.15301  0.99981  1.0000
  C   C2368     1.0  0.73356  0.15896  0.00158  1.0000
  C   C2369     1.0  0.73972  0.17045  0.99285  1.0000
  C   C2370     1.0  0.73502  0.18414  0.99622  1.0000
  C   C2371     1.0  0.72443  0.18630  0.00859  1.0000
  C   C2372     1.0  0.71810  0.17487  0.01726  1.0000
  C   C2373     1.0  0.72257  0.16122  0.01368  1.0000
  H   H3794     1.0  0.75426  0.11681  0.01732  1.0000
  C   C2374     1.0  0.78504  0.98984  0.08562  1.0000
  H   H3795     1.0  0.70963  0.17659  0.02660  1.0000
  H   H3796     1.0  0.71767  0.15240  0.02039  1.0000
  C   C2375     1.0  0.68751  0.30093  0.05459  1.0000
  C   C2376     1.0  0.98382  0.15664  0.21157  1.0000
  C   C2377     1.0  0.89289  0.22628  0.02580  1.0000
  H   H3797     1.0  0.96223  0.25139  0.10194  1.0000
  C   C2378     1.0  0.90482  0.23432  0.04024  1.0000
  C   C2379     1.0  0.89479  0.22983  0.05262  1.0000
  C   C2380     1.0  0.88417  0.22319  0.05164  1.0000
  H   H3798     1.0  0.89534  0.23129  0.06296  1.0000
  H   H3799     1.0  0.87664  0.21949  0.06131  1.0000
  C   C2381     1.0  0.89227  0.27833  0.10879  1.0000
  C   C2382     1.0  0.88988  0.26444  0.11540  1.0000
  C   C2383     1.0  0.87934  0.26232  0.12815  1.0000
  C   C2384     1.0  0.87114  0.27406  0.13429  1.0000
  C   C2385     1.0  0.87373  0.28788  0.12781  1.0000
  C   C2386     1.0  0.88426  0.29002  0.11507  1.0000
  H   H3800     1.0  0.89604  0.25536  0.11064  1.0000
  H   H3801     1.0  0.87740  0.25159  0.13312  1.0000
  H   H3802     1.0  0.86775  0.29693  0.13268  1.0000
  H   H3803     1.0  0.88617  0.30075  0.11007  1.0000
  C   C2387     1.0  0.86813  0.01816  0.15445  1.0000
  H   H3804     1.0  0.81800  0.21379  0.05772  1.0000
  S   S990      1.0  0.74809  0.27640  0.09764  1.0000
  H   H3805     1.0  0.84509  0.98842  0.11154  1.0000
  C   C2388     1.0  0.80544  0.28597  0.20771  1.0000
  C   C2389     1.0  0.81260  0.29614  0.20851  1.0000
  H   H3806     1.0  0.73576  0.11663  0.02541  1.0000
  S   S991      1.0  0.83893  0.99768  0.14033  1.0000
  H   H3807     1.0  0.77366  0.30128  0.21489  1.0000
  C   C2390     1.0  0.82280  0.01116  0.10926  1.0000
  H   H3808     1.0  0.69261  0.23483  0.12636  1.0000
  C   C2391     1.0  0.94328  0.17207  0.12964  1.0000
  C   C2392     1.0  0.92861  0.17219  0.13253  1.0000
  C   C2393     1.0  0.91929  0.18378  0.12573  1.0000
  C   C2394     1.0  0.92459  0.19537  0.11607  1.0000
  C   C2395     1.0  0.93936  0.19505  0.11259  1.0000
  C   C2396     1.0  0.94874  0.18333  0.11937  1.0000
  H   H3809     1.0  0.92444  0.16328  0.13996  1.0000
  H   H3810     1.0  0.90790  0.18390  0.12826  1.0000
  H   H3811     1.0  0.94352  0.20400  0.10508  1.0000
  H   H3812     1.0  0.96012  0.18322  0.11706  1.0000
  C   C2397     1.0  0.89197  0.18929  0.20075  1.0000
  C   C2398     1.0  0.90246  0.18743  0.20861  1.0000
  H   H3813     1.0  0.73810  0.13282  0.21385  1.0000
  H   H3814     1.0  0.81780  0.23272  0.05127  1.0000
  C   C2399     1.0  0.87498  0.20421  0.21664  1.0000
  C   C2400     1.0  0.87823  0.19769  0.20473  1.0000
  H   H3815     1.0  0.91309  0.18097  0.20556  1.0000
  Fe  Fe499     1.0  0.76660  0.28276  0.10148  1.0000
  H   H3816     1.0  0.72426  0.27147  0.12530  1.0000
  H   H3817     1.0  0.87008  0.19907  0.19869  1.0000
  C   C2401     1.0  0.73372  0.17429  0.11876  1.0000
  C   C2402     1.0  0.73677  0.18602  0.10760  1.0000
  C   C2403     1.0  0.74076  0.18444  0.09321  1.0000
  C   C2404     1.0  0.74229  0.17103  0.09002  1.0000
  C   C2405     1.0  0.74033  0.15906  0.10121  1.0000
  C   C2406     1.0  0.73569  0.16077  0.11554  1.0000
  H   H3818     1.0  0.83541  0.26276  0.20087  1.0000
  H   H3819     1.0  0.74260  0.19358  0.08451  1.0000
  H   H3820     1.0  0.74167  0.14865  0.09874  1.0000
  H   H3821     1.0  0.73332  0.15170  0.12397  1.0000
  C   C2407     1.0  0.77902  0.08846  0.04907  1.0000
  C   C2408     1.0  0.77580  0.10253  0.04098  1.0000
  C   C2409     1.0  0.78316  0.10622  0.02663  1.0000
  C   C2410     1.0  0.79386  0.09590  0.02024  1.0000
  C   C2411     1.0  0.79754  0.08195  0.02854  1.0000
  C   C2412     1.0  0.79012  0.07822  0.04295  1.0000
  H   H3822     1.0  0.76739  0.11054  0.04576  1.0000
  H   H3823     1.0  0.78038  0.11700  0.02053  1.0000
  H   H3824     1.0  0.80584  0.07390  0.02370  1.0000
  H   H3825     1.0  0.79265  0.06732  0.04913  1.0000
  C   C2413     1.0  0.74455  0.07784  0.13692  1.0000
  C   C2414     1.0  0.73705  0.08246  0.14971  1.0000
  C   C2415     1.0  0.72592  0.09484  0.14939  1.0000
  C   C2416     1.0  0.72206  0.10249  0.13629  1.0000
  C   C2417     1.0  0.72933  0.09765  0.12353  1.0000
  C   C2418     1.0  0.74066  0.08543  0.12381  1.0000
  H   H3826     1.0  0.73995  0.07656  0.15989  1.0000
  H   H3827     1.0  0.72027  0.09843  0.15930  1.0000
  H   H3828     1.0  0.72636  0.10344  0.11338  1.0000
  H   H3829     1.0  0.74638  0.08188  0.11389  1.0000
  C   C2419     1.0  0.89420  0.09943  0.16734  1.0000
  C   C2420     1.0  0.89186  0.09404  0.18228  1.0000
  C   C2421     1.0  0.89859  0.09849  0.19082  1.0000
  C   C2422     1.0  0.90756  0.10846  0.18452  1.0000
  C   C2423     1.0  0.90969  0.11403  0.16961  1.0000
  C   C2424     1.0  0.90309  0.10946  0.16106  1.0000
  H   H3830     1.0  0.88497  0.08636  0.18726  1.0000
  H   H3831     1.0  0.89688  0.09415  0.20235  1.0000
  H   H3832     1.0  0.91663  0.12165  0.16463  1.0000
  H   H3833     1.0  0.90498  0.11367  0.14950  1.0000
  C   C2425     1.0  0.82561  0.07616  0.13488  1.0000
  C   C2426     1.0  0.81306  0.07858  0.12978  1.0000
  C   C2427     1.0  0.81262  0.07131  0.11949  1.0000
  C   C2428     1.0  0.82480  0.06161  0.11411  1.0000
  C   C2429     1.0  0.83747  0.05926  0.11907  1.0000
  C   C2430     1.0  0.83785  0.06646  0.12951  1.0000
  H   H3834     1.0  0.80362  0.08591  0.13394  1.0000
  H   H3835     1.0  0.80283  0.07320  0.11576  1.0000
  H   H3836     1.0  0.84693  0.05170  0.11501  1.0000
  H   H3837     1.0  0.84760  0.06445  0.13337  1.0000
  H   H3838     1.0  0.80181  0.31469  0.09945  1.0000
  C   C2431     1.0  0.75495  0.12594  0.18347  1.0000
  C   C2432     1.0  0.75621  0.13764  0.17174  1.0000
  C   C2433     1.0  0.68294  0.18722  0.20303  1.0000
  H   H3839     1.0  0.73929  0.07835  0.02289  1.0000
  H   H3840     1.0  0.74797  0.14189  0.16547  1.0000
  H   H3841     1.0  0.74866  0.27097  0.14858  1.0000
  C   C2434     1.0  0.80607  0.27283  0.21774  1.0000
  C   C2435     1.0  0.76646  0.12249  0.13364  1.0000
  C   C2436     1.0  0.98019  0.24801  0.08422  1.0000
  H   H3842     1.0  0.78599  0.09481  0.15429  1.0000
  H   H3843     1.0  0.71791  0.17762  0.20913  1.0000
  H   H3844     1.0  0.70460  0.20261  0.12521  1.0000
  H   H3845     1.0  0.71386  0.16619  0.08792  1.0000
  S   S992      1.0  0.76935  0.29934  0.08084  1.0000
  C   C2437     1.0  0.77887  0.00341  0.08912  1.0000
  C   C2438     1.0  0.76528  0.01060  0.08636  1.0000
  C   C2439     1.0  0.75777  0.00405  0.08047  1.0000
  C   C2440     1.0  0.70516  0.16364  0.09747  1.0000
  H   H3846     1.0  0.85591  0.99394  0.09409  1.0000
  H   H3847     1.0  0.76046  0.02108  0.08900  1.0000
  H   H3848     1.0  0.74721  0.00959  0.07847  1.0000
  C   C2441     1.0  0.85681  0.02670  0.14793  1.0000
  C   C2442     1.0  0.84832  0.02022  0.14324  1.0000
  H   H3849     1.0  0.85480  0.03832  0.14623  1.0000
  H   H3850     1.0  0.83996  0.02692  0.13771  1.0000
  N   N238      1.0  0.76372  0.17231  0.02583  1.0000
  C   C2443     1.0  0.76632  0.18294  0.03248  1.0000
  C   C2444     1.0  0.74877  0.17035  0.03159  1.0000
  C   C2445     1.0  0.77376  0.15835  0.02930  1.0000
  C   C2446     1.0  0.76598  0.17762  0.00999  1.0000
  H   H3851     1.0  0.77764  0.18438  0.02864  1.0000
  H   H3852     1.0  0.76424  0.17950  0.04449  1.0000
  H   H3853     1.0  0.75916  0.19370  0.02975  1.0000
  H   H3854     1.0  0.74675  0.16591  0.04345  1.0000
  H   H3855     1.0  0.74093  0.18078  0.02964  1.0000
  H   H3856     1.0  0.74627  0.16282  0.02637  1.0000
  H   H3857     1.0  0.77188  0.14998  0.02473  1.0000
  H   H3858     1.0  0.77244  0.15423  0.04120  1.0000
  H   H3859     1.0  0.78515  0.15934  0.02487  1.0000
  H   H3860     1.0  0.77701  0.17962  0.00527  1.0000
  H   H3861     1.0  0.75825  0.18794  0.00706  1.0000
  H   H3862     1.0  0.76446  0.16973  0.00454  1.0000
  N   N239      1.0  0.91844  0.19183  0.07269  1.0000
  C   C2447     1.0  0.90561  0.20072  0.08035  1.0000
  C   C2448     1.0  0.92990  0.18747  0.08106  1.0000
  C   C2449     1.0  0.92355  0.20030  0.05816  1.0000
  C   C2450     1.0  0.91464  0.17882  0.07120  1.0000
  H   H3863     1.0  0.89646  0.20352  0.07481  1.0000
  H   H3864     1.0  0.90788  0.21103  0.08092  1.0000
  H   H3865     1.0  0.90198  0.19503  0.09167  1.0000
  H   H3866     1.0  0.93992  0.18104  0.07549  1.0000
  H   H3867     1.0  0.93271  0.19702  0.08276  1.0000
  H   H3868     1.0  0.92648  0.18087  0.09200  1.0000
  H   H3869     1.0  0.93351  0.19416  0.05221  1.0000
  H   H3870     1.0  0.92599  0.21052  0.05878  1.0000
  H   H3871     1.0  0.91531  0.20339  0.05141  1.0000
  H   H3872     1.0  0.92410  0.17184  0.06551  1.0000
  H   H3873     1.0  0.90604  0.18176  0.06488  1.0000
  H   H3874     1.0  0.91063  0.17224  0.08196  1.0000
  H   H3875     1.0  0.93603  0.30723  0.07889  1.0000
  H   H3876     1.0  0.77009  0.09677  0.00710  1.0000
  S   S993      1.0  0.73308  0.30773  0.06884  1.0000
  N   N240      1.0  0.84300  0.29038  0.10113  1.0000
  H   H3877     1.0  0.82031  0.00215  0.11850  1.0000
  C   C2451     1.0  0.83998  0.30574  0.09373  1.0000
  C   C2452     1.0  0.85828  0.28383  0.09603  1.0000
  C   C2453     1.0  0.84006  0.28936  0.11689  1.0000
  H   H3878     1.0  0.95475  0.29894  0.05077  1.0000
  H   H3879     1.0  0.74800  0.16887  0.98338  1.0000
  H   H3880     1.0  0.69173  0.29737  0.12821  1.0000
  H   H3881     1.0  0.93506  0.28154  0.08621  1.0000
  H   H3882     1.0  0.68034  0.30144  0.10753  1.0000
  H   H3883     1.0  0.91569  0.07731  0.14858  1.0000
  C   C2454     1.0  0.72557  0.25048  0.14925  1.0000
  H   H3884     1.0  0.90744  0.19270  0.22640  1.0000
  C   C2455     1.0  0.94698  0.27888  0.08475  1.0000
  H   H3885     1.0  0.76018  0.29219  0.22711  1.0000
  H   H3886     1.0  0.81265  0.01684  0.10556  1.0000
  C   C2456     1.0  0.92373  0.06689  0.14886  1.0000
  N   N241      1.0  0.82985  0.12495  0.15561  1.0000
  C   C2457     1.0  0.81976  0.12828  0.14586  1.0000
  C   C2458     1.0  0.83209  0.13850  0.15762  1.0000
  C   C2459     1.0  0.84380  0.11650  0.14918  1.0000
  C   C2460     1.0  0.82376  0.11650  0.16977  1.0000
  H   H3887     1.0  0.81794  0.11820  0.14415  1.0000
  H   H3888     1.0  0.82393  0.13470  0.13508  1.0000
  H   H3889     1.0  0.80910  0.13462  0.15039  1.0000
  H   H3890     1.0  0.83958  0.13630  0.16503  1.0000
  H   H3891     1.0  0.83664  0.14518  0.14717  1.0000
  H   H3892     1.0  0.82180  0.14520  0.16242  1.0000
  H   H3893     1.0  0.84254  0.10617  0.14750  1.0000
  H   H3894     1.0  0.85176  0.11377  0.15620  1.0000
  H   H3895     1.0  0.84863  0.12254  0.13846  1.0000
  H   H3896     1.0  0.83096  0.11390  0.17754  1.0000
  H   H3897     1.0  0.82197  0.10616  0.16867  1.0000
  H   H3898     1.0  0.81320  0.12253  0.17484  1.0000
  H   H3899     1.0  0.88151  0.15599  0.18229  1.0000
  C   C2461     1.0  0.69438  0.27878  0.07141  1.0000
  Fe  Fe500     1.0  0.68981  0.29843  0.15668  1.0000
  H   H3900     1.0  0.66586  0.26162  0.12584  1.0000
  H   H3901     1.0  0.87339  0.13112  0.22544  1.0000
  S   S994      1.0  0.82712  0.18068  0.02013  1.0000
  C   C2462     1.0  0.76294  0.08963  0.01456  1.0000
  N   N242      1.0  0.83398  0.00587  0.09738  1.0000
  C   C2463     1.0  0.82870  0.99610  0.09184  1.0000
  C   C2464     1.0  0.81758  0.17877  0.00814  1.0000
  H   H3902     1.0  0.86135  0.15723  0.21971  1.0000
  C   C2465     1.0  0.74267  0.10315  0.00382  1.0000
  H   H3903     1.0  0.97474  0.16190  0.17921  1.0000
  H   H3904     1.0  0.89078  0.13547  0.21724  1.0000
  H   H3905     1.0  0.84677  0.31190  0.09604  1.0000
  H   H3906     1.0  0.85121  0.00491  0.10742  1.0000
  N   N243      1.0  0.74780  0.09753  0.01750  1.0000
  H   H3907     1.0  0.71008  0.31109  0.11897  1.0000
  N   N244      1.0  0.95363  0.28989  0.07346  1.0000
  S   S995      1.0  0.81624  0.13911  0.20276  1.0000
  C   C2466     1.0  0.74678  0.10971  0.02413  1.0000
  S   S996      1.0  0.80677  0.28074  0.05847  1.0000
  H   H3908     1.0  0.88517  0.12269  0.21117  1.0000
  C   C2467     1.0  0.83108  0.20140  0.22611  1.0000
  C   C2468     1.0  0.80429  0.17496  0.98776  1.0000
  C   C2469     1.0  0.88321  0.22129  0.03826  1.0000
  C   C2470     1.0  0.73883  0.08765  0.02756  1.0000
  C   C2471     1.0  0.84715  0.99796  0.10280  1.0000
  Fe  Fe501     1.0  0.81713  0.31413  0.14250  1.0000
  S   S997      1.0  0.67516  0.31780  0.14631  1.0000
  N   N245      1.0  0.70222  0.14936  0.09869  1.0000
  H   H3909     1.0  0.71351  0.12717  0.10150  1.0000
  C   C2472     1.0  0.76800  0.14421  0.16834  1.0000
  H   H3910     1.0  0.76879  0.15347  0.15947  1.0000
  H   H3911     1.0  0.83546  0.28333  0.08605  1.0000
  C   C2473     1.0  0.91127  0.05692  0.17265  1.0000
  C   C2474     1.0  0.90370  0.23268  0.02681  1.0000
  H   H3912     1.0  0.74912  0.11078  0.99611  1.0000
  C   C2475     1.0  0.81489  0.26022  0.01971  1.0000
  C   C2476     1.0  0.81354  0.19034  0.99713  1.0000
  H   H3913     1.0  0.97498  0.26183  0.11404  1.0000
  H   H3914     1.0  0.89367  0.20585  0.15926  1.0000
  H   H3915     1.0  0.74517  0.31471  0.12974  1.0000
  H   H3916     1.0  0.68092  0.23894  0.09978  1.0000
  H   H3917     1.0  0.74479  0.14889  0.22631  1.0000
  N   N246      1.0  0.69722  0.29339  0.06468  1.0000
  Fe  Fe502     1.0  0.69381  0.14869  0.17467  1.0000
  S   S998      1.0  0.78303  0.26494  0.09272  1.0000
  S   S999      1.0  0.95985  0.14980  0.20810  1.0000
  Fe  Fe503     1.0  0.86032  0.21324  0.01920  1.0000
  S   S1000     1.0  0.87068  0.21140  0.03797  1.0000
  C   C2477     1.0  0.82531  0.25680  0.02803  1.0000
  H   H3918     1.0  0.70767  0.16420  0.21933  1.0000
  C   C2478     1.0  0.68027  0.21160  0.11486  1.0000
  S   S1001     1.0  0.66278  0.28546  0.10152  1.0000
  H   H3919     1.0  0.82789  0.08796  0.20012  1.0000
  C   C2479     1.0  0.76558  0.12067  0.19166  1.0000
  H   H3920     1.0  0.76469  0.11154  0.20067  1.0000
  H   H3921     1.0  0.80369  0.18470  0.21756  1.0000
  S   S1002     1.0  0.97097  0.24253  0.07400  1.0000
  C   C2480     1.0  0.77834  0.13929  0.17689  1.0000
  C   C2481     1.0  0.85069  0.00515  0.14548  1.0000
  C   C2482     1.0  0.82597  0.08714  0.21160  1.0000
  S   S1003     1.0  0.86289  0.19575  0.00715  1.0000
  H   H3922     1.0  0.81527  0.20084  0.99652  1.0000
  H   H3923     1.0  0.73565  0.19640  0.11003  1.0000
  H   H3924     1.0  0.84548  0.01477  0.07637  1.0000
  C   C2483     1.0  0.77776  0.29584  0.12314  1.0000
  H   H3925     1.0  0.84241  0.25856  0.98365  1.0000
  H   H3926     1.0  0.87963  0.99643  0.16125  1.0000
  C   C2484     1.0  0.84322  0.25569  0.19383  1.0000
  H   H3927     1.0  0.84863  0.26288  0.18429  1.0000
  H   H3928     1.0  0.85157  0.24894  0.19993  1.0000
  C   C2485     1.0  0.77724  0.12740  0.18842  1.0000
  H   H3929     1.0  0.84177  0.23055  0.17661  1.0000
  H   H3930     1.0  0.84127  0.02585  0.08949  1.0000
  H   H3931     1.0  0.78538  0.12337  0.19487  1.0000
  H   H3932     1.0  0.83527  0.24914  0.02543  1.0000
  S   S1004     1.0  0.76483  0.28654  0.12343  1.0000
  H   H3933     1.0  0.98004  0.15261  0.22299  1.0000
  C   C2486     1.0  0.86205  0.99656  0.15194  1.0000
  S   S1005     1.0  0.79209  0.14857  0.17363  1.0000
  N   N247      1.0  0.83601  0.24670  0.18938  1.0000
  H   H3934     1.0  0.82107  0.24397  0.20991  1.0000
  H   H3935     1.0  0.82263  0.23108  0.19937  1.0000
  H   H3936     1.0  0.83036  0.26328  0.17135  1.0000
  Fe  Fe504     1.0  0.83511  0.23187  0.00627  1.0000
  H   H3937     1.0  0.74291  0.26124  0.07684  1.0000
  C   C2487     1.0  0.82879  0.23747  0.20229  1.0000
  H   H3938     1.0  0.81695  0.26331  0.18780  1.0000
  H   H3939     1.0  0.85520  0.23025  0.18602  1.0000
  H   H3940     1.0  0.73901  0.15891  0.18888  1.0000
  C   C2488     1.0  0.82523  0.25619  0.18115  1.0000
  C   C2489     1.0  0.84683  0.23749  0.18015  1.0000
  H   H3941     1.0  0.82341  0.03577  0.16310  1.0000
  S   S1006     1.0  0.81753  0.25179  0.00528  1.0000
  H   H3942     1.0  0.71959  0.13809  0.22262  1.0000
  H   H3943     1.0  0.71641  0.25540  0.15710  1.0000
  H   H3944     1.0  0.83668  0.22960  0.20832  1.0000
  C   C2490     1.0  0.66341  0.21543  0.08349  1.0000
  H   H3945     1.0  0.91974  0.05798  0.17761  1.0000
  Fe  Fe505     1.0  0.69439  0.19511  0.06662  1.0000
  H   H3946     1.0  0.71334  0.16638  0.20010  1.0000
  H   H3947     1.0  0.85241  0.24414  0.17026  1.0000
  C   C2491     1.0  0.76381  0.99030  0.07735  1.0000
  H   H3948     1.0  0.69542  0.13860  0.08609  1.0000
  S   S1007     1.0  0.83548  0.21628  0.99324  1.0000
  C   C2492     1.0  0.97582  0.15662  0.20167  1.0000
  S   S1008     1.0  0.72663  0.17687  0.13649  1.0000
  C   C2493     1.0  0.82293  0.26344  0.03971  1.0000
  H   H3949     1.0  0.76471  0.09830  0.12691  1.0000
  H   H3950     1.0  0.89608  0.23148  0.15560  1.0000
  C   C2494     1.0  0.98077  0.16191  0.18694  1.0000
  H   H3951     1.0  0.68381  0.20591  0.10570  1.0000
  H   H3952     1.0  0.90312  0.20649  0.14080  1.0000
  H   H3953     1.0  0.90628  0.23105  0.13754  1.0000
  H   H3954     1.0  0.81953  0.24988  0.17755  1.0000
  H   H3955     1.0  0.86335  0.15497  0.99052  1.0000
  H   H3956     1.0  0.68047  0.15450  0.11060  1.0000
  C   C2495     1.0  0.92809  0.04104  0.15793  1.0000
  N   N248      1.0  0.91713  0.05465  0.15773  1.0000
  C   C2496     1.0  0.68540  0.22771  0.12669  1.0000
  S   S1009     1.0  0.76193  0.23751  0.09109  1.0000
  C   C2497     1.0  0.90712  0.22848  0.14910  1.0000
  H   H3957     1.0  0.76713  0.08520  0.02468  1.0000
  H   H3958     1.0  0.74464  0.25019  0.12385  1.0000
  H   H3959     1.0  0.80322  0.21524  0.04018  1.0000
  H   H3960     1.0  0.83104  0.26082  0.04611  1.0000
  H   H3961     1.0  0.89524  0.14970  0.19264  1.0000
  H   H3962     1.0  0.81330  0.10882  0.21080  1.0000
  C   C2498     1.0  0.90455  0.20407  0.15213  1.0000
  H   H3963     1.0  0.90944  0.19235  0.15499  1.0000
  H   H3964     1.0  0.91369  0.23560  0.15015  1.0000
  H   H3965     1.0  0.67601  0.30201  0.06033  1.0000
  H   H3966     1.0  0.91924  0.19850  0.17307  1.0000
  C   C2499     1.0  0.79745  0.22616  0.04217  1.0000
  N   N249      1.0  0.91358  0.21306  0.15384  1.0000
  S   S1010     1.0  0.71611  0.31470  0.18425  1.0000
  C   C2500     1.0  0.80706  0.18841  0.98691  1.0000
  H   H3967     1.0  0.80313  0.23416  0.03391  1.0000
  S   S1011     1.0  0.85882  0.23125  0.99950  1.0000
  S   S1012     1.0  0.70941  0.30797  0.14916  1.0000
  H   H3968     1.0  0.81183  0.22574  0.07017  1.0000
  C   C2501     1.0  0.77909  0.29835  0.13604  1.0000
  C   C2502     1.0  0.91445  0.21007  0.16919  1.0000
  N   N250      1.0  0.69047  0.22045  0.11431  1.0000
  H   H3969     1.0  0.69373  0.14665  0.12158  1.0000
  Fe  Fe506     1.0  0.80157  0.13317  0.22419  1.0000
  H   H3970     1.0  0.79448  0.25035  0.05114  1.0000
  H   H3971     1.0  0.92796  0.21244  0.13320  1.0000
  H   H3972     1.0  0.90360  0.21239  0.17630  1.0000
  H   H3973     1.0  0.74828  0.10568  0.14899  1.0000
  S   S1013     1.0  0.69726  0.15396  0.15043  1.0000
  C   C2503     1.0  0.92818  0.20959  0.14490  1.0000
  H   H3974     1.0  0.93553  0.21562  0.14644  1.0000
  H   H3975     1.0  0.92117  0.21663  0.17096  1.0000
  N   N251      1.0  0.79698  0.22733  0.05700  1.0000
  H   H3976     1.0  0.76349  0.13033  0.14085  1.0000
  C   C2504     1.0  0.70484  0.21107  0.11504  1.0000
  Fe  Fe507     1.0  0.76477  0.26018  0.08674  1.0000
  H   H3977     1.0  0.72429  0.13993  0.09054  1.0000
  Fe  Fe508     1.0  0.79576  0.14951  0.19489  1.0000
  H   H3978     1.0  0.93309  0.19784  0.14759  1.0000
  H   H3979     1.0  0.77788  0.24418  0.05788  1.0000
  C   C2505     1.0  0.78922  0.24194  0.05910  1.0000
  H   H3980     1.0  0.79486  0.20536  0.06631  1.0000
  C   C2506     1.0  0.81180  0.22476  0.05915  1.0000
  H   H3981     1.0  0.77808  0.21837  0.06644  1.0000
  C   C2507     1.0  0.78940  0.21654  0.06761  1.0000
  H   H3982     1.0  0.70862  0.16409  0.10721  1.0000
  H   H3983     1.0  0.73548  0.16740  0.22460  1.0000
  H   H3984     1.0  0.78010  0.11332  0.15588  1.0000
  H   H3985     1.0  0.82630  0.01885  0.11346  1.0000
  H   H3986     1.0  0.74646  0.25383  0.16013  1.0000
  H   H3987     1.0  0.93278  0.03902  0.14683  1.0000
  C   C2508     1.0  0.68629  0.28945  0.12760  1.0000
  H   H3988     1.0  0.78885  0.21719  0.07891  1.0000
  C   C2509     1.0  0.69068  0.14640  0.11153  1.0000
  H   H3989     1.0  0.78892  0.24332  0.07007  1.0000
  H   H3990     1.0  0.83870  0.20595  0.22866  1.0000
  H   H3991     1.0  0.78549  0.29930  0.10006  1.0000
  C   C2510     1.0  0.78272  0.10602  0.14816  1.0000
  N   N252      1.0  0.73020  0.15577  0.21177  1.0000
  C   C2511     1.0  0.89925  0.19407  0.22040  1.0000
  H   H3992     1.0  0.75820  0.31705  0.10451  1.0000
  H   H3993     1.0  0.83708  0.99135  0.08329  1.0000
  H   H3994     1.0  0.72737  0.09330  0.03014  1.0000
  H   H3995     1.0  0.67922  0.20327  0.12508  1.0000
  H   H3996     1.0  0.79223  0.10876  0.13974  1.0000
  H   H3997     1.0  0.69481  0.22626  0.09109  1.0000
  C   C2512     1.0  0.88580  0.14697  0.19068  1.0000
  H   H3998     1.0  0.75711  0.12398  0.12865  1.0000
  C   C2513     1.0  0.88128  0.13302  0.21503  1.0000
  H   H3999     1.0  0.77555  0.12549  0.12476  1.0000
  C   C2514     1.0  0.83148  0.07422  0.22049  1.0000
  C   C2515     1.0  0.77397  0.09747  0.13177  1.0000
  C   C2516     1.0  0.68507  0.27733  0.13882  1.0000
  C   C2517     1.0  0.75799  0.10399  0.15338  1.0000
  H   H4000     1.0  0.78318  0.09976  0.12271  1.0000
  H   H4001     1.0  0.75520  0.11094  0.16139  1.0000
  H   H4002     1.0  0.71286  0.21737  0.11456  1.0000
  C   C2518     1.0  0.67813  0.26703  0.13794  1.0000
  H   H4003     1.0  0.73130  0.10927  0.00561  1.0000
  H   H4004     1.0  0.79993  0.01858  0.15196  1.0000
  Fe  Fe509     1.0  0.78431  0.28088  0.07152  1.0000
  H   H4005     1.0  0.70155  0.29609  0.08404  1.0000
  C   C2519     1.0  0.71670  0.16647  0.21002  1.0000
  H   H4006     1.0  0.77683  0.08601  0.13748  1.0000
  H   H4007     1.0  0.80043  0.26500  0.21722  1.0000
  H   H4008     1.0  0.71932  0.13807  0.10985  1.0000
  C   C2520     1.0  0.86986  0.15830  0.20967  1.0000
  H   H4009     1.0  0.68487  0.21976  0.13719  1.0000
  H   H4010     1.0  0.76023  0.09256  0.15934  1.0000
  C   C2521     1.0  0.66043  0.20218  0.08382  1.0000
  N   N253      1.0  0.73575  0.26018  0.14226  1.0000
  H   H4011     1.0  0.68322  0.30303  0.08204  1.0000
  S   S1014     1.0  0.69048  0.27604  0.15476  1.0000
  H   H4012     1.0  0.89999  0.04477  0.15800  1.0000
  C   C2522     1.0  0.83721  0.01831  0.08564  1.0000
  S   S1015     1.0  0.67277  0.15661  0.18916  1.0000
  H   H4013     1.0  0.76418  0.08041  0.00947  1.0000
  S   S1016     1.0  0.67437  0.18760  0.07959  1.0000
  H   H4014     1.0  0.69166  0.17606  0.18545  1.0000
  H   H4015     1.0  0.69543  0.17236  0.09629  1.0000
  H   H4016     1.0  0.72288  0.29781  0.09955  1.0000
  S   S1017     1.0  0.67047  0.20281  0.22414  1.0000
  C   C2523     1.0  0.73430  0.15635  0.22498  1.0000
  C   C2524     1.0  0.81765  0.09893  0.21767  1.0000
  C   C2525     1.0  0.95012  0.29058  0.05954  1.0000
  S   S1018     1.0  0.76715  0.27478  0.06474  1.0000
  C   C2526     1.0  0.69761  0.14927  0.08558  1.0000
  H   H4017     1.0  0.69698  0.27195  0.06326  1.0000
  H   H4018     1.0  0.73089  0.24001  0.15529  1.0000
  C   C2527     1.0  0.71984  0.30942  0.09693  1.0000
  H   H4019     1.0  0.73572  0.28128  0.12850  1.0000
  H   H4020     1.0  0.84247  0.27796  0.12290  1.0000
  H   H4021     1.0  0.97254  0.28468  0.08247  1.0000
  H   H4022     1.0  0.95052  0.30384  0.08802  1.0000
  H   H4023     1.0  0.71992  0.28691  0.06408  1.0000
  C   C2528     1.0  0.67996  0.29167  0.11579  1.0000
  H   H4024     1.0  0.68759  0.15754  0.08417  1.0000
  H   H4025     1.0  0.84744  0.18606  0.21531  1.0000
  C   C2529     1.0  0.79554  0.31010  0.10967  1.0000
  C   C2530     1.0  0.78880  0.30659  0.13576  1.0000
  C   C2531     1.0  0.67330  0.16832  0.19969  1.0000
  C   C2532     1.0  0.72839  0.27364  0.13384  1.0000
  S   S1019     1.0  0.79375  0.17111  0.19956  1.0000
  H   H4026     1.0  0.77258  0.29402  0.14623  1.0000
  C   C2533     1.0  0.67178  0.18925  0.21505  1.0000
  H   H4027     1.0  0.70597  0.15171  0.07566  1.0000
  H   H4028     1.0  0.73184  0.26935  0.16091  1.0000
  C   C2534     1.0  0.96943  0.28598  0.07201  1.0000
  S   S1020     1.0  0.83211  0.16957  0.20671  1.0000
  H   H4029     1.0  0.71902  0.27933  0.14087  1.0000
  C   C2535     1.0  0.98054  0.25818  0.10415  1.0000
  H   H4030     1.0  0.84672  0.29530  0.11969  1.0000
  H   H4031     1.0  0.75607  0.25990  0.12714  1.0000
  H   H4032     1.0  0.86594  0.13073  0.19726  1.0000
  C   C2536     1.0  0.68359  0.17691  0.19524  1.0000
  H   H4033     1.0  0.75392  0.24272  0.13852  1.0000
  Fe  Fe510     1.0  0.81306  0.16004  0.20937  1.0000
  H   H4034     1.0  0.84205  0.30697  0.08180  1.0000
  H   H4035     1.0  0.86082  0.28400  0.08425  1.0000
  H   H4036     1.0  0.95264  0.31270  0.06926  1.0000
  H   H4037     1.0  0.72095  0.24816  0.14116  1.0000
  H   H4038     1.0  0.78978  0.30855  0.14575  1.0000
  C   C2537     1.0  0.80878  0.02377  0.15162  1.0000
  H   H4039     1.0  0.94953  0.27788  0.09540  1.0000
  H   H4040     1.0  0.93260  0.06793  0.15327  1.0000
  C   C2538     1.0  0.86256  0.14094  0.20130  1.0000
  C   C2539     1.0  0.67236  0.28177  0.11523  1.0000
  H   H4041     1.0  0.72452  0.14048  0.20337  1.0000
  Fe  Fe511     1.0  0.75193  0.29163  0.07629  1.0000
  H   H4042     1.0  0.86114  0.27240  0.10182  1.0000
  H   H4043     1.0  0.78965  0.28429  0.03758  1.0000
  C   C2540     1.0  0.79316  0.04738  0.14923  1.0000
  H   H4044     1.0  0.74255  0.08316  0.03796  1.0000
  N   N254      1.0  0.80331  0.03692  0.15767  1.0000
  H   H4045     1.0  0.86559  0.28973  0.09788  1.0000
  C   C2541     1.0  0.83366  0.28266  0.09789  1.0000
  C   C2542     1.0  0.80646  0.20075  0.22712  1.0000
  C   C2543     1.0  0.81549  0.04337  0.15687  1.0000
  H   H4046     1.0  0.81906  0.00185  0.08719  1.0000
  H   H4047     1.0  0.82858  0.29408  0.12109  1.0000
  C   C2544     1.0  0.71233  0.29224  0.05669  1.0000
  C   C2545     1.0  0.72801  0.14116  0.21300  1.0000
  H   H4048     1.0  0.78657  0.02825  0.17391  1.0000
  C   C2546     1.0  0.79585  0.03313  0.17292  1.0000
  H   H4049     1.0  0.79165  0.04282  0.17782  1.0000
  C   C2547     1.0  0.78621  0.30146  0.11001  1.0000
  H   H4050     1.0  0.95450  0.28006  0.05608  1.0000
  C   C2548     1.0  0.74090  0.26371  0.15348  1.0000
  C   C2549     1.0  0.81137  0.18933  0.21986  1.0000
  H   H4051     1.0  0.86519  0.16744  0.20159  1.0000
  H   H4052     1.0  0.79841  0.05025  0.13763  1.0000
  S   S1021     1.0  0.68335  0.30453  0.17823  1.0000
  H   H4053     1.0  0.74394  0.16995  0.19797  1.0000
  H   H4054     1.0  0.90941  0.05188  0.14028  1.0000
  H   H4055     1.0  0.90277  0.06696  0.17289  1.0000
  H   H4056     1.0  0.93705  0.04125  0.16271  1.0000
  H   H4057     1.0  0.75209  0.15111  0.19996  1.0000
  H   H4058     1.0  0.79502  0.20484  0.23037  1.0000
  H   H4059     1.0  0.74949  0.10582  0.03500  1.0000
  H   H4060     1.0  0.70903  0.20541  0.10589  1.0000
  S   S1022     1.0  0.78134  0.14160  0.21575  1.0000
  C   C2550     1.0  0.79688  0.31260  0.12255  1.0000
  C   C2551     1.0  0.82097  0.29291  0.21892  1.0000
  H   H4061     1.0  0.69076  0.19402  0.19940  1.0000
  H   H4062     1.0  0.84651  0.17825  0.99192  1.0000
  H   H4063     1.0  0.90635  0.04781  0.17974  1.0000
  H   H4064     1.0  0.68915  0.29494  0.04593  1.0000
  H   H4065     1.0  0.82856  0.31103  0.09741  1.0000
  C   C2552     1.0  0.83601  0.19015  0.21857  1.0000
  H   H4066     1.0  0.80325  0.02520  0.17954  1.0000
  H   H4067     1.0  0.83572  0.27103  0.10325  1.0000
  H   H4068     1.0  0.66934  0.21837  0.11418  1.0000
  C   C2553     1.0  0.94795  0.30407  0.07757  1.0000
  H   H4069     1.0  0.81198  0.30640  0.20088  1.0000
  H   H4070     1.0  0.87888  0.16150  0.21203  1.0000
  H   H4071     1.0  0.89705  0.06393  0.15099  1.0000
  Fe  Fe512     1.0  0.78098  0.16234  0.22125  1.0000
  C   C2554     1.0  0.76392  0.30255  0.22372  1.0000
  H   H4072     1.0  0.81653  0.01562  0.15768  1.0000
  C   C2555     1.0  0.74811  0.25292  0.13253  1.0000
  H   H4073     1.0  0.92333  0.03162  0.16444  1.0000
  N   N255      1.0  0.87485  0.14480  0.20419  1.0000
  Fe  Fe513     1.0  0.76276  0.13961  0.98510  1.0000
  H   H4074     1.0  0.81185  0.05345  0.16115  1.0000
  C   C2556     1.0  0.69462  0.30164  0.07603  1.0000
  C   C2557     1.0  0.67169  0.26932  0.12618  1.0000
  H   H4075     1.0  0.78374  0.04293  0.14969  1.0000
  H   H4076     1.0  0.88981  0.13706  0.18612  1.0000
  C   C2558     1.0  0.74179  0.15911  0.19909  1.0000
  C   C2559     1.0  0.82614  0.18403  0.21556  1.0000
  H   H4077     1.0  0.67441  0.23455  0.12679  1.0000
  H   H4078     1.0  0.82740  0.02467  0.08152  1.0000
  H   H4079     1.0  0.92817  0.06565  0.13748  1.0000
  H   H4080     1.0  0.67706  0.25769  0.14666  1.0000
  H   H4081     1.0  0.82687  0.30063  0.21920  1.0000
  Fe  Fe514     1.0  0.79144  0.12029  0.98798  1.0000
  H   H4082     1.0  0.78894  0.05756  0.15328  1.0000
  C   C2560     1.0  0.90540  0.05376  0.15148  1.0000
  H   H4083     1.0  0.70082  0.27308  0.07979  1.0000
  C   C2561     1.0  0.81464  0.26950  0.22798  1.0000
  H   H4084     1.0  0.97479  0.29428  0.06393  1.0000
  H   H4085     1.0  0.85756  0.14959  0.19308  1.0000
  H   H4086     1.0  0.65922  0.18888  0.18090  1.0000
  H   H4087     1.0  0.71480  0.30307  0.05137  1.0000
  C   C2562     1.0  0.88553  0.20245  0.22444  1.0000
  H   H4088     1.0  0.69708  0.31257  0.07139  1.0000
  H   H4089     1.0  0.71481  0.28587  0.04818  1.0000
  S   S1023     1.0  0.83993  0.31417  0.14177  1.0000
  H   H4090     1.0  0.97409  0.27558  0.06839  1.0000
  H   H4091     1.0  0.66038  0.29471  0.15145  1.0000
  H   H4092     1.0  0.73983  0.19300  0.98941  1.0000
  C   C2563     1.0  0.66148  0.18070  0.21950  1.0000
  C   C2564     1.0  0.66238  0.17012  0.21196  1.0000
  H   H4093     1.0  0.68936  0.31199  0.04930  1.0000
  H   H4094     1.0  0.83865  0.15835  0.98701  1.0000
  Fe  Fe515     1.0  0.70166  0.31595  0.16975  1.0000
  C   C2565     1.0  0.71240  0.31693  0.10794  1.0000
  C   C2566     1.0  0.82232  0.27943  0.22841  1.0000
  C   C2567     1.0  0.81629  0.20672  0.23031  1.0000
  H   H4095     1.0  0.72059  0.98931  0.08620  1.0000
  H   H4096     1.0  0.70225  0.98907  0.08699  1.0000
  H   H4097     1.0  0.70800  0.98785  0.10328  1.0000
  N   N256      1.0  0.77527  0.13305  0.27165  1.0000
  H   H4098     1.0  0.68058  0.24103  0.36273  1.0000
  H   H4099     1.0  0.78664  0.23730  0.27941  1.0000
  H   H4100     1.0  0.84354  0.27966  0.26446  1.0000
  C   C2568     1.0  0.67566  0.21800  0.34501  1.0000
  H   H4101     1.0  0.87051  0.19364  0.26674  1.0000
  H   H4102     1.0  0.68719  0.23620  0.23287  1.0000
  S   S1024     1.0  0.75892  0.17317  0.23152  1.0000
  C   C2569     1.0  0.74346  0.17957  0.25730  1.0000
  H   H4103     1.0  0.76880  0.14788  0.25292  1.0000
  C   C2570     1.0  0.82002  0.08477  0.24154  1.0000
  C   C2571     1.0  0.68273  0.22630  0.34917  1.0000
  Fe  Fe516     1.0  0.70699  0.21879  0.32059  1.0000
  N   N257      1.0  0.82422  0.28434  0.28039  1.0000
  H   H4104     1.0  0.82040  0.29489  0.25913  1.0000
  Fe  Fe517     1.0  0.72865  0.20258  0.29860  1.0000
  S   S1025     1.0  0.71391  0.21000  0.28308  1.0000
  S   S1026     1.0  0.75105  0.18965  0.29159  1.0000
  Fe  Fe518     1.0  0.70950  0.23146  0.28874  1.0000
  S   S1027     1.0  0.70928  0.25091  0.27068  1.0000
  H   H4105     1.0  0.88018  0.17734  0.30245  1.0000
  H   H4106     1.0  0.79744  0.13229  0.26093  1.0000
  S   S1028     1.0  0.72556  0.22465  0.30290  1.0000
  S   S1029     1.0  0.71163  0.19588  0.31787  1.0000
  Fe  Fe519     1.0  0.82726  0.22558  0.24693  1.0000
  S   S1030     1.0  0.84259  0.20925  0.25939  1.0000
  H   H4107     1.0  0.78016  0.29677  0.25184  1.0000
  Fe  Fe520     1.0  0.83748  0.22536  0.27332  1.0000
  S   S1031     1.0  0.83659  0.21819  0.29706  1.0000
  S   S1032     1.0  0.82035  0.24047  0.26236  1.0000
  Fe  Fe521     1.0  0.77659  0.28005  0.31572  1.0000
  S   S1033     1.0  0.77912  0.29048  0.29227  1.0000
  S   S1034     1.0  0.79621  0.26940  0.32499  1.0000
  Fe  Fe522     1.0  0.74434  0.28974  0.32147  1.0000
  S   S1035     1.0  0.74399  0.30065  0.29838  1.0000
  S   S1036     1.0  0.72361  0.29066  0.33811  1.0000
  Fe  Fe523     1.0  0.76049  0.28125  0.29311  1.0000
  S   S1037     1.0  0.76227  0.27330  0.27324  1.0000
  Fe  Fe524     1.0  0.76259  0.30907  0.29943  1.0000
  C   C2572     1.0  0.66514  0.20255  0.29673  1.0000
  S   S1038     1.0  0.75913  0.26916  0.31616  1.0000
  S   S1039     1.0  0.76182  0.29962  0.32296  1.0000
  N   N258      1.0  0.68705  0.22032  0.25274  1.0000
  Fe  Fe525     1.0  0.85892  0.22204  0.24560  1.0000
  C   C2573     1.0  0.76426  0.14075  0.28210  1.0000
  H   H4108     1.0  0.89641  0.19142  0.26398  1.0000
  C   C2574     1.0  0.87890  0.18928  0.29921  1.0000
  H   H4109     1.0  0.69415  0.31020  0.45329  1.0000
  C   C2575     1.0  0.71921  0.30668  0.34455  1.0000
  H   H4110     1.0  0.66919  0.21387  0.24945  1.0000
  H   H4111     1.0  0.85842  0.19515  0.28384  1.0000
  Fe  Fe526     1.0  0.69661  0.20505  0.30251  1.0000
  H   H4112     1.0  0.75982  0.13304  0.25978  1.0000
  H   H4113     1.0  0.84550  0.27270  0.28287  1.0000
  H   H4114     1.0  0.82359  0.29688  0.29557  1.0000
  H   H4115     1.0  0.70113  0.23008  0.25868  1.0000
  H   H4116     1.0  0.70351  0.29930  0.36315  1.0000
  C   C2576     1.0  0.82442  0.23129  0.30589  1.0000
  C   C2577     1.0  0.81129  0.23812  0.30177  1.0000
  C   C2578     1.0  0.80218  0.24946  0.30808  1.0000
  C   C2579     1.0  0.80637  0.25412  0.31831  1.0000
  C   C2580     1.0  0.81932  0.24705  0.32267  1.0000
  C   C2581     1.0  0.82828  0.23557  0.31656  1.0000
  H   H4117     1.0  0.80814  0.23464  0.29374  1.0000
  H   H4118     1.0  0.79210  0.25481  0.30481  1.0000
  H   H4119     1.0  0.82252  0.25059  0.33065  1.0000
  H   H4120     1.0  0.83838  0.23029  0.31981  1.0000
  C   C2582     1.0  0.72278  0.25908  0.27126  1.0000
  C   C2583     1.0  0.73261  0.26320  0.25857  1.0000
  C   C2584     1.0  0.74452  0.26800  0.25922  1.0000
  C   C2585     1.0  0.74642  0.26901  0.27251  1.0000
  C   C2586     1.0  0.73625  0.26554  0.28513  1.0000
  C   C2587     1.0  0.72452  0.26038  0.28453  1.0000
  H   H4121     1.0  0.73132  0.26213  0.24833  1.0000
  H   H4122     1.0  0.75241  0.27062  0.24945  1.0000
  H   H4123     1.0  0.73772  0.26628  0.29543  1.0000
  H   H4124     1.0  0.71689  0.25724  0.29435  1.0000
  H   H4125     1.0  0.67496  0.31845  0.43141  1.0000
  H   H4126     1.0  0.78150  0.11451  0.28795  1.0000
  N   N259      1.0  0.68327  0.29880  0.44519  1.0000
  H   H4127     1.0  0.81778  0.08380  0.25312  1.0000
  H   H4128     1.0  0.68156  0.21110  0.33750  1.0000
  H   H4129     1.0  0.70634  0.20447  0.25607  1.0000
  C   C2588     1.0  0.72612  0.31807  0.33709  1.0000
  C   C2589     1.0  0.67854  0.28984  0.45954  1.0000
  H   H4130     1.0  0.76036  0.22228  0.29353  1.0000
  H   H4131     1.0  0.78894  0.29450  0.23382  1.0000
  C   C2590     1.0  0.66097  0.21835  0.35080  1.0000
  C   C2591     1.0  0.81996  0.28727  0.29513  1.0000
  Fe  Fe527     1.0  0.83814  0.25077  0.24781  1.0000
  H   H4132     1.0  0.69058  0.20155  0.26971  1.0000
  H   H4133     1.0  0.76035  0.24114  0.28658  1.0000
  H   H4134     1.0  0.76775  0.13883  0.29247  1.0000
  H   H4135     1.0  0.80806  0.28933  0.29901  1.0000
  H   H4136     1.0  0.66540  0.23208  0.25202  1.0000
  C   C2592     1.0  0.84003  0.28201  0.27552  1.0000
  H   H4137     1.0  0.66699  0.22215  0.30117  1.0000
  C   C2593     1.0  0.76723  0.18150  0.26646  1.0000
  C   C2594     1.0  0.75344  0.18428  0.27524  1.0000
  C   C2595     1.0  0.74166  0.18286  0.27079  1.0000
  H   H4138     1.0  0.78601  0.11126  0.26997  1.0000
  H   H4139     1.0  0.70012  0.31043  0.43437  1.0000
  H   H4140     1.0  0.77647  0.18224  0.26996  1.0000
  H   H4141     1.0  0.73116  0.18405  0.27785  1.0000
  C   C2596     1.0  0.77769  0.11732  0.27765  1.0000
  H   H4142     1.0  0.77814  0.13032  0.24999  1.0000
  H   H4143     1.0  0.82071  0.30684  0.26999  1.0000
  S   S1040     1.0  0.69068  0.22746  0.30661  1.0000
  H   H4144     1.0  0.73424  0.17867  0.25389  1.0000
  C   C2597     1.0  0.68651  0.29032  0.43392  1.0000
  N   N260      1.0  0.88052  0.19433  0.28338  1.0000
  H   H4145     1.0  0.75067  0.23236  0.27966  1.0000
  H   H4146     1.0  0.78749  0.14973  0.26423  1.0000
  H   H4147     1.0  0.67521  0.29623  0.46815  1.0000
  C   C2598     1.0  0.68949  0.23003  0.26061  1.0000
  C   C2599     1.0  0.77851  0.29495  0.24173  1.0000
  C   C2600     1.0  0.69263  0.22496  0.23707  1.0000
  S   S1041     1.0  0.66290  0.30879  0.40991  1.0000
  S   S1042     1.0  0.70095  0.22647  0.34142  1.0000
  H   H4148     1.0  0.77506  0.20440  0.27934  1.0000
  N   N261      1.0  0.77364  0.22727  0.27233  1.0000
  C   C2601     1.0  0.77426  0.21310  0.26947  1.0000
  C   C2602     1.0  0.76070  0.23092  0.28352  1.0000
  C   C2603     1.0  0.77299  0.23839  0.25887  1.0000
  C   C2604     1.0  0.78662  0.22665  0.27746  1.0000
  H   H4149     1.0  0.78375  0.21012  0.26084  1.0000
  H   H4150     1.0  0.76442  0.21307  0.26597  1.0000
  H   H4151     1.0  0.69510  0.28050  0.43584  1.0000
  C   C2605     1.0  0.66025  0.23572  0.36453  1.0000
  C   C2606     1.0  0.81740  0.29677  0.27035  1.0000
  H   H4152     1.0  0.80769  0.27240  0.28458  1.0000
  H   H4153     1.0  0.77319  0.24909  0.26046  1.0000
  H   H4154     1.0  0.76302  0.23954  0.25503  1.0000
  H   H4155     1.0  0.78229  0.23570  0.25003  1.0000
  H   H4156     1.0  0.79659  0.22359  0.26940  1.0000
  H   H4157     1.0  0.78728  0.21856  0.28778  1.0000
  H   H4158     1.0  0.70531  0.29425  0.44724  1.0000
  C   C2607     1.0  0.66074  0.21718  0.29725  1.0000
  C   C2608     1.0  0.67172  0.31159  0.44219  1.0000
  H   H4159     1.0  0.90362  0.19070  0.27920  1.0000
  H   H4160     1.0  0.86803  0.19415  0.30498  1.0000
  C   C2609     1.0  0.69631  0.30357  0.44505  1.0000
  C   C2610     1.0  0.89498  0.18774  0.27597  1.0000
  C   C2611     1.0  0.67508  0.23492  0.35918  1.0000
  H   H4161     1.0  0.89676  0.17575  0.27846  1.0000
  H   H4162     1.0  0.66916  0.28547  0.45979  1.0000
  H   H4163     1.0  0.88702  0.19229  0.30319  1.0000
  H   H4164     1.0  0.87042  0.17826  0.28145  1.0000
  H   H4165     1.0  0.77587  0.28412  0.24434  1.0000
  S   S1043     1.0  0.84409  0.23683  0.23158  1.0000
  S   S1044     1.0  0.85471  0.23728  0.26034  1.0000
  H   H4166     1.0  0.66706  0.21713  0.26700  1.0000
  H   H4167     1.0  0.68723  0.28046  0.46251  1.0000
  C   C2612     1.0  0.66214  0.31044  0.38171  1.0000
  H   H4168     1.0  0.77966  0.17645  0.24604  1.0000
  H   H4169     1.0  0.88673  0.21378  0.28316  1.0000
  C   C2613     1.0  0.78889  0.13791  0.26880  1.0000
  H   H4170     1.0  0.74490  0.31617  0.24350  1.0000
  H   H4171     1.0  0.86778  0.21556  0.28486  1.0000
  C   C2614     1.0  0.70895  0.30802  0.35737  1.0000
  H   H4172     1.0  0.75575  0.31083  0.25687  1.0000
  C   C2615     1.0  0.77026  0.13621  0.25801  1.0000
  C   C2616     1.0  0.81479  0.09778  0.23265  1.0000
  C   C2617     1.0  0.67148  0.22090  0.25538  1.0000
  S   S1045     1.0  0.68150  0.19231  0.30097  1.0000
  S   S1046     1.0  0.83413  0.27474  0.24025  1.0000
  H   H4173     1.0  0.82449  0.27791  0.30310  1.0000
  H   H4174     1.0  0.69274  0.19773  0.25229  1.0000
  C   C2618     1.0  0.86948  0.19016  0.27866  1.0000
  C   C2619     1.0  0.87867  0.21021  0.27964  1.0000
  H   H4175     1.0  0.87996  0.21438  0.26776  1.0000
  N   N262      1.0  0.68942  0.27446  0.33689  1.0000
  C   C2620     1.0  0.70077  0.26607  0.34492  1.0000
  C   C2621     1.0  0.67540  0.27677  0.34712  1.0000
  C   C2622     1.0  0.68866  0.26644  0.32645  1.0000
  C   C2623     1.0  0.69288  0.28860  0.32904  1.0000
  H   H4176     1.0  0.71155  0.26447  0.33754  1.0000
  H   H4177     1.0  0.69878  0.25515  0.35065  1.0000
  H   H4178     1.0  0.70156  0.27170  0.35304  1.0000
  H   H4179     1.0  0.66660  0.28317  0.34143  1.0000
  H   H4180     1.0  0.67230  0.26639  0.35317  1.0000
  H   H4181     1.0  0.67560  0.28273  0.35521  1.0000
  H   H4182     1.0  0.69920  0.26415  0.31884  1.0000
  H   H4183     1.0  0.68044  0.27255  0.31995  1.0000
  H   H4184     1.0  0.68577  0.25584  0.33205  1.0000
  H   H4185     1.0  0.66992  0.31721  0.37861  1.0000
  H   H4186     1.0  0.68463  0.29521  0.32277  1.0000
  H   H4187     1.0  0.70352  0.28729  0.32139  1.0000
  H   H4188     1.0  0.75385  0.13730  0.28462  1.0000
  H   H4189     1.0  0.80547  0.29878  0.27363  1.0000
  H   H4190     1.0  0.67679  0.28687  0.43349  1.0000
  H   H4191     1.0  0.68384  0.24140  0.25720  1.0000
  C   C2624     1.0  0.75713  0.17735  0.24830  1.0000
  H   H4192     1.0  0.76209  0.15263  0.27778  1.0000
  H   H4193     1.0  0.75006  0.29748  0.25168  1.0000
  N   N263      1.0  0.76703  0.30637  0.23598  1.0000
  C   C2625     1.0  0.81950  0.27125  0.28056  1.0000
  H   H4194     1.0  0.69349  0.29493  0.33665  1.0000
  H   H4195     1.0  0.70439  0.22460  0.23467  1.0000
  C   C2626     1.0  0.76907  0.17812  0.25296  1.0000
  H   H4196     1.0  0.66070  0.31211  0.35976  1.0000
  H   H4197     1.0  0.81548  0.25913  0.23535  1.0000
  H   H4198     1.0  0.66165  0.30851  0.44222  1.0000
  H   H4199     1.0  0.82485  0.26161  0.28765  1.0000
  H   H4200     1.0  0.83249  0.06303  0.24238  1.0000
  H   H4201     1.0  0.76768  0.11323  0.27982  1.0000
  H   H4202     1.0  0.68557  0.22671  0.27250  1.0000
  H   H4203     1.0  0.69016  0.29682  0.42297  1.0000
  H   H4204     1.0  0.84401  0.29169  0.27515  1.0000
  H   H4205     1.0  0.79301  0.13567  0.27885  1.0000
  H   H4206     1.0  0.82209  0.26891  0.26960  1.0000
  C   C2627     1.0  0.69454  0.20536  0.25789  1.0000
  C   C2628     1.0  0.75387  0.30778  0.24749  1.0000
  C   C2629     1.0  0.82835  0.07303  0.23547  1.0000
  H   H4207     1.0  0.73369  0.31733  0.32697  1.0000
  S   S1047     1.0  0.80472  0.11243  0.24052  1.0000
  H   H4208     1.0  0.66008  0.18477  0.29158  1.0000
  S   S1048     1.0  0.88186  0.21064  0.23923  1.0000
  H   H4209     1.0  0.66030  0.24794  0.43802  1.0000
  S   S1049     1.0  0.80988  0.22091  0.23945  1.0000
  S   S1050     1.0  0.80007  0.15326  0.23156  1.0000
  H   H4210     1.0  0.72607  0.15340  0.23485  1.0000
  H   H4211     1.0  0.66918  0.31847  0.45025  1.0000
  H   H4212     1.0  0.69081  0.21789  0.23084  1.0000
  Fe  Fe528     1.0  0.75048  0.16597  0.64240  1.0000
  S   S1051     1.0  0.76716  0.16379  0.62205  1.0000
  S   S1052     1.0  0.73186  0.15506  0.64994  1.0000
  Fe  Fe529     1.0  0.76390  0.18635  0.65023  1.0000
  S   S1053     1.0  0.78150  0.18617  0.63047  1.0000
  S   S1054     1.0  0.76386  0.19876  0.66630  1.0000
  Fe  Fe530     1.0  0.76412  0.18779  0.61898  1.0000
  S   S1055     1.0  0.76221  0.20393  0.59812  1.0000
  Fe  Fe531     1.0  0.78280  0.16225  0.63569  1.0000
  S   S1056     1.0  0.80487  0.14745  0.63492  1.0000
  S   S1057     1.0  0.74631  0.19011  0.63842  1.0000
  S   S1058     1.0  0.76616  0.16248  0.65634  1.0000
  Fe  Fe532     1.0  0.82850  0.08515  0.69644  1.0000
  S   S1059     1.0  0.84774  0.08085  0.67889  1.0000
  S   S1060     1.0  0.80917  0.10313  0.69442  1.0000
  Fe  Fe533     1.0  0.84607  0.05747  0.68623  1.0000
  Fe  Fe534     1.0  0.86015  0.07642  0.69640  1.0000
  S   S1061     1.0  0.87872  0.08784  0.69048  1.0000
  S   S1062     1.0  0.82564  0.06237  0.70243  1.0000
  S   S1063     1.0  0.84075  0.08223  0.71352  1.0000
  Fe  Fe535     1.0  0.68862  0.24847  0.53859  1.0000
  S   S1064     1.0  0.67876  0.27072  0.54283  1.0000
  S   S1065     1.0  0.69363  0.24180  0.51741  1.0000
  Fe  Fe536     1.0  0.69312  0.23568  0.56918  1.0000
  S   S1066     1.0  0.68363  0.25669  0.57620  1.0000
  S   S1067     1.0  0.70044  0.21515  0.58456  1.0000
  Fe  Fe537     1.0  0.66693  0.25907  0.56371  1.0000
  C   C2630     1.0  0.95070  0.18570  0.72893  1.0000
  Fe  Fe538     1.0  0.69639  0.26618  0.55488  1.0000
  S   S1068     1.0  0.70978  0.28217  0.55231  1.0000
  S   S1069     1.0  0.67525  0.23719  0.55835  1.0000
  S   S1070     1.0  0.70732  0.24495  0.54888  1.0000
  H   H4213     1.0  0.72163  0.17736  0.55446  1.0000
  C   C2631     1.0  0.69079  0.30978  0.52347  1.0000
  H   H4214     1.0  0.70806  0.31049  0.48843  1.0000
  S   S1071     1.0  0.86468  0.25924  0.71177  1.0000
  Fe  Fe539     1.0  0.92438  0.14970  0.70139  1.0000
  S   S1072     1.0  0.90423  0.15314  0.71828  1.0000
  S   S1073     1.0  0.92429  0.15783  0.67786  1.0000
  H   H4215     1.0  0.87451  0.22921  0.72307  1.0000
  H   H4216     1.0  0.70774  0.31119  0.55337  1.0000
  H   H4217     1.0  0.70635  0.28284  0.52289  1.0000
  S   S1074     1.0  0.93805  0.15513  0.71321  1.0000
  S   S1075     1.0  0.93029  0.12585  0.70946  1.0000
  Fe  Fe540     1.0  0.75037  0.28031  0.60751  1.0000
  S   S1076     1.0  0.76338  0.29358  0.58912  1.0000
  S   S1077     1.0  0.74032  0.26340  0.60514  1.0000
  Fe  Fe541     1.0  0.75499  0.29340  0.62981  1.0000
  S   S1078     1.0  0.76830  0.30803  0.61351  1.0000
  N   N264      1.0  0.66537  0.24059  0.71450  1.0000
  Fe  Fe542     1.0  0.77865  0.28851  0.60394  1.0000
  S   S1079     1.0  0.80227  0.28281  0.59485  1.0000
  S   S1080     1.0  0.73739  0.29889  0.61763  1.0000
  S   S1081     1.0  0.76675  0.27354  0.62139  1.0000
  Fe  Fe543     1.0  0.83277  0.19955  0.67151  1.0000
  S   S1082     1.0  0.85318  0.19979  0.65468  1.0000
  S   S1083     1.0  0.82530  0.17864  0.68054  1.0000
  Fe  Fe544     1.0  0.82708  0.23188  0.67005  1.0000
  S   S1084     1.0  0.84665  0.23469  0.65276  1.0000
  S   S1085     1.0  0.81424  0.25192  0.67791  1.0000
  Fe  Fe545     1.0  0.84017  0.21981  0.64314  1.0000
  S   S1086     1.0  0.83985  0.22288  0.61979  1.0000
  Fe  Fe546     1.0  0.85738  0.21456  0.66629  1.0000
  S   S1087     1.0  0.87705  0.21551  0.67312  1.0000
  S   S1088     1.0  0.81951  0.21881  0.65921  1.0000
  S   S1089     1.0  0.83803  0.21240  0.68424  1.0000
  C   C2632     1.0  0.77494  0.30793  0.71288  1.0000
  H   H4218     1.0  0.81236  0.03594  0.72449  1.0000
  H   H4219     1.0  0.83601  0.99769  0.70926  1.0000
  C   C2633     1.0  0.82816  0.24826  0.71946  1.0000
  H   H4220     1.0  0.74283  0.27745  0.70017  1.0000
  H   H4221     1.0  0.73370  0.19754  0.68454  1.0000
  H   H4222     1.0  0.97619  0.18847  0.71080  1.0000
  H   H4223     1.0  0.86138  0.28068  0.64491  1.0000
  S   S1090     1.0  0.84373  0.04494  0.67082  1.0000
  H   H4224     1.0  0.75918  0.30866  0.67005  1.0000
  C   C2634     1.0  0.86457  0.26904  0.64993  1.0000
  Fe  Fe547     1.0  0.91094  0.12943  0.72726  1.0000
  C   C2635     1.0  0.82014  0.25174  0.69328  1.0000
  C   C2636     1.0  0.81140  0.25962  0.70353  1.0000
  C   C2637     1.0  0.68731  0.27093  0.67785  1.0000
  H   H4225     1.0  0.71832  0.29059  0.71131  1.0000
  C   C2638     1.0  0.83740  0.24126  0.70878  1.0000
  C   C2639     1.0  0.83345  0.24317  0.69563  1.0000
  H   H4226     1.0  0.71641  0.09714  0.72808  1.0000
  H   H4227     1.0  0.81192  0.29928  0.62647  1.0000
  C   C2640     1.0  0.65874  0.18409  0.71967  1.0000
  H   H4228     1.0  0.84070  0.23792  0.68734  1.0000
  C   C2641     1.0  0.81188  0.26580  0.60207  1.0000
  C   C2642     1.0  0.82388  0.25909  0.59307  1.0000
  C   C2643     1.0  0.83216  0.24576  0.59855  1.0000
  C   C2644     1.0  0.82883  0.23931  0.61320  1.0000
  C   C2645     1.0  0.81678  0.24598  0.62229  1.0000
  C   C2646     1.0  0.80815  0.25912  0.61666  1.0000
  H   H4229     1.0  0.82683  0.26425  0.58181  1.0000
  H   H4230     1.0  0.84145  0.24068  0.59150  1.0000
  H   H4231     1.0  0.81407  0.24101  0.63360  1.0000
  H   H4232     1.0  0.79886  0.26423  0.62365  1.0000
  H   H4233     1.0  0.86986  0.28677  0.66382  1.0000
  C   C2647     1.0  0.91142  0.17400  0.67606  1.0000
  C   C2648     1.0  0.91084  0.18439  0.68364  1.0000
  C   C2649     1.0  0.90054  0.19733  0.68225  1.0000
  C   C2650     1.0  0.89034  0.19958  0.67390  1.0000
  C   C2651     1.0  0.89082  0.18913  0.66643  1.0000
  C   C2652     1.0  0.90153  0.17643  0.66731  1.0000
  H   H4234     1.0  0.91852  0.18254  0.69036  1.0000
  H   H4235     1.0  0.90038  0.20552  0.68778  1.0000
  H   H4236     1.0  0.88309  0.19091  0.65982  1.0000
  H   H4237     1.0  0.90198  0.16837  0.66147  1.0000
  C   C2653     1.0  0.71976  0.27615  0.56594  1.0000
  C   C2654     1.0  0.72825  0.28476  0.56746  1.0000
  C   C2655     1.0  0.73459  0.28095  0.57951  1.0000
  C   C2656     1.0  0.73292  0.26820  0.58975  1.0000
  C   C2657     1.0  0.72514  0.25917  0.58777  1.0000
  C   C2658     1.0  0.71850  0.26319  0.57593  1.0000
  H   H4238     1.0  0.72982  0.29446  0.55944  1.0000
  H   H4239     1.0  0.74065  0.28793  0.58089  1.0000
  H   H4240     1.0  0.72408  0.24915  0.59551  1.0000
  H   H4241     1.0  0.71239  0.25625  0.57459  1.0000
  C   C2659     1.0  0.67887  0.24670  0.50902  1.0000
  H   H4242     1.0  0.81668  0.00121  0.71357  1.0000
  H   H4243     1.0  0.86121  0.24501  0.66997  1.0000
  H   H4244     1.0  0.72727  0.19001  0.71148  1.0000
  C   C2660     1.0  0.69934  0.31359  0.49761  1.0000
  C   C2661     1.0  0.66631  0.25630  0.51397  1.0000
  H   H4245     1.0  0.81225  0.03410  0.70687  1.0000
  C   C2662     1.0  0.67972  0.24089  0.49721  1.0000
  H   H4246     1.0  0.84487  0.28400  0.66850  1.0000
  H   H4247     1.0  0.75276  0.18474  0.69802  1.0000
  C   C2663     1.0  0.84068  0.01868  0.66850  1.0000
  C   C2664     1.0  0.84356  0.00347  0.67115  1.0000
  H   H4248     1.0  0.83248  0.02491  0.66253  1.0000
  H   H4249     1.0  0.83764  0.99809  0.66718  1.0000
  C   C2665     1.0  0.88281  0.09546  0.70294  1.0000
  C   C2666     1.0  0.87529  0.09401  0.71734  1.0000
  H   H4250     1.0  0.80771  0.29389  0.69566  1.0000
  C   C2667     1.0  0.88974  0.10823  0.72215  1.0000
  C   C2668     1.0  0.89710  0.10987  0.70770  1.0000
  C   C2669     1.0  0.89369  0.10345  0.69817  1.0000
  C   C2670     1.0  0.68013  0.24137  0.71446  1.0000
  H   H4251     1.0  0.90551  0.11596  0.70389  1.0000
  H   H4252     1.0  0.89955  0.10465  0.68705  1.0000
  C   C2671     1.0  0.78000  0.19223  0.67247  1.0000
  C   C2672     1.0  0.78514  0.20113  0.67797  1.0000
  C   C2673     1.0  0.79876  0.19653  0.68147  1.0000
  C   C2674     1.0  0.80711  0.18292  0.67971  1.0000
  C   C2675     1.0  0.80150  0.17358  0.67533  1.0000
  C   C2676     1.0  0.78810  0.17835  0.67140  1.0000
  H   H4253     1.0  0.77889  0.21183  0.67895  1.0000
  H   H4254     1.0  0.80292  0.20365  0.68523  1.0000
  H   H4255     1.0  0.80777  0.16292  0.67427  1.0000
  H   H4256     1.0  0.78421  0.17131  0.66737  1.0000
  C   C2677     1.0  0.74490  0.20732  0.59460  1.0000
  C   C2678     1.0  0.74038  0.21938  0.58416  1.0000
  C   C2679     1.0  0.72663  0.22203  0.58118  1.0000
  C   C2680     1.0  0.71744  0.21254  0.58850  1.0000
  C   C2681     1.0  0.72195  0.20054  0.59896  1.0000
  C   C2682     1.0  0.73561  0.19797  0.60206  1.0000
  H   H4257     1.0  0.74748  0.22672  0.57844  1.0000
  H   H4258     1.0  0.72326  0.23133  0.57312  1.0000
  H   H4259     1.0  0.71491  0.19312  0.60465  1.0000
  H   H4260     1.0  0.73903  0.18859  0.61007  1.0000
  C   C2683     1.0  0.80630  0.13465  0.65117  1.0000
  C   C2684     1.0  0.81987  0.12766  0.65429  1.0000
  C   C2685     1.0  0.82097  0.11781  0.66751  1.0000
  C   C2686     1.0  0.80848  0.11504  0.67763  1.0000
  C   C2687     1.0  0.79501  0.12180  0.67436  1.0000
  C   C2688     1.0  0.79395  0.13136  0.66109  1.0000
  H   H4261     1.0  0.82950  0.12996  0.64654  1.0000
  H   H4262     1.0  0.83142  0.11257  0.66998  1.0000
  H   H4263     1.0  0.78532  0.11952  0.68205  1.0000
  H   H4264     1.0  0.78353  0.13591  0.65846  1.0000
  S   S1091     1.0  0.69193  0.12447  0.72467  1.0000
  H   H4265     1.0  0.71702  0.22150  0.53203  1.0000
  H   H4266     1.0  0.66896  0.21748  0.72140  1.0000
  H   H4267     1.0  0.78009  0.30436  0.64211  1.0000
  H   H4268     1.0  0.84103  0.26653  0.67096  1.0000
  S   S1092     1.0  0.70673  0.15046  0.72502  1.0000
  C   C2689     1.0  0.67630  0.27874  0.68687  1.0000
  H   H4269     1.0  0.87937  0.24693  0.66682  1.0000
  H   H4270     1.0  0.86207  0.20696  0.71639  1.0000
  C   C2690     1.0  0.73339  0.12678  0.69478  1.0000
  C   C2691     1.0  0.74612  0.12703  0.68422  1.0000
  C   C2692     1.0  0.74570  0.13543  0.67024  1.0000
  C   C2693     1.0  0.73254  0.14340  0.66680  1.0000
  C   C2694     1.0  0.71981  0.14269  0.67720  1.0000
  C   C2695     1.0  0.72026  0.13455  0.69119  1.0000
  H   H4271     1.0  0.75631  0.12106  0.68695  1.0000
  H   H4272     1.0  0.75554  0.13573  0.66213  1.0000
  H   H4273     1.0  0.70963  0.14884  0.67457  1.0000
  H   H4274     1.0  0.71039  0.13452  0.69920  1.0000
  H   H4275     1.0  0.71615  0.18282  0.53740  1.0000
  H   H4276     1.0  0.81584  0.29699  0.65132  1.0000
  H   H4277     1.0  0.89763  0.21578  0.71153  1.0000
  N   N265      1.0  0.68258  0.23214  0.62309  1.0000
  C   C2696     1.0  0.68501  0.22858  0.63797  1.0000
  C   C2697     1.0  0.67017  0.24441  0.62165  1.0000
  C   C2698     1.0  0.67953  0.21949  0.61997  1.0000
  C   C2699     1.0  0.69562  0.23605  0.61279  1.0000
  H   H4278     1.0  0.69449  0.21956  0.63934  1.0000
  H   H4279     1.0  0.67556  0.22521  0.64601  1.0000
  H   H4280     1.0  0.68690  0.23805  0.64083  1.0000
  H   H4281     1.0  0.72456  0.21393  0.55548  1.0000
  C   C2700     1.0  0.87384  0.20655  0.71299  1.0000
  H   H4282     1.0  0.74886  0.29920  0.72044  1.0000
  H   H4283     1.0  0.77723  0.30526  0.72392  1.0000
  H   H4284     1.0  0.75636  0.31832  0.56741  1.0000
  H   H4285     1.0  0.69435  0.23845  0.60143  1.0000
  H   H4286     1.0  0.70521  0.22707  0.61373  1.0000
  H   H4287     1.0  0.69809  0.24572  0.61467  1.0000
  H   H4288     1.0  0.71463  0.18061  0.70994  1.0000
  C   C2701     1.0  0.74969  0.30890  0.72358  1.0000
  H   H4289     1.0  0.78558  0.27255  0.72395  1.0000
  H   H4290     1.0  0.84716  0.11287  0.71015  1.0000
  H   H4291     1.0  0.66798  0.24734  0.61057  1.0000
  H   H4292     1.0  0.96188  0.11045  0.69924  1.0000
  S   S1093     1.0  0.73390  0.11770  0.71269  1.0000
  H   H4293     1.0  0.66225  0.13509  0.72898  1.0000
  C   C2702     1.0  0.97564  0.12922  0.72848  1.0000
  H   H4294     1.0  0.71253  0.28565  0.50364  1.0000
  H   H4295     1.0  0.87022  0.99622  0.68956  1.0000
  H   H4296     1.0  0.73776  0.07008  0.72078  1.0000
  H   H4297     1.0  0.66552  0.26071  0.52318  1.0000
  H   H4298     1.0  0.83838  0.02993  0.70181  1.0000
  C   C2703     1.0  0.84855  0.27225  0.67271  1.0000
  H   H4299     1.0  0.73910  0.18416  0.67375  1.0000
  H   H4300     1.0  0.67205  0.25418  0.62394  1.0000
  N   N266      1.0  0.82755  0.17981  0.63337  1.0000
  C   C2704     1.0  0.84255  0.18173  0.62957  1.0000
  C   C2705     1.0  0.82330  0.17913  0.62027  1.0000
  C   C2706     1.0  0.81793  0.19209  0.63944  1.0000
  C   C2707     1.0  0.82641  0.16626  0.64424  1.0000
  H   H4301     1.0  0.84612  0.18214  0.63924  1.0000
  H   H4302     1.0  0.84375  0.19199  0.62154  1.0000
  H   H4303     1.0  0.85011  0.17272  0.62484  1.0000
  H   H4304     1.0  0.81221  0.17719  0.62285  1.0000
  H   H4305     1.0  0.82367  0.18934  0.61197  1.0000
  H   H4306     1.0  0.83047  0.17009  0.61531  1.0000
  H   H4307     1.0  0.80648  0.19111  0.64231  1.0000
  H   H4308     1.0  0.81874  0.20259  0.63171  1.0000
  H   H4309     1.0  0.82073  0.19264  0.64950  1.0000
  H   H4310     1.0  0.83308  0.15668  0.63989  1.0000
  H   H4311     1.0  0.81511  0.16476  0.64764  1.0000
  H   H4312     1.0  0.82988  0.16627  0.65413  1.0000
  H   H4313     1.0  0.97839  0.11542  0.66002  1.0000
  C   C2708     1.0  0.79238  0.27691  0.65196  1.0000
  H   H4314     1.0  0.68875  0.21006  0.62065  1.0000
  H   H4315     1.0  0.87573  0.26494  0.64428  1.0000
  H   H4316     1.0  0.81471  0.27999  0.62941  1.0000
  Fe  Fe548     1.0  0.83975  0.05893  0.71800  1.0000
  H   H4317     1.0  0.86721  0.24930  0.68366  1.0000
  H   H4318     1.0  0.78312  0.31391  0.70550  1.0000
  H   H4319     1.0  0.69261  0.30338  0.53425  1.0000
  N   N267      1.0  0.71846  0.20015  0.54549  1.0000
  C   C2709     1.0  0.72754  0.20259  0.55403  1.0000
  C   C2710     1.0  0.70324  0.20304  0.55312  1.0000
  H   H4320     1.0  0.98423  0.11934  0.69464  1.0000
  H   H4321     1.0  0.72628  0.19557  0.56508  1.0000
  H   H4322     1.0  0.73428  0.18245  0.53807  1.0000
  H   H4323     1.0  0.73147  0.20807  0.52494  1.0000
  H   H4324     1.0  0.69596  0.20150  0.54698  1.0000
  H   H4325     1.0  0.69971  0.21432  0.55467  1.0000
  H   H4326     1.0  0.70150  0.19592  0.56409  1.0000
  N   N268      1.0  0.78040  0.23683  0.59903  1.0000
  C   C2711     1.0  0.76729  0.23305  0.60927  1.0000
  C   C2712     1.0  0.77678  0.25151  0.59019  1.0000
  C   C2713     1.0  0.78633  0.22640  0.58943  1.0000
  C   C2714     1.0  0.79120  0.23635  0.60718  1.0000
  H   H4327     1.0  0.76949  0.22188  0.61586  1.0000
  H   H4328     1.0  0.75877  0.23361  0.60349  1.0000
  H   H4329     1.0  0.76261  0.24055  0.61685  1.0000
  H   H4330     1.0  0.78641  0.25477  0.58234  1.0000
  H   H4331     1.0  0.76849  0.25231  0.58405  1.0000
  H   H4332     1.0  0.77226  0.25964  0.59707  1.0000
  H   H4333     1.0  0.79633  0.22878  0.58167  1.0000
  H   H4334     1.0  0.77843  0.22664  0.58306  1.0000
  H   H4335     1.0  0.78884  0.21514  0.59574  1.0000
  H   H4336     1.0  0.80121  0.23926  0.59981  1.0000
  H   H4337     1.0  0.79420  0.22542  0.61395  1.0000
  H   H4338     1.0  0.78700  0.24410  0.61453  1.0000
  H   H4339     1.0  0.84738  0.27060  0.68460  1.0000
  C   C2715     1.0  0.83865  0.02293  0.71271  1.0000
  H   H4340     1.0  0.66018  0.24180  0.62935  1.0000
  C   C2716     1.0  0.81552  0.30054  0.69020  1.0000
  H   H4341     1.0  0.76420  0.27171  0.71596  1.0000
  N   N269      1.0  0.82584  0.01645  0.71848  1.0000
  H   H4342     1.0  0.72567  0.25981  0.69336  1.0000
  C   C2717     1.0  0.95776  0.20842  0.72469  1.0000
  H   H4343     1.0  0.66301  0.17827  0.72917  1.0000
  H   H4344     1.0  0.94701  0.21339  0.73056  1.0000
  Fe  Fe549     1.0  0.75173  0.31188  0.60030  1.0000
  C   C2718     1.0  0.97589  0.18660  0.72255  1.0000
  H   H4345     1.0  0.96717  0.14678  0.67775  1.0000
  H   H4346     1.0  0.68814  0.23177  0.71130  1.0000
  H   H4347     1.0  0.78391  0.27792  0.64597  1.0000
  H   H4348     1.0  0.82702  0.14269  0.70517  1.0000
  H   H4349     1.0  0.90148  0.19630  0.71563  1.0000
  N   N270      1.0  0.81632  0.08193  0.65238  1.0000
  C   C2719     1.0  0.81137  0.07801  0.66823  1.0000
  C   C2720     1.0  0.83107  0.08451  0.64894  1.0000
  C   C2721     1.0  0.80656  0.09519  0.64648  1.0000
  C   C2722     1.0  0.81634  0.06997  0.64590  1.0000
  H   H4350     1.0  0.81836  0.06792  0.67300  1.0000
  H   H4351     1.0  0.80017  0.07629  0.67127  1.0000
  H   H4352     1.0  0.81155  0.08662  0.67352  1.0000
  H   H4353     1.0  0.83517  0.08750  0.63707  1.0000
  H   H4354     1.0  0.83148  0.09342  0.65371  1.0000
  H   H4355     1.0  0.83872  0.07470  0.65324  1.0000
  H   H4356     1.0  0.80999  0.09858  0.63455  1.0000
  H   H4357     1.0  0.80631  0.10436  0.65123  1.0000
  H   H4358     1.0  0.79530  0.09368  0.64890  1.0000
  H   H4359     1.0  0.80540  0.06763  0.64836  1.0000
  H   H4360     1.0  0.82369  0.05984  0.65013  1.0000
  H   H4361     1.0  0.82002  0.07254  0.63394  1.0000
  N   N271      1.0  0.84763  0.13258  0.69408  1.0000
  C   C2723     1.0  0.84464  0.11790  0.69928  1.0000
  C   C2724     1.0  0.86303  0.13178  0.69315  1.0000
  C   C2725     1.0  0.83870  0.14181  0.70425  1.0000
  C   C2726     1.0  0.84415  0.13880  0.67964  1.0000
  H   H4362     1.0  0.83314  0.11799  0.70005  1.0000
  H   H4363     1.0  0.78710  0.27605  0.66361  1.0000
  H   H4364     1.0  0.85133  0.11062  0.69190  1.0000
  H   H4365     1.0  0.87010  0.12473  0.68571  1.0000
  H   H4366     1.0  0.86576  0.14263  0.68919  1.0000
  H   H4367     1.0  0.86599  0.12717  0.70390  1.0000
  C   C2727     1.0  0.81271  0.02800  0.71812  1.0000
  H   H4368     1.0  0.84067  0.15300  0.70058  1.0000
  H   H4369     1.0  0.84105  0.13745  0.71526  1.0000
  H   H4370     1.0  0.85074  0.13212  0.67169  1.0000
  H   H4371     1.0  0.84618  0.14995  0.67548  1.0000
  H   H4372     1.0  0.83260  0.13950  0.68001  1.0000
  C   C2728     1.0  0.84819  0.02582  0.67371  1.0000
  Fe  Fe550     1.0  0.66086  0.29896  0.71032  1.0000
  C   C2729     1.0  0.86188  0.00245  0.68376  1.0000
  C   C2730     1.0  0.99076  0.12590  0.72504  1.0000
  C   C2731     1.0  0.72283  0.18502  0.54377  1.0000
  H   H4373     1.0  0.80279  0.02358  0.72269  1.0000
  N   N272      1.0  0.86357  0.26692  0.66562  1.0000
  N   N273      1.0  0.73576  0.17562  0.69666  1.0000
  C   C2732     1.0  0.85892  0.01763  0.68122  1.0000
  S   S1094     1.0  0.66619  0.26402  0.65128  1.0000
  H   H4374     1.0  0.79374  0.31244  0.64386  1.0000
  H   H4375     1.0  0.70825  0.26885  0.70152  1.0000
  H   H4376     1.0  0.84748  0.23421  0.71074  1.0000
  C   C2733     1.0  0.71575  0.29354  0.70042  1.0000
  H   H4377     1.0  0.85743  0.26318  0.64773  1.0000
  S   S1095     1.0  0.85695  0.29988  0.68977  1.0000
  H   H4378     1.0  0.88451  0.27132  0.66273  1.0000
  C   C2734     1.0  0.71623  0.30730  0.51334  1.0000
  C   C2735     1.0  0.65914  0.27803  0.67353  1.0000
  H   H4379     1.0  0.80022  0.26653  0.65098  1.0000
  H   H4380     1.0  0.72507  0.27875  0.67081  1.0000
  H   H4381     1.0  0.72296  0.26480  0.71035  1.0000
  C   C2736     1.0  0.67017  0.27033  0.66446  1.0000
  H   H4382     1.0  0.87888  0.19678  0.70830  1.0000
  C   C2737     1.0  0.96327  0.11192  0.68733  1.0000
  Fe  Fe551     1.0  0.87966  0.25784  0.72595  1.0000
  C   C2738     1.0  0.89563  0.20607  0.72009  1.0000
  Fe  Fe552     1.0  0.85998  0.28314  0.71000  1.0000
  S   S1096     1.0  0.86031  0.05246  0.70223  1.0000
  H   H4383     1.0  0.86697  0.08781  0.72119  1.0000
  S   S1097     1.0  0.67242  0.16030  0.70765  1.0000
  C   C2739     1.0  0.72015  0.20999  0.53111  1.0000
  C   C2740     1.0  0.68429  0.26695  0.66648  1.0000
  C   C2741     1.0  0.73213  0.18690  0.68403  1.0000
  H   H4384     1.0  0.81892  0.27760  0.65382  1.0000
  C   C2742     1.0  0.82917  0.29662  0.69365  1.0000
  C   C2743     1.0  0.80648  0.28999  0.63102  1.0000
  H   H4385     1.0  0.73915  0.20039  0.54874  1.0000
  C   C2744     1.0  0.81051  0.28760  0.65487  1.0000
  C   C2745     1.0  0.98505  0.12067  0.68282  1.0000
  H   H4386     1.0  0.87273  0.27344  0.67978  1.0000
  H   H4387     1.0  0.71318  0.20871  0.52448  1.0000
  H   H4388     1.0  0.95236  0.11400  0.68503  1.0000
  N   N274      1.0  0.79954  0.28933  0.64646  1.0000
  S   S1098     1.0  0.79494  0.31755  0.67540  1.0000
  C   C2746     1.0  0.73392  0.16169  0.69521  1.0000
  H   H4389     1.0  0.86499  0.02300  0.68502  1.0000
  H   H4390     1.0  0.95735  0.21078  0.71305  1.0000
  H   H4391     1.0  0.72220  0.29733  0.67152  1.0000
  H   H4392     1.0  0.72268  0.16227  0.69455  1.0000
  H   H4393     1.0  0.96943  0.10148  0.68442  1.0000
  Fe  Fe553     1.0  0.68482  0.14805  0.72492  1.0000
  H   H4394     1.0  0.67746  0.22190  0.60888  1.0000
  C   C2747     1.0  0.81555  0.25799  0.71658  1.0000
  H   H4395     1.0  0.95050  0.18698  0.71737  1.0000
  C   C2748     1.0  0.87310  0.27495  0.66805  1.0000
  H   H4396     1.0  0.96572  0.21405  0.72572  1.0000
  H   H4397     1.0  0.81114  0.06949  0.72997  1.0000
  C   C2749     1.0  0.86805  0.25140  0.67179  1.0000
  H   H4398     1.0  0.71858  0.30417  0.69493  1.0000
  S   S1099     1.0  0.96573  0.12016  0.72267  1.0000
  H   H4399     1.0  0.84879  0.01454  0.71193  1.0000
  H   H4400     1.0  0.83179  0.28696  0.70171  1.0000
  H   H4401     1.0  0.75777  0.30787  0.69560  1.0000
  H   H4402     1.0  0.69362  0.28745  0.51144  1.0000
  H   H4403     1.0  0.68909  0.31212  0.49604  1.0000
  C   C2750     1.0  0.87877  0.10035  0.72689  1.0000
  H   H4404     1.0  0.69280  0.26088  0.65953  1.0000
  H   H4405     1.0  0.70690  0.30438  0.58566  1.0000
  S   S1100     1.0  0.75196  0.29320  0.65319  1.0000
  H   H4406     1.0  0.68331  0.25114  0.70680  1.0000
  C   C2751     1.0  0.83947  0.30494  0.68635  1.0000
  N   N275      1.0  0.70256  0.30506  0.51170  1.0000
  C   C2752     1.0  0.97215  0.12550  0.66369  1.0000
  H   H4407     1.0  0.90062  0.20599  0.72905  1.0000
  H   H4408     1.0  0.74105  0.15845  0.68521  1.0000
  H   H4409     1.0  0.69815  0.26783  0.67967  1.0000
  H   H4410     1.0  0.74226  0.08673  0.72035  1.0000
  Fe  Fe554     1.0  0.94245  0.13141  0.72290  1.0000
  H   H4411     1.0  0.68938  0.23342  0.49339  1.0000
  C   C2753     1.0  0.73924  0.28120  0.68972  1.0000
  C   C2754     1.0  0.75191  0.31613  0.66361  1.0000
  H   H4412     1.0  0.73653  0.15281  0.70451  1.0000
  H   H4413     1.0  0.95109  0.14000  0.68164  1.0000
  H   H4414     1.0  0.96141  0.12812  0.66081  1.0000
  H   H4415     1.0  0.72539  0.30389  0.50464  1.0000
  H   H4416     1.0  0.72078  0.18821  0.68328  1.0000
  H   H4417     1.0  0.72849  0.17122  0.71981  1.0000
  H   H4418     1.0  0.79849  0.29126  0.62438  1.0000
  H   H4419     1.0  0.74231  0.29175  0.68441  1.0000
  C   C2755     1.0  0.66210  0.17787  0.70761  1.0000
  C   C2756     1.0  0.74619  0.31122  0.65475  1.0000
  H   H4420     1.0  0.71894  0.30102  0.52388  1.0000
  C   C2757     1.0  0.70381  0.28958  0.51243  1.0000
  Fe  Fe555     1.0  0.71320  0.12664  0.72661  1.0000
  H   H4421     1.0  0.75840  0.17123  0.68738  1.0000
  C   C2758     1.0  0.83596  0.31732  0.67585  1.0000
  H   H4422     1.0  0.74547  0.27341  0.68273  1.0000
  C   C2759     1.0  0.96213  0.13744  0.68373  1.0000
  C   C2760     1.0  0.71944  0.28681  0.67766  1.0000
  C   C2761     1.0  0.72613  0.17954  0.71005  1.0000
  C   C2762     1.0  0.71996  0.26836  0.69959  1.0000
  S   S1101     1.0  0.68000  0.28331  0.70135  1.0000
  H   H4423     1.0  0.68022  0.30865  0.52239  1.0000
  C   C2763     1.0  0.81199  0.31300  0.67973  1.0000
  H   H4424     1.0  0.80897  0.26403  0.72459  1.0000
  C   C2764     1.0  0.75086  0.17432  0.69727  1.0000
  N   N276      1.0  0.97067  0.12387  0.67939  1.0000
  C   C2765     1.0  0.66173  0.22739  0.72472  1.0000
  H   H4425     1.0  0.98442  0.19137  0.72380  1.0000
  N   N277      1.0  0.72359  0.28246  0.69186  1.0000
  H   H4426     1.0  0.75392  0.16598  0.70674  1.0000
  H   H4427     1.0  0.83934  0.02982  0.71968  1.0000
  H   H4428     1.0  0.80132  0.26664  0.70154  1.0000
  H   H4429     1.0  0.70389  0.29497  0.70199  1.0000
  N   N278      1.0  0.88008  0.20625  0.72522  1.0000
  C   C2766     1.0  0.85419  0.99529  0.67881  1.0000
  H   H4430     1.0  0.70764  0.28813  0.67891  1.0000
  C   C2767     1.0  0.82612  0.00643  0.70951  1.0000
  H   H4431     1.0  0.82598  0.01216  0.69810  1.0000
  H   H4432     1.0  0.69669  0.29763  0.57731  1.0000
  H   H4433     1.0  0.80562  0.28678  0.66662  1.0000
  S   S1102     1.0  0.66144  0.31178  0.72579  1.0000
  H   H4434     1.0  0.66982  0.21616  0.62765  1.0000
  S   S1103     1.0  0.89961  0.24022  0.72666  1.0000
  H   H4435     1.0  0.78359  0.30275  0.65956  1.0000
  S   S1104     1.0  0.87691  0.28191  0.72197  1.0000
  H   H4436     1.0  0.97898  0.17475  0.72656  1.0000
  H   H4437     1.0  0.77672  0.29762  0.70939  1.0000
  C   C2768     1.0  0.76332  0.27229  0.72703  1.0000
  H   H4438     1.0  0.96101  0.13671  0.69545  1.0000
  C   C2769     1.0  0.75717  0.31840  0.69813  1.0000
  H   H4439     1.0  0.73217  0.31712  0.63966  1.0000
  C   C2770     1.0  0.74026  0.07624  0.72746  1.0000
  H   H4440     1.0  0.68130  0.31439  0.56115  1.0000
  H   H4441     1.0  0.66758  0.24979  0.69177  1.0000
  N   N279      1.0  0.96153  0.19271  0.73054  1.0000
  H   H4442     1.0  0.69283  0.19903  0.72885  1.0000
  C   C2771     1.0  0.69659  0.30682  0.58197  1.0000
  H   H4443     1.0  0.73871  0.31575  0.72485  1.0000
  C   C2772     1.0  0.66223  0.28237  0.68463  1.0000
  H   H4444     1.0  0.67170  0.23042  0.69623  1.0000
  H   H4445     1.0  0.82906  0.31327  0.71443  1.0000
  H   H4446     1.0  0.87547  0.21613  0.70411  1.0000
  H   H4447     1.0  0.65895  0.18062  0.68607  1.0000
  H   H4448     1.0  0.68113  0.24185  0.72535  1.0000
  C   C2773     1.0  0.78876  0.30281  0.64802  1.0000
  H   H4449     1.0  0.68770  0.30698  0.59171  1.0000
  C   C2774     1.0  0.66802  0.24451  0.49043  1.0000
  C   C2775     1.0  0.66450  0.24021  0.69982  1.0000
  H   H4450     1.0  0.97774  0.13439  0.65736  1.0000
  H   H4451     1.0  0.71177  0.08048  0.72893  1.0000
  S   S1105     1.0  0.84183  0.28330  0.72926  1.0000
  H   H4452     1.0  0.66869  0.23983  0.48142  1.0000
  N   N280      1.0  0.76017  0.31648  0.71255  1.0000
  H   H4453     1.0  0.71748  0.31811  0.56212  1.0000
  H   H4454     1.0  0.99088  0.12953  0.67716  1.0000
  Fe  Fe556     1.0  0.70157  0.24755  0.77099  1.0000
  S   S1106     1.0  0.68352  0.25728  0.78737  1.0000
  H   H4455     1.0  0.98009  0.17691  0.77894  1.0000
  H   H4456     1.0  0.88259  0.19263  0.74590  1.0000
  C   C2776     1.0  0.65813  0.27727  0.78901  1.0000
  C   C2777     1.0  0.85963  0.17475  0.95705  1.0000
  H   H4457     1.0  0.70508  0.00368  0.79166  1.0000
  H   H4458     1.0  0.78887  0.20849  0.75408  1.0000
  H   H4459     1.0  0.82369  0.12442  0.89963  1.0000
  C   C2778     1.0  0.96853  0.13979  0.73651  1.0000
  H   H4460     1.0  0.72369  0.08860  0.75821  1.0000
  Fe  Fe557     1.0  0.72529  0.04359  0.79585  1.0000
  S   S1107     1.0  0.73451  0.02854  0.81430  1.0000
  S   S1108     1.0  0.70151  0.04738  0.79759  1.0000
  Fe  Fe558     1.0  0.75470  0.04532  0.77690  1.0000
  S   S1109     1.0  0.76621  0.03022  0.79375  1.0000
  S   S1110     1.0  0.76523  0.05638  0.75504  1.0000
  Fe  Fe559     1.0  0.74949  0.01710  0.79728  1.0000
  Fe  Fe560     1.0  0.75005  0.04330  0.80893  1.0000
  S   S1111     1.0  0.75721  0.04978  0.82605  1.0000
  S   S1112     1.0  0.73933  0.03135  0.77916  1.0000
  S   S1113     1.0  0.73954  0.05924  0.79173  1.0000
  H   H4461     1.0  0.78447  0.18402  0.94419  1.0000
  H   H4462     1.0  0.76486  0.19048  0.85725  1.0000
  H   H4463     1.0  0.90997  0.18652  0.80929  1.0000
  H   H4464     1.0  0.80223  0.16496  0.91411  1.0000
  Fe  Fe561     1.0  0.94698  0.20538  0.81645  1.0000
  S   S1114     1.0  0.95552  0.22402  0.80109  1.0000
  S   S1115     1.0  0.94054  0.20577  0.84002  1.0000
  Fe  Fe562     1.0  0.95033  0.18981  0.79258  1.0000
  S   S1116     1.0  0.95898  0.20718  0.77520  1.0000
  S   S1117     1.0  0.94999  0.16919  0.78719  1.0000
  Fe  Fe563     1.0  0.97214  0.20714  0.79072  1.0000
  H   H4465     1.0  0.99001  0.19822  0.82601  1.0000
  Fe  Fe564     1.0  0.94146  0.22217  0.78727  1.0000
  S   S1118     1.0  0.92595  0.24168  0.77823  1.0000
  S   S1119     1.0  0.96463  0.18864  0.80731  1.0000
  S   S1120     1.0  0.93172  0.20469  0.80349  1.0000
  Fe  Fe565     1.0  0.85125  0.20965  0.86457  1.0000
  S   S1121     1.0  0.85658  0.18659  0.86253  1.0000
  S   S1122     1.0  0.85072  0.22731  0.84448  1.0000
  Fe  Fe566     1.0  0.84815  0.20155  0.89757  1.0000
  S   S1123     1.0  0.85365  0.17784  0.89771  1.0000
  S   S1124     1.0  0.83858  0.20908  0.91874  1.0000
  Fe  Fe567     1.0  0.87073  0.18341  0.87807  1.0000
  S   S1125     1.0  0.89277  0.16955  0.87236  1.0000
  Fe  Fe568     1.0  0.83901  0.18350  0.88210  1.0000
  S   S1126     1.0  0.82103  0.17181  0.88642  1.0000
  S   S1127     1.0  0.86645  0.20680  0.87904  1.0000
  S   S1128     1.0  0.83244  0.20688  0.88302  1.0000
  Fe  Fe569     1.0  0.78572  0.26854  0.77564  1.0000
  H   H4466     1.0  0.78991  0.19820  0.92937  1.0000
  S   S1129     1.0  0.78983  0.27280  0.75154  1.0000
  Fe  Fe570     1.0  0.78992  0.28038  0.79905  1.0000
  H   H4467     1.0  0.73142  0.22703  0.81594  1.0000
  Fe  Fe571     1.0  0.79267  0.24819  0.80313  1.0000
  S   S1130     1.0  0.80425  0.22583  0.81160  1.0000
  S   S1131     1.0  0.80419  0.26396  0.78644  1.0000
  H   H4468     1.0  0.83533  0.10189  0.89054  1.0000
  Fe  Fe572     1.0  0.78331  0.14272  0.84556  1.0000
  S   S1132     1.0  0.76502  0.15196  0.86192  1.0000
  S   S1133     1.0  0.80435  0.15018  0.83912  1.0000
  Fe  Fe573     1.0  0.76568  0.12385  0.83980  1.0000
  S   S1134     1.0  0.74649  0.13148  0.85640  1.0000
  S   S1135     1.0  0.76310  0.11352  0.82266  1.0000
  Fe  Fe574     1.0  0.75128  0.15352  0.84650  1.0000
  S   S1136     1.0  0.73384  0.17271  0.84036  1.0000
  Fe  Fe575     1.0  0.76242  0.12907  0.87016  1.0000
  S   S1137     1.0  0.75996  0.11867  0.89407  1.0000
  S   S1138     1.0  0.76975  0.14614  0.82943  1.0000
  S   S1139     1.0  0.78141  0.11958  0.85427  1.0000
  H   H4469     1.0  0.85366  0.24439  0.95003  1.0000
  H   H4470     1.0  0.82240  0.13403  0.88151  1.0000
  N   N281      1.0  0.69963  0.00469  0.81414  1.0000
  C   C2779     1.0  0.99083  0.21208  0.84591  1.0000
  S   S1140     1.0  0.74931  0.21440  0.77976  1.0000
  S   S1141     1.0  0.73533  0.23180  0.74451  1.0000
  C   C2780     1.0  0.79554  0.17373  0.91974  1.0000
  H   H4471     1.0  0.69826  0.09771  0.77111  1.0000
  H   H4472     1.0  0.77940  0.17622  0.85188  1.0000
  S   S1142     1.0  0.79043  0.13697  0.93346  1.0000
  H   H4473     1.0  0.79007  0.23159  0.73579  1.0000
  H   H4474     1.0  0.87407  0.21126  0.81633  1.0000
  S   S1143     1.0  0.87143  0.21243  0.96504  1.0000
  N   N282      1.0  0.89017  0.19325  0.82389  1.0000
  H   H4475     1.0  0.88500  0.17890  0.84439  1.0000
  S   S1144     1.0  0.77231  0.28600  0.78698  1.0000
  H   H4476     1.0  0.81440  0.16603  0.94614  1.0000
  H   H4477     1.0  0.78569  0.16986  0.92640  1.0000
  H   H4478     1.0  0.82650  0.09564  0.88028  1.0000
  H   H4479     1.0  0.73612  0.05800  0.75335  1.0000
  H   H4480     1.0  0.85170  0.27560  0.79510  1.0000
  H   H4481     1.0  0.83333  0.17006  0.97101  1.0000
  H   H4482     1.0  0.81556  0.15536  0.93334  1.0000
  C   C2781     1.0  0.77216  0.18640  0.84774  1.0000
  H   H4483     1.0  0.87068  0.23725  0.80100  1.0000
  H   H4484     1.0  0.89881  0.20312  0.80200  1.0000
  H   H4485     1.0  0.79967  0.19095  0.94369  1.0000
  S   S1145     1.0  0.85733  0.29354  0.75776  1.0000
  H   H4486     1.0  0.79699  0.19088  0.85079  1.0000
  H   H4487     1.0  0.65861  0.27622  0.80014  1.0000
  C   C2782     1.0  0.68707  0.99807  0.81701  1.0000
  H   H4488     1.0  0.79519  0.20893  0.84008  1.0000
  C   C2783     1.0  0.81609  0.18285  0.91948  1.0000
  H   H4489     1.0  0.71468  0.26610  0.80790  1.0000
  H   H4490     1.0  0.82213  0.18589  0.92591  1.0000
  H   H4491     1.0  0.86991  0.19385  0.81911  1.0000
  C   C2784     1.0  0.80843  0.16390  0.93905  1.0000
  C   C2785     1.0  0.76632  0.12515  0.90588  1.0000
  C   C2786     1.0  0.77187  0.13768  0.90117  1.0000
  C   C2787     1.0  0.77832  0.14170  0.91023  1.0000
  C   C2788     1.0  0.77926  0.13332  0.92407  1.0000
  C   C2789     1.0  0.77302  0.12121  0.92914  1.0000
  C   C2790     1.0  0.76658  0.11714  0.92005  1.0000
  H   H4492     1.0  0.77147  0.14414  0.89046  1.0000
  H   H4493     1.0  0.78284  0.15122  0.90643  1.0000
  H   H4494     1.0  0.83387  0.11153  0.87246  1.0000
  C   C2791     1.0  0.73826  0.18450  0.82369  1.0000
  C   C2792     1.0  0.75259  0.18429  0.81656  1.0000
  C   C2793     1.0  0.75586  0.19359  0.80312  1.0000
  C   C2794     1.0  0.74482  0.20297  0.79663  1.0000
  C   C2795     1.0  0.73047  0.20319  0.80373  1.0000
  C   C2796     1.0  0.72721  0.19411  0.81734  1.0000
  H   H4495     1.0  0.76117  0.17698  0.82138  1.0000
  H   H4496     1.0  0.76697  0.19338  0.79764  1.0000
  H   H4497     1.0  0.72191  0.21035  0.79875  1.0000
  H   H4498     1.0  0.71610  0.19426  0.82282  1.0000
  C   C2797     1.0  0.77441  0.27326  0.74587  1.0000
  H   H4499     1.0  0.81383  0.06694  0.77961  1.0000
  H   H4500     1.0  0.70772  0.28913  0.75143  1.0000
  C   C2798     1.0  0.75010  0.27271  0.73679  1.0000
  C   C2799     1.0  0.74897  0.27350  0.75107  1.0000
  C   C2800     1.0  0.76118  0.27368  0.75565  1.0000
  C   C2801     1.0  0.71748  0.29309  0.81455  1.0000
  S   S1146     1.0  0.67715  0.14454  0.74899  1.0000
  H   H4501     1.0  0.73867  0.27422  0.75854  1.0000
  H   H4502     1.0  0.76036  0.27413  0.76672  1.0000
  C   C2802     1.0  0.84817  0.21043  0.93098  1.0000
  C   C2803     1.0  0.84029  0.21457  0.94393  1.0000
  C   C2804     1.0  0.84732  0.21540  0.95427  1.0000
  C   C2805     1.0  0.86234  0.21209  0.95184  1.0000
  C   C2806     1.0  0.87027  0.20824  0.93873  1.0000
  C   C2807     1.0  0.86322  0.20730  0.92836  1.0000
  H   H4503     1.0  0.82865  0.21707  0.94600  1.0000
  H   H4504     1.0  0.97426  0.21243  0.82798  1.0000
  H   H4505     1.0  0.88190  0.20578  0.93666  1.0000
  H   H4506     1.0  0.86941  0.20418  0.91837  1.0000
  C   C2808     1.0  0.81637  0.16703  0.87254  1.0000
  C   C2809     1.0  0.80364  0.16205  0.87580  1.0000
  C   C2810     1.0  0.80000  0.15676  0.86566  1.0000
  C   C2811     1.0  0.80888  0.15679  0.85196  1.0000
  C   C2812     1.0  0.82145  0.16223  0.84846  1.0000
  C   C2813     1.0  0.82524  0.16732  0.85876  1.0000
  H   H4507     1.0  0.79669  0.16202  0.88635  1.0000
  H   H4508     1.0  0.79040  0.15250  0.86858  1.0000
  H   H4509     1.0  0.82838  0.16232  0.83785  1.0000
  H   H4510     1.0  0.83510  0.17118  0.85614  1.0000
  C   C2814     1.0  0.83782  0.22684  0.83536  1.0000
  C   C2815     1.0  0.83421  0.21379  0.83613  1.0000
  C   C2816     1.0  0.82417  0.21347  0.82850  1.0000
  C   C2817     1.0  0.81737  0.22628  0.82045  1.0000
  C   C2818     1.0  0.82091  0.23935  0.81973  1.0000
  C   C2819     1.0  0.83126  0.23959  0.82703  1.0000
  H   H4511     1.0  0.83918  0.20390  0.84251  1.0000
  H   H4512     1.0  0.82156  0.20332  0.82903  1.0000
  H   H4513     1.0  0.81563  0.24930  0.81364  1.0000
  H   H4514     1.0  0.83387  0.24974  0.82656  1.0000
  H   H4515     1.0  0.69406  0.02054  0.79551  1.0000
  H   H4516     1.0  0.76311  0.21523  0.84150  1.0000
  H   H4517     1.0  0.86851  0.20149  0.83421  1.0000
  H   H4518     1.0  0.79916  0.15938  0.94613  1.0000
  H   H4519     1.0  0.90767  0.19713  0.83045  1.0000
  H   H4520     1.0  0.82596  0.01583  0.74047  1.0000
  H   H4521     1.0  0.89029  0.20254  0.84138  1.0000
  C   C2820     1.0  0.79394  0.18809  0.93682  1.0000
  H   H4522     1.0  0.67591  0.26344  0.75941  1.0000
  H   H4523     1.0  0.68705  0.02456  0.82015  1.0000
  C   C2821     1.0  0.92761  0.19541  0.84929  1.0000
  C   C2822     1.0  0.92856  0.18207  0.84618  1.0000
  C   C2823     1.0  0.91809  0.17392  0.85370  1.0000
  C   C2824     1.0  0.90638  0.17934  0.86393  1.0000
  C   C2825     1.0  0.90551  0.19265  0.86705  1.0000
  C   C2826     1.0  0.91620  0.20058  0.85988  1.0000
  H   H4524     1.0  0.93745  0.17795  0.83811  1.0000
  H   H4525     1.0  0.91894  0.16351  0.85143  1.0000
  H   H4526     1.0  0.89678  0.19669  0.87523  1.0000
  H   H4527     1.0  0.91550  0.21084  0.86240  1.0000
  H   H4528     1.0  0.77374  0.11460  0.93978  1.0000
  C   C2827     1.0  0.81342  0.29998  0.78804  1.0000
  S   S1147     1.0  0.83257  0.24513  0.73626  1.0000
  C   C2828     1.0  0.70604  0.20165  0.74185  1.0000
  C   C2829     1.0  0.88631  0.25748  0.79507  1.0000
  H   H4529     1.0  0.86085  0.26149  0.77602  1.0000
  H   H4530     1.0  0.83022  0.28803  0.75716  1.0000
  H   H4531     1.0  0.80346  0.06458  0.76828  1.0000
  C   C2830     1.0  0.92284  0.22845  0.75800  1.0000
  H   H4532     1.0  0.79451  0.12583  0.88157  1.0000
  H   H4533     1.0  0.77366  0.07759  0.78511  1.0000
  H   H4534     1.0  0.93043  0.21914  0.76224  1.0000
  H   H4535     1.0  0.80667  0.13443  0.89582  1.0000
  H   H4536     1.0  0.82369  0.17470  0.91359  1.0000
  C   C2831     1.0  0.92034  0.18466  0.76199  1.0000
  C   C2832     1.0  0.92877  0.18353  0.77190  1.0000
  C   C2833     1.0  0.93892  0.17082  0.77524  1.0000
  H   H4537     1.0  0.81286  0.19263  0.91124  1.0000
  H   H4538     1.0  0.79228  0.18326  0.91129  1.0000
  H   H4539     1.0  0.91256  0.19452  0.75934  1.0000
  H   H4540     1.0  0.92747  0.19249  0.77689  1.0000
  C   C2834     1.0  0.72750  0.23796  0.80966  1.0000
  C   C2835     1.0  0.78906  0.20057  0.84673  1.0000
  H   H4541     1.0  0.69650  0.26366  0.81223  1.0000
  C   C2836     1.0  0.73631  0.99178  0.78338  1.0000
  H   H4542     1.0  0.67166  0.30251  0.77306  1.0000
  H   H4543     1.0  0.73627  0.00309  0.77899  1.0000
  C   C2837     1.0  0.75693  0.06790  0.82606  1.0000
  C   C2838     1.0  0.75313  0.07928  0.81477  1.0000
  C   C2839     1.0  0.75488  0.09321  0.81406  1.0000
  C   C2840     1.0  0.76000  0.09605  0.82485  1.0000
  C   C2841     1.0  0.76327  0.08481  0.83645  1.0000
  C   C2842     1.0  0.76183  0.07078  0.83698  1.0000
  H   H4544     1.0  0.74911  0.07732  0.80642  1.0000
  H   H4545     1.0  0.75231  0.10180  0.80504  1.0000
  H   H4546     1.0  0.76725  0.08684  0.84482  1.0000
  H   H4547     1.0  0.76478  0.06206  0.84579  1.0000
  C   C2843     1.0  0.78405  0.05335  0.75140  1.0000
  C   C2844     1.0  0.79222  0.04111  0.75885  1.0000
  C   C2845     1.0  0.80728  0.03902  0.75575  1.0000
  H   H4548     1.0  0.70880  0.30917  0.76194  1.0000
  N   N283      1.0  0.87147  0.25968  0.79309  1.0000
  H   H4549     1.0  0.98159  0.16284  0.76980  1.0000
  H   H4550     1.0  0.78697  0.03313  0.76677  1.0000
  H   H4551     1.0  0.81360  0.02946  0.76138  1.0000
  H   H4552     1.0  0.71939  0.17535  0.76828  1.0000
  C   C2846     1.0  0.87189  0.25946  0.77799  1.0000
  C   C2847     1.0  0.86303  0.27378  0.79622  1.0000
  H   H4553     1.0  0.70556  0.02090  0.82098  1.0000
  H   H4554     1.0  0.79533  0.24579  0.74009  1.0000
  H   H4555     1.0  0.93368  0.15155  0.75370  1.0000
  H   H4556     1.0  0.79889  0.04179  0.78571  1.0000
  C   C2848     1.0  0.72651  0.30585  0.78552  1.0000
  H   H4557     1.0  0.96048  0.19849  0.85892  1.0000
  C   C2849     1.0  0.68039  0.08929  0.77076  1.0000
  C   C2850     1.0  0.67381  0.07742  0.77572  1.0000
  C   C2851     1.0  0.68032  0.06468  0.78410  1.0000
  C   C2852     1.0  0.69351  0.06368  0.78746  1.0000
  C   C2853     1.0  0.70004  0.07559  0.78269  1.0000
  C   C2854     1.0  0.69342  0.08843  0.77441  1.0000
  H   H4558     1.0  0.93967  0.19040  0.73442  1.0000
  H   H4559     1.0  0.67517  0.05553  0.78787  1.0000
  H   H4560     1.0  0.71004  0.07499  0.78559  1.0000
  H   H4561     1.0  0.80272  0.10952  0.87522  1.0000
  N   N284      1.0  0.79334  0.22739  0.75750  1.0000
  C   C2855     1.0  0.79692  0.23386  0.74192  1.0000
  H   H4562     1.0  0.80417  0.19742  0.97831  1.0000
  C   C2856     1.0  0.77805  0.23316  0.76339  1.0000
  C   C2857     1.0  0.80257  0.23103  0.76507  1.0000
  H   H4563     1.0  0.75334  0.31461  0.78212  1.0000
  H   H4564     1.0  0.86886  0.18009  0.95477  1.0000
  H   H4565     1.0  0.85486  0.24060  0.96859  1.0000
  H   H4566     1.0  0.68821  0.31294  0.73400  1.0000
  H   H4567     1.0  0.67747  0.00629  0.81417  1.0000
  H   H4568     1.0  0.69477  0.30441  0.77709  1.0000
  H   H4569     1.0  0.66368  0.07806  0.77303  1.0000
  C   C2858     1.0  0.69692  0.31083  0.76582  1.0000
  H   H4570     1.0  0.84833  0.27716  0.94501  1.0000
  H   H4571     1.0  0.69080  0.28787  0.74877  1.0000
  H   H4572     1.0  0.97596  0.15931  0.80230  1.0000
  H   H4573     1.0  0.80720  0.20683  0.75515  1.0000
  H   H4574     1.0  0.78207  0.20483  0.85626  1.0000
  C   C2859     1.0  0.82871  0.29294  0.76618  1.0000
  Fe  Fe576     1.0  0.84798  0.25927  0.73224  1.0000
  C   C2860     1.0  0.73010  0.28636  0.80628  1.0000
  H   H4575     1.0  0.97795  0.14544  0.79291  1.0000
  Fe  Fe577     1.0  0.68601  0.12108  0.74871  1.0000
  N   N285      1.0  0.85475  0.16951  0.97274  1.0000
  C   C2861     1.0  0.94059  0.15930  0.76870  1.0000
  H   H4576     1.0  0.72863  0.23688  0.79841  1.0000
  C   C2862     1.0  0.84258  0.16243  0.97527  1.0000
  N   N286      1.0  0.98166  0.20179  0.84767  1.0000
  C   C2863     1.0  0.79200  0.06942  0.80286  1.0000
  H   H4577     1.0  0.71401  0.28824  0.82581  1.0000
  H   H4578     1.0  0.79673  0.19873  0.81864  1.0000
  S   S1148     1.0  0.83297  0.04583  0.74031  1.0000
  Fe  Fe578     1.0  0.76360  0.26820  0.80367  1.0000
  C   C2864     1.0  0.97645  0.14696  0.74112  1.0000
  H   H4579     1.0  0.96415  0.17845  0.75097  1.0000
  H   H4580     1.0  0.86385  0.24799  0.81456  1.0000
  N   N287      1.0  0.73220  0.14960  0.80507  1.0000
  C   C2865     1.0  0.71907  0.14776  0.80182  1.0000
  C   C2866     1.0  0.73130  0.14556  0.82087  1.0000
  C   C2867     1.0  0.73353  0.16482  0.79971  1.0000
  C   C2868     1.0  0.74493  0.14023  0.79787  1.0000
  H   H4581     1.0  0.71941  0.15066  0.78997  1.0000
  H   H4582     1.0  0.70924  0.15472  0.80704  1.0000
  H   H4583     1.0  0.71773  0.13638  0.80574  1.0000
  H   H4584     1.0  0.73055  0.13405  0.82529  1.0000
  H   H4585     1.0  0.74101  0.14692  0.82365  1.0000
  H   H4586     1.0  0.72184  0.15239  0.82674  1.0000
  H   H4587     1.0  0.74332  0.16657  0.80199  1.0000
  H   H4588     1.0  0.72410  0.17218  0.80497  1.0000
  H   H4589     1.0  0.73425  0.16827  0.78782  1.0000
  H   H4590     1.0  0.75502  0.14115  0.80030  1.0000
  H   H4591     1.0  0.74605  0.14300  0.78592  1.0000
  H   H4592     1.0  0.74424  0.12866  0.80166  1.0000
  H   H4593     1.0  0.68930  0.98967  0.81054  1.0000
  S   S1149     1.0  0.91220  0.17499  0.74228  1.0000
  H   H4594     1.0  0.82705  0.24838  0.95791  1.0000
  H   H4595     1.0  0.81522  0.30771  0.73941  1.0000
  H   H4596     1.0  0.71857  0.25158  0.83175  1.0000
  H   H4597     1.0  0.71738  0.06552  0.75892  1.0000
  C   C2869     1.0  0.93225  0.16047  0.75874  1.0000
  H   H4598     1.0  0.69381  0.28426  0.76673  1.0000
  C   C2870     1.0  0.69314  0.31571  0.74156  1.0000
  H   H4599     1.0  0.84103  0.21870  0.96406  1.0000
  H   H4600     1.0  0.70859  0.25885  0.79632  1.0000
  C   C2871     1.0  0.82466  0.30467  0.79033  1.0000
  S   S1150     1.0  0.77179  0.15469  0.96533  1.0000
  H   H4601     1.0  0.87732  0.21935  0.74053  1.0000
  C   C2872     1.0  0.79819  0.04711  0.79461  1.0000
  C   C2873     1.0  0.91696  0.22825  0.74648  1.0000
  Fe  Fe579     1.0  0.69988  0.14455  0.74916  1.0000
  H   H4602     1.0  0.66879  0.30617  0.75505  1.0000
  H   H4603     1.0  0.72235  0.99088  0.77020  1.0000
  H   H4604     1.0  0.82906  0.28032  0.95068  1.0000
  H   H4605     1.0  0.85341  0.24934  0.80166  1.0000
  C   C2874     1.0  0.71355  0.18051  0.75973  1.0000
  S   S1151     1.0  0.70894  0.22369  0.77220  1.0000
  H   H4606     1.0  0.69150  0.23927  0.82026  1.0000
  S   S1152     1.0  0.89391  0.11586  0.73456  1.0000
  C   C2875     1.0  0.69871  0.17938  0.74416  1.0000
  H   H4607     1.0  0.72188  0.99802  0.81571  1.0000
  N   N288      1.0  0.84033  0.26045  0.96193  1.0000
  H   H4608     1.0  0.84569  0.15308  0.96991  1.0000
  C   C2876     1.0  0.71357  0.19496  0.75293  1.0000
  C   C2877     1.0  0.86671  0.15908  0.97866  1.0000
  H   H4609     1.0  0.77087  0.06062  0.79674  1.0000
  H   H4610     1.0  0.71275  0.01625  0.79598  1.0000
  H   H4611     1.0  0.74376  0.28707  0.78508  1.0000
  S   S1153     1.0  0.73492  0.27293  0.73087  1.0000
  N   N289      1.0  0.69008  0.30673  0.75627  1.0000
  C   C2878     1.0  0.85363  0.24945  0.95892  1.0000
  C   C2879     1.0  0.79579  0.21155  0.75958  1.0000
  H   H4612     1.0  0.86763  0.28286  0.78858  1.0000
  H   H4613     1.0  0.86641  0.19287  0.74058  1.0000
  H   H4614     1.0  0.97013  0.19494  0.74760  1.0000
  H   H4615     1.0  0.78713  0.08119  0.80074  1.0000
  H   H4616     1.0  0.72996  0.31057  0.77430  1.0000
  C   C2880     1.0  0.98775  0.16790  0.77433  1.0000
  H   H4617     1.0  0.80907  0.04445  0.79710  1.0000
  C   C2881     1.0  0.80273  0.06915  0.77773  1.0000
  S   S1154     1.0  0.79768  0.29894  0.80136  1.0000
  H   H4618     1.0  0.73489  0.24491  0.80926  1.0000
  H   H4619     1.0  0.81418  0.22684  0.76086  1.0000
  H   H4620     1.0  0.71006  0.98810  0.82959  1.0000
  H   H4621     1.0  0.89542  0.26185  0.74294  1.0000
  S   S1155     1.0  0.74024  0.27009  0.81426  1.0000
  H   H4622     1.0  0.78529  0.06432  0.81298  1.0000
  H   H4623     1.0  0.89558  0.21315  0.82365  1.0000
  N   N290      1.0  0.80349  0.17717  0.92876  1.0000
  C   C2882     1.0  0.70958  0.30636  0.80838  1.0000
  C   C2883     1.0  0.91890  0.24078  0.76391  1.0000
  H   H4624     1.0  0.79087  0.04210  0.80434  1.0000
  C   C2884     1.0  0.70298  0.23486  0.81572  1.0000
  H   H4625     1.0  0.72353  0.05765  0.74328  1.0000
  H   H4626     1.0  0.71477  0.23377  0.83785  1.0000
  C   C2885     1.0  0.69628  0.01572  0.82292  1.0000
  H   H4627     1.0  0.84046  0.31105  0.73487  1.0000
  C   C2886     1.0  0.72627  0.06428  0.74931  1.0000
  H   H4628     1.0  0.85089  0.18279  0.95228  1.0000
  H   H4629     1.0  0.80118  0.24293  0.76346  1.0000
  H   H4630     1.0  0.97260  0.19401  0.83434  1.0000
  H   H4631     1.0  0.86271  0.27452  0.80742  1.0000
  H   H4632     1.0  0.97082  0.15480  0.74768  1.0000
  C   C2887     1.0  0.70614  0.17273  0.75534  1.0000
  H   H4633     1.0  0.88646  0.25730  0.80640  1.0000
  C   C2888     1.0  0.83897  0.27182  0.94874  1.0000
  H   H4634     1.0  0.77588  0.24503  0.76225  1.0000
  C   C2889     1.0  0.98404  0.15090  0.79712  1.0000
  H   H4635     1.0  0.77079  0.23091  0.75768  1.0000
  C   C2890     1.0  0.73442  0.29258  0.79168  1.0000
  H   H4636     1.0  0.70353  0.23419  0.80442  1.0000
  H   H4637     1.0  0.91998  0.21876  0.74189  1.0000
  S   S1156     1.0  0.70651  0.15460  0.76358  1.0000
  H   H4638     1.0  0.96163  0.21699  0.85195  1.0000
  C   C2891     1.0  0.97958  0.20158  0.83337  1.0000
  H   H4639     1.0  0.84683  0.30660  0.78254  1.0000
  H   H4640     1.0  0.87799  0.24894  0.77520  1.0000
  N   N291      1.0  0.81425  0.11449  0.88842  1.0000
  C   C2892     1.0  0.80692  0.10609  0.90193  1.0000
  C   C2893     1.0  0.80507  0.11899  0.87763  1.0000
  C   C2894     1.0  0.82811  0.10547  0.88268  1.0000
  C   C2895     1.0  0.81690  0.12739  0.89145  1.0000
  H   H4641     1.0  0.81345  0.10256  0.91039  1.0000
  H   H4642     1.0  0.80457  0.09635  0.90008  1.0000
  H   H4643     1.0  0.79646  0.11264  0.90650  1.0000
  H   H4644     1.0  0.81023  0.12533  0.86724  1.0000
  H   H4645     1.0  0.80636  0.29200  0.77332  1.0000
  H   H4646     1.0  0.95691  0.14222  0.73941  1.0000
  H   H4647     1.0  0.87058  0.14962  0.97342  1.0000
  C   C2896     1.0  0.90704  0.24031  0.74103  1.0000
  H   H4648     1.0  0.76220  0.10749  0.92383  1.0000
  H   H4649     1.0  0.90608  0.26237  0.76283  1.0000
  C   C2897     1.0  0.84018  0.29691  0.76882  1.0000
  H   H4650     1.0  0.94843  0.14944  0.77124  1.0000
  S   S1157     1.0  0.75387  0.99262  0.80079  1.0000
  S   S1158     1.0  0.77464  0.11961  0.97671  1.0000
  C   C2898     1.0  0.90297  0.25248  0.74714  1.0000
  C   C2899     1.0  0.70303  0.01156  0.79864  1.0000
  H   H4651     1.0  0.70029  0.24936  0.83636  1.0000
  H   H4652     1.0  0.87306  0.09900  0.73806  1.0000
  H   H4653     1.0  0.79319  0.20637  0.77126  1.0000
  C   C2900     1.0  0.71214  0.99342  0.81794  1.0000
  C   C2901     1.0  0.81525  0.29487  0.77556  1.0000
  S   S1159     1.0  0.77535  0.25106  0.79114  1.0000
  H   H4654     1.0  0.87603  0.16417  0.97698  1.0000
  C   C2902     1.0  0.96752  0.20628  0.85701  1.0000
  N   N292      1.0  0.78056  0.19706  0.83829  1.0000
  H   H4655     1.0  0.90217  0.17291  0.83360  1.0000
  S   S1160     1.0  0.80340  0.13340  0.96827  1.0000
  C   C2903     1.0  0.87502  0.20024  0.82330  1.0000
  N   N293      1.0  0.71246  0.24407  0.81608  1.0000
  C   C2904     1.0  0.77065  0.21030  0.83260  1.0000
  C   C2905     1.0  0.79037  0.19091  0.82613  1.0000
  Fe  Fe580     1.0  0.73118  0.22755  0.76874  1.0000
  Fe  Fe581     1.0  0.71249  0.22998  0.74791  1.0000
  C   C2906     1.0  0.73228  0.08676  0.74852  1.0000
  C   C2907     1.0  0.89618  0.20191  0.83008  1.0000
  H   H4656     1.0  0.76540  0.18363  0.84187  1.0000
  H   H4657     1.0  0.89408  0.18613  0.80401  1.0000
  C   C2908     1.0  0.89860  0.19224  0.80914  1.0000
  Fe  Fe582     1.0  0.72567  0.25480  0.74588  1.0000
  C   C2909     1.0  0.89088  0.17858  0.83308  1.0000
  H   H4658     1.0  0.77665  0.21860  0.82544  1.0000
  H   H4659     1.0  0.88612  0.17179  0.82900  1.0000
  H   H4660     1.0  0.76291  0.30928  0.80433  1.0000
  H   H4661     1.0  0.79822  0.18111  0.83001  1.0000
  H   H4662     1.0  0.76412  0.20800  0.82615  1.0000
  H   H4663     1.0  0.78437  0.18776  0.81976  1.0000
  S   S1161     1.0  0.78008  0.26405  0.81702  1.0000
  H   H4664     1.0  0.80281  0.06806  0.80510  1.0000
  C   C2910     1.0  0.81416  0.04911  0.74514  1.0000
  C   C2911     1.0  0.96178  0.19017  0.74601  1.0000
  S   S1162     1.0  0.70817  0.12080  0.75077  1.0000
  S   S1163     1.0  0.67220  0.10490  0.75979  1.0000
  H   H4665     1.0  0.87719  0.26800  0.77020  1.0000
  C   C2912     1.0  0.70787  0.25881  0.80779  1.0000
  Fe  Fe583     1.0  0.78522  0.13473  0.95780  1.0000
  H   H4666     1.0  0.71953  0.20087  0.75616  1.0000
  N   N294      1.0  0.79284  0.06288  0.79066  1.0000
  H   H4667     1.0  0.89171  0.26623  0.78791  1.0000
  H   H4668     1.0  0.79903  0.08106  0.77458  1.0000
  H   H4669     1.0  0.96864  0.20703  0.86775  1.0000
  H   H4670     1.0  0.89312  0.24712  0.79237  1.0000
  C   C2913     1.0  0.71146  0.24470  0.83120  1.0000
  S   S1164     1.0  0.92364  0.13263  0.74183  1.0000
  C   C2914     1.0  0.69588  0.29133  0.75577  1.0000
  C   C2915     1.0  0.82595  0.00852  0.73354  1.0000
  H   H4671     1.0  0.99043  0.18694  0.86520  1.0000
  S   S1165     1.0  0.70326  0.25351  0.74701  1.0000
  C   C2916     1.0  0.86458  0.24804  0.80301  1.0000
  S   S1166     1.0  0.70556  0.21982  0.73376  1.0000
  S   S1167     1.0  0.72348  0.25090  0.76969  1.0000
  H   H4672     1.0  0.77482  0.22829  0.77506  1.0000
  H   H4673     1.0  0.77870  0.06152  0.77798  1.0000
  C   C2917     1.0  0.77543  0.27272  0.73155  1.0000
  H   H4674     1.0  0.69358  0.01099  0.83469  1.0000
  H   H4675     1.0  0.86106  0.21995  0.73510  1.0000
  C   C2918     1.0  0.66890  0.26889  0.78032  1.0000
  C   C2919     1.0  0.77839  0.06581  0.78747  1.0000
  C   C2920     1.0  0.83802  0.30329  0.78060  1.0000
  C   C2921     1.0  0.92212  0.17313  0.75536  1.0000
  H   H4676     1.0  0.70601  0.22367  0.82196  1.0000
  H   H4677     1.0  0.70492  0.31428  0.73698  1.0000
  H   H4678     1.0  0.74236  0.08103  0.75237  1.0000
  H   H4679     1.0  0.70597  0.08856  0.74446  1.0000
  C   C2922     1.0  0.82777  0.25358  0.96640  1.0000
  H   H4680     1.0  0.80009  0.22656  0.77693  1.0000
  H   H4681     1.0  0.86317  0.16578  0.95114  1.0000
  C   C2923     1.0  0.66811  0.27025  0.76599  1.0000
  Fe  Fe584     1.0  0.85893  0.28051  0.74152  1.0000
  H   H4682     1.0  0.81751  0.26153  0.96882  1.0000
  S   S1168     1.0  0.79673  0.17301  0.97428  1.0000
  S   S1169     1.0  0.86310  0.25632  0.74658  1.0000
  H   H4683     1.0  0.68417  0.99279  0.82861  1.0000
  H   H4684     1.0  0.85005  0.27256  0.97057  1.0000
  C   C2924     1.0  0.69870  0.19385  0.73737  1.0000
  H   H4685     1.0  0.80838  0.22975  0.73707  1.0000
  C   C2925     1.0  0.71423  0.31291  0.79395  1.0000
  H   H4686     1.0  0.95123  0.19500  0.75228  1.0000
  H   H4687     1.0  0.75261  0.30554  0.73437  1.0000
  H   H4688     1.0  0.83840  0.26727  0.93971  1.0000
  H   H4689     1.0  0.69273  0.17347  0.74094  1.0000
  H   H4690     1.0  0.86341  0.25412  0.95577  1.0000
  Fe  Fe585     1.0  0.78930  0.15257  0.97681  1.0000
  C   C2926     1.0  0.90898  0.25275  0.75844  1.0000
  C   C2927     1.0  0.67436  0.30913  0.76196  1.0000
  C   C2928     1.0  0.85005  0.18183  0.98003  1.0000
  C   C2929     1.0  0.79094  0.06349  0.74094  1.0000
  C   C2930     1.0  0.87800  0.19317  0.73652  1.0000
  H   H4691     1.0  0.73408  0.09748  0.74185  1.0000
  N   N295      1.0  0.72846  0.07844  0.74013  1.0000
  H   H4692     1.0  0.83081  0.27481  0.97672  1.0000
  C   C2931     1.0  0.80595  0.06144  0.73789  1.0000
  H   H4693     1.0  0.84091  0.18987  0.97599  1.0000
  C   C2932     1.0  0.87287  0.21923  0.73128  1.0000
  H   H4694     1.0  0.85893  0.18752  0.97823  1.0000
  C   C2933     1.0  0.98871  0.18719  0.85438  1.0000
  H   H4695     1.0  0.82836  0.24510  0.97643  1.0000
  C   C2934     1.0  0.84095  0.26692  0.97367  1.0000
  H   H4696     1.0  0.98209  0.17914  0.85583  1.0000
  H   H4697     1.0  0.82323  0.30879  0.79992  1.0000
  H   H4698     1.0  0.98907  0.14281  0.80566  1.0000
  H   H4699     1.0  0.98641  0.22675  0.80066  1.0000
  H   H4700     1.0  0.66274  0.22708  0.73583  1.0000
  H   H4701     1.0  0.69999  0.31172  0.81490  1.0000
  H   H4702     1.0  0.88354  0.18317  0.73235  1.0000
  H   H4703     1.0  0.95288  0.17391  0.73371  1.0000
  C   C2935     1.0  0.71506  0.08649  0.73520  1.0000
  Fe  Fe586     1.0  0.91849  0.15614  0.73120  1.0000
  H   H4704     1.0  0.78467  0.07305  0.73523  1.0000
  H   H4705     1.0  0.81634  0.00363  0.73837  1.0000
  H   H4706     1.0  0.77877  0.31512  0.78012  1.0000
  H   H4707     1.0  0.83571  0.99971  0.73415  1.0000
  H   H4708     1.0  0.98605  0.22315  0.84052  1.0000
  H   H4709     1.0  0.75053  0.07021  0.73083  1.0000
  H   H4710     1.0  0.76733  0.38231  0.15197  1.0000
  H   H4711     1.0  0.73921  0.65098  0.18931  1.0000
  H   H4712     1.0  0.73656  0.63906  0.16999  1.0000
  H   H4713     1.0  0.80921  0.35651  0.15546  1.0000
  C   C2936     1.0  0.76247  0.64118  0.20125  1.0000
  H   H4714     1.0  0.66716  0.37215  0.20639  1.0000
  H   H4715     1.0  0.76104  0.63823  0.17508  1.0000
  Fe  Fe587     1.0  0.67045  0.32493  0.16722  1.0000
  C   C2937     1.0  0.73704  0.34918  0.11073  1.0000
  H   H4716     1.0  0.69269  0.35569  0.22153  1.0000
  S   S1170     1.0  0.70750  0.60171  0.18004  1.0000
  H   H4717     1.0  0.79185  0.36567  0.13180  1.0000
  S   S1171     1.0  0.67369  0.61044  0.17612  1.0000
  C   C2938     1.0  0.66978  0.36014  0.20953  1.0000
  Fe  Fe588     1.0  0.68764  0.59264  0.18931  1.0000
  C   C2939     1.0  0.76082  0.62847  0.18403  1.0000
  S   S1172     1.0  0.68069  0.60246  0.20883  1.0000
  C   C2940     1.0  0.68769  0.33822  0.20740  1.0000
  S   S1173     1.0  0.68986  0.56868  0.19539  1.0000
  S   S1174     1.0  0.74725  0.38092  0.22479  1.0000
  H   H4718     1.0  0.80744  0.37369  0.14309  1.0000
  C   C2941     1.0  0.68280  0.41714  0.22120  1.0000
  Fe  Fe589     1.0  0.74346  0.37500  0.18883  1.0000
  S   S1175     1.0  0.75161  0.39389  0.18977  1.0000
  S   S1176     1.0  0.74094  0.37104  0.16825  1.0000
  H   H4719     1.0  0.73483  0.33043  0.13653  1.0000
  H   H4720     1.0  0.68512  0.33417  0.21932  1.0000
  C   C2942     1.0  0.78111  0.35936  0.16839  1.0000
  Fe  Fe590     1.0  0.73378  0.39553  0.20945  1.0000
  N   N296      1.0  0.78738  0.36729  0.15405  1.0000
  Fe  Fe591     1.0  0.76433  0.37754  0.20505  1.0000
  S   S1177     1.0  0.78702  0.37836  0.20427  1.0000
  S   S1178     1.0  0.72434  0.37825  0.20696  1.0000
  S   S1179     1.0  0.75763  0.35848  0.20261  1.0000
  H   H4721     1.0  0.76621  0.32612  0.12192  1.0000
  H   H4722     1.0  0.74292  0.35660  0.10193  1.0000
  H   H4723     1.0  0.67603  0.54627  0.21389  1.0000
  H   H4724     1.0  0.70606  0.35499  0.20515  1.0000
  H   H4725     1.0  0.76439  0.61239  0.21015  1.0000
  H   H4726     1.0  0.75746  0.33444  0.09247  1.0000
  H   H4727     1.0  0.75579  0.34208  0.12806  1.0000
  H   H4728     1.0  0.76322  0.32915  0.22697  1.0000
  H   H4729     1.0  0.73254  0.35439  0.12022  1.0000
  H   H4730     1.0  0.69940  0.35485  0.18275  1.0000
  H   H4731     1.0  0.66032  0.64566  0.17498  1.0000
  S   S1180     1.0  0.68838  0.33692  0.16042  1.0000
  H   H4732     1.0  0.66872  0.58099  0.17756  1.0000
  H   H4733     1.0  0.76565  0.34325  0.10961  1.0000
  H   H4734     1.0  0.66717  0.35706  0.22155  1.0000
  H   H4735     1.0  0.77597  0.35954  0.14287  1.0000
  H   H4736     1.0  0.74193  0.32646  0.09849  1.0000
  S   S1181     1.0  0.70030  0.34171  0.11843  1.0000
  H   H4737     1.0  0.68692  0.63269  0.21500  1.0000
  N   N297      1.0  0.75401  0.63243  0.19818  1.0000
  H   H4738     1.0  0.68731  0.42664  0.22037  1.0000
  C   C2943     1.0  0.68798  0.35901  0.18764  1.0000
  C   C2944     1.0  0.73844  0.32568  0.12676  1.0000
  C   C2945     1.0  0.71845  0.33194  0.07924  1.0000
  C   C2946     1.0  0.71119  0.33947  0.09028  1.0000
  C   C2947     1.0  0.70825  0.33199  0.10466  1.0000
  C   C2948     1.0  0.82341  0.34837  0.17986  1.0000
  H   H4739     1.0  0.72871  0.32432  0.12407  1.0000
  H   H4740     1.0  0.72084  0.33779  0.06816  1.0000
  H   H4741     1.0  0.70795  0.35112  0.08768  1.0000
  C   C2949     1.0  0.75908  0.33671  0.11869  1.0000
  H   H4742     1.0  0.72044  0.56715  0.20635  1.0000
  H   H4743     1.0  0.66206  0.35659  0.16382  1.0000
  N   N298      1.0  0.74645  0.33489  0.11451  1.0000
  H   H4744     1.0  0.70866  0.58394  0.20886  1.0000
  C   C2950     1.0  0.73092  0.64373  0.16131  1.0000
  H   H4745     1.0  0.80929  0.33337  0.18672  1.0000
  H   H4746     1.0  0.78307  0.38856  0.14070  1.0000
  H   H4747     1.0  0.66050  0.37994  0.16980  1.0000
  H   H4748     1.0  0.77369  0.63514  0.20159  1.0000
  C   C2951     1.0  0.73441  0.35518  0.17237  1.0000
  C   C2952     1.0  0.72919  0.35164  0.16212  1.0000
  C   C2953     1.0  0.72362  0.33911  0.16566  1.0000
  C   C2954     1.0  0.72365  0.32996  0.17930  1.0000
  C   C2955     1.0  0.72905  0.33341  0.18943  1.0000
  C   C2956     1.0  0.73419  0.34611  0.18605  1.0000
  H   H4749     1.0  0.72916  0.35873  0.15159  1.0000
  H   H4750     1.0  0.71923  0.33657  0.15791  1.0000
  Fe  Fe592     1.0  0.83085  0.32027  0.16339  1.0000
  H   H4751     1.0  0.73791  0.34885  0.19412  1.0000
  H   H4752     1.0  0.77008  0.35821  0.16887  1.0000
  S   S1182     1.0  0.71486  0.61308  0.21157  1.0000
  H   H4753     1.0  0.78770  0.34832  0.17116  1.0000
  H   H4754     1.0  0.69158  0.40741  0.22281  1.0000
  Fe  Fe593     1.0  0.66869  0.62103  0.19495  1.0000
  S   S1183     1.0  0.69987  0.63492  0.14737  1.0000
  H   H4755     1.0  0.66237  0.35614  0.20548  1.0000
  C   C2957     1.0  0.77878  0.38221  0.15147  1.0000
  S   S1184     1.0  0.68696  0.63246  0.18672  1.0000
  C   C2958     1.0  0.81056  0.34382  0.18708  1.0000
  H   H4756     1.0  0.69274  0.37125  0.20684  1.0000
  C   C2959     1.0  0.70701  0.62604  0.22211  1.0000
  C   C2960     1.0  0.82521  0.36164  0.18094  1.0000
  C   C2961     1.0  0.81408  0.37056  0.18877  1.0000
  C   C2962     1.0  0.80102  0.36634  0.19548  1.0000
  C   C2963     1.0  0.79935  0.35282  0.19489  1.0000
  H   H4757     1.0  0.72897  0.32642  0.20003  1.0000
  H   H4758     1.0  0.83517  0.36515  0.17550  1.0000
  H   H4759     1.0  0.81551  0.38090  0.18937  1.0000
  H   H4760     1.0  0.78947  0.34927  0.20048  1.0000
  H   H4761     1.0  0.73375  0.64396  0.20837  1.0000
  H   H4762     1.0  0.69916  0.33335  0.20348  1.0000
  C   C2964     1.0  0.75124  0.32793  0.10193  1.0000
  C   C2965     1.0  0.72042  0.63726  0.16007  1.0000
  C   C2966     1.0  0.75347  0.61920  0.20963  1.0000
  H   H4763     1.0  0.77878  0.38800  0.15980  1.0000
  H   H4764     1.0  0.75771  0.64416  0.21196  1.0000
  Fe  Fe594     1.0  0.69432  0.32792  0.14039  1.0000
  H   H4765     1.0  0.80292  0.37278  0.16225  1.0000
  C   C2967     1.0  0.80238  0.36761  0.15367  1.0000
  H   H4766     1.0  0.66164  0.40359  0.22378  1.0000
  H   H4767     1.0  0.79352  0.34869  0.14443  1.0000
  H   H4768     1.0  0.77209  0.62233  0.18379  1.0000
  H   H4769     1.0  0.71807  0.62769  0.16785  1.0000
  S   S1185     1.0  0.71965  0.41591  0.21575  1.0000
  Fe  Fe595     1.0  0.69957  0.61275  0.19864  1.0000
  S   S1186     1.0  0.83707  0.33821  0.16872  1.0000
  H   H4770     1.0  0.68115  0.35516  0.18274  1.0000
  N   N299      1.0  0.71369  0.56980  0.22840  1.0000
  H   H4771     1.0  0.74678  0.61252  0.20796  1.0000
  C   C2968     1.0  0.68831  0.64666  0.22785  1.0000
  C   C2969     1.0  0.69342  0.63483  0.22111  1.0000
  C   C2970     1.0  0.73922  0.64089  0.19784  1.0000
  H   H4772     1.0  0.73250  0.63454  0.19569  1.0000
  Fe  Fe596     1.0  0.69307  0.62062  0.16880  1.0000
  H   H4773     1.0  0.70342  0.55441  0.22532  1.0000
  C   C2971     1.0  0.69450  0.35927  0.20955  1.0000
  C   C2972     1.0  0.78716  0.35999  0.14278  1.0000
  C   C2973     1.0  0.71769  0.57569  0.21273  1.0000
  H   H4774     1.0  0.72774  0.34831  0.10688  1.0000
  N   N300      1.0  0.68499  0.35417  0.20354  1.0000
  C   C2974     1.0  0.71322  0.64299  0.14865  1.0000
  C   C2975     1.0  0.67388  0.56402  0.19564  1.0000
  H   H4775     1.0  0.78036  0.36511  0.17698  1.0000
  H   H4776     1.0  0.74867  0.62191  0.22042  1.0000
  H   H4777     1.0  0.68020  0.41811  0.21058  1.0000
  H   H4778     1.0  0.68114  0.33395  0.20253  1.0000
  Fe  Fe597     1.0  0.73920  0.36345  0.22080  1.0000
  S   S1187     1.0  0.80784  0.32219  0.16297  1.0000
  H   H4779     1.0  0.66219  0.43920  0.22978  1.0000
  S   S1188     1.0  0.80887  0.32297  0.12214  1.0000
  C   C2976     1.0  0.66940  0.55250  0.20623  1.0000
  H   H4780     1.0  0.68580  0.37101  0.18430  1.0000
  H   H4781     1.0  0.72701  0.58098  0.21007  1.0000
  H   H4782     1.0  0.75485  0.62158  0.18157  1.0000
  H   H4783     1.0  0.72916  0.54981  0.22726  1.0000
  H   H4784     1.0  0.67144  0.48573  0.22189  1.0000
  C   C2977     1.0  0.66520  0.57217  0.18586  1.0000
  H   H4785     1.0  0.69165  0.57124  0.22800  1.0000
  H   H4786     1.0  0.78149  0.31966  0.22194  1.0000
  H   H4787     1.0  0.76290  0.65139  0.19294  1.0000
  C   C2978     1.0  0.65860  0.42919  0.23046  1.0000
  H   H4788     1.0  0.77284  0.60383  0.23764  1.0000
  H   H4789     1.0  0.69122  0.47372  0.23513  1.0000
  H   H4790     1.0  0.71928  0.59634  0.36120  1.0000
  S   S1189     1.0  0.66864  0.57782  0.26606  1.0000
  H   H4791     1.0  0.69013  0.64055  0.29947  1.0000
  H   H4792     1.0  0.67838  0.42462  0.24661  1.0000
  H   H4793     1.0  0.67489  0.38791  0.32398  1.0000
  H   H4794     1.0  0.67022  0.64926  0.27810  1.0000
  N   N301      1.0  0.66945  0.48253  0.24485  1.0000
  H   H4795     1.0  0.72326  0.33540  0.26938  1.0000
  H   H4796     1.0  0.67432  0.38427  0.34996  1.0000
  C   C2979     1.0  0.66290  0.56315  0.26411  1.0000
  H   H4797     1.0  0.70049  0.40199  0.32013  1.0000
  H   H4798     1.0  0.75270  0.37418  0.25539  1.0000
  C   C2980     1.0  0.73394  0.33758  0.26680  1.0000
  S   S1190     1.0  0.76647  0.64017  0.47955  1.0000
  C   C2981     1.0  0.65904  0.51465  0.29952  1.0000
  Fe  Fe598     1.0  0.74820  0.64938  0.46775  1.0000
  H   H4799     1.0  0.66263  0.47871  0.26801  1.0000
  C   C2982     1.0  0.72330  0.33045  0.34274  1.0000
  Fe  Fe599     1.0  0.70301  0.54605  0.29711  1.0000
  S   S1191     1.0  0.68286  0.56276  0.30210  1.0000
  S   S1192     1.0  0.70260  0.52269  0.30849  1.0000
  Fe  Fe600     1.0  0.71835  0.56875  0.27532  1.0000
  S   S1193     1.0  0.69922  0.58677  0.27831  1.0000
  S   S1194     1.0  0.73816  0.57271  0.25835  1.0000
  Fe  Fe601     1.0  0.69760  0.57683  0.30193  1.0000
  S   S1195     1.0  0.69154  0.59181  0.31761  1.0000
  Fe  Fe602     1.0  0.68661  0.57102  0.27814  1.0000
  H   H4800     1.0  0.67160  0.63912  0.30366  1.0000
  S   S1196     1.0  0.71758  0.55945  0.29904  1.0000
  S   S1197     1.0  0.70592  0.55365  0.27313  1.0000
  Fe  Fe603     1.0  0.72797  0.63340  0.38254  1.0000
  H   H4801     1.0  0.71929  0.58669  0.23456  1.0000
  S   S1198     1.0  0.73172  0.62335  0.40530  1.0000
  Fe  Fe604     1.0  0.72956  0.62771  0.35268  1.0000
  H   H4802     1.0  0.73915  0.36373  0.27870  1.0000
  S   S1199     1.0  0.73778  0.61268  0.33690  1.0000
  C   C2983     1.0  0.68288  0.47138  0.24510  1.0000
  H   H4803     1.0  0.67648  0.61709  0.27649  1.0000
  Fe  Fe605     1.0  0.70235  0.64486  0.36802  1.0000
  H   H4804     1.0  0.73954  0.58162  0.34677  1.0000
  S   S1200     1.0  0.74395  0.63636  0.36125  1.0000
  S   S1201     1.0  0.71513  0.62260  0.37441  1.0000
  H   H4805     1.0  0.66966  0.39365  0.38600  1.0000
  Fe  Fe606     1.0  0.68439  0.34637  0.41548  1.0000
  H   H4806     1.0  0.74797  0.63826  0.32808  1.0000
  S   S1202     1.0  0.69022  0.34080  0.43737  1.0000
  Fe  Fe607     1.0  0.69348  0.34609  0.38335  1.0000
  S   S1203     1.0  0.67159  0.34528  0.38164  1.0000
  S   S1204     1.0  0.65937  0.45671  0.30627  1.0000
  Fe  Fe608     1.0  0.66415  0.36221  0.39486  1.0000
  N   N302      1.0  0.74893  0.38186  0.27490  1.0000
  H   H4807     1.0  0.66366  0.62543  0.29030  1.0000
  H   H4808     1.0  0.74023  0.39115  0.25575  1.0000
  S   S1205     1.0  0.68618  0.36410  0.39544  1.0000
  H   H4809     1.0  0.69784  0.55851  0.24307  1.0000
  Fe  Fe609     1.0  0.68082  0.45807  0.29135  1.0000
  H   H4810     1.0  0.69530  0.33538  0.46554  1.0000
  S   S1206     1.0  0.68718  0.47946  0.27958  1.0000
  Fe  Fe610     1.0  0.68840  0.42556  0.29181  1.0000
  S   S1207     1.0  0.66774  0.42161  0.30700  1.0000
  S   S1208     1.0  0.70351  0.40630  0.28393  1.0000
  S   S1209     1.0  0.69736  0.38177  0.47393  1.0000
  H   H4811     1.0  0.70183  0.61970  0.27046  1.0000
  C   C2984     1.0  0.69686  0.64964  0.23550  1.0000
  H   H4812     1.0  0.70756  0.62936  0.28027  1.0000
  S   S1210     1.0  0.67798  0.44481  0.27724  1.0000
  S   S1211     1.0  0.69327  0.43887  0.30449  1.0000
  H   H4813     1.0  0.70805  0.36215  0.33270  1.0000
  H   H4814     1.0  0.75405  0.40206  0.27395  1.0000
  H   H4815     1.0  0.69175  0.38515  0.31133  1.0000
  C   C2985     1.0  0.70737  0.42303  0.25643  1.0000
  C   C2986     1.0  0.70721  0.40916  0.26497  1.0000
  C   C2987     1.0  0.71042  0.39741  0.25831  1.0000
  C   C2988     1.0  0.71414  0.39947  0.24319  1.0000
  H   H4816     1.0  0.70530  0.43210  0.26146  1.0000
  H   H4817     1.0  0.71000  0.38669  0.26480  1.0000
  H   H4818     1.0  0.73226  0.56158  0.38495  1.0000
  H   H4819     1.0  0.73038  0.61797  0.43576  1.0000
  C   C2989     1.0  0.75569  0.33676  0.27432  1.0000
  H   H4820     1.0  0.72668  0.38047  0.28035  1.0000
  C   C2990     1.0  0.73998  0.34362  0.25263  1.0000
  H   H4821     1.0  0.70373  0.57257  0.36338  1.0000
  C   C2991     1.0  0.66375  0.48290  0.23225  1.0000
  H   H4822     1.0  0.74551  0.64801  0.39763  1.0000
  C   C2992     1.0  0.68609  0.38135  0.32264  1.0000
  H   H4823     1.0  0.72348  0.55412  0.24484  1.0000
  C   C2993     1.0  0.66716  0.53775  0.26392  1.0000
  H   H4824     1.0  0.72666  0.58824  0.37697  1.0000
  C   C2994     1.0  0.71456  0.41331  0.23466  1.0000
  C   C2995     1.0  0.68285  0.63346  0.29992  1.0000
  H   H4825     1.0  0.69935  0.39960  0.33924  1.0000
  C   C2996     1.0  0.76160  0.34316  0.26021  1.0000
  H   H4826     1.0  0.66767  0.36527  0.46210  1.0000
  H   H4827     1.0  0.73030  0.64311  0.31241  1.0000
  H   H4828     1.0  0.66265  0.50544  0.24352  1.0000
  C   C2997     1.0  0.71496  0.57204  0.35699  1.0000
  C   C2998     1.0  0.72601  0.55882  0.23308  1.0000
  H   H4829     1.0  0.71469  0.37720  0.32026  1.0000
  H   H4830     1.0  0.71851  0.56177  0.35305  1.0000
  C   C2999     1.0  0.69911  0.51041  0.30013  1.0000
  C   C3000     1.0  0.69845  0.51395  0.28551  1.0000
  C   C3001     1.0  0.69519  0.50416  0.27932  1.0000
  C   C3002     1.0  0.69224  0.49086  0.28772  1.0000
  C   C3003     1.0  0.69295  0.48726  0.30234  1.0000
  C   C3004     1.0  0.69644  0.49698  0.30847  1.0000
  H   H4831     1.0  0.70053  0.52419  0.27893  1.0000
  H   H4832     1.0  0.69481  0.50697  0.26799  1.0000
  H   H4833     1.0  0.69079  0.47702  0.30891  1.0000
  H   H4834     1.0  0.69699  0.49410  0.31978  1.0000
  C   C3005     1.0  0.66445  0.41720  0.35442  1.0000
  H   H4835     1.0  0.76265  0.64737  0.32217  1.0000
  H   H4836     1.0  0.70287  0.61224  0.28912  1.0000
  N   N303      1.0  0.75009  0.65061  0.30628  1.0000
  H   H4837     1.0  0.65858  0.34824  0.45458  1.0000
  C   C3006     1.0  0.67202  0.54951  0.26491  1.0000
  C   C3007     1.0  0.67251  0.49675  0.24376  1.0000
  H   H4838     1.0  0.73648  0.37107  0.29430  1.0000
  H   H4839     1.0  0.68278  0.54790  0.26642  1.0000
  C   C3008     1.0  0.70459  0.59832  0.32190  1.0000
  C   C3009     1.0  0.70006  0.60776  0.33151  1.0000
  C   C3010     1.0  0.71013  0.61269  0.33571  1.0000
  C   C3011     1.0  0.72485  0.60810  0.33043  1.0000
  C   C3012     1.0  0.72939  0.59894  0.32055  1.0000
  C   C3013     1.0  0.71929  0.59409  0.31626  1.0000
  H   H4840     1.0  0.68870  0.61109  0.33594  1.0000
  H   H4841     1.0  0.70648  0.61977  0.34332  1.0000
  H   H4842     1.0  0.74077  0.59536  0.31639  1.0000
  H   H4843     1.0  0.72291  0.58686  0.30880  1.0000
  C   C3014     1.0  0.76265  0.37316  0.27876  1.0000
  C   C3015     1.0  0.75138  0.64829  0.32140  1.0000
  H   H4844     1.0  0.69763  0.35114  0.48021  1.0000
  H   H4845     1.0  0.68099  0.46049  0.24600  1.0000
  H   H4846     1.0  0.66132  0.47234  0.23277  1.0000
  C   C3016     1.0  0.67040  0.41027  0.36659  1.0000
  C   C3017     1.0  0.66508  0.39877  0.37658  1.0000
  H   H4847     1.0  0.67427  0.52722  0.26456  1.0000
  H   H4848     1.0  0.67003  0.34153  0.48007  1.0000
  C   C3018     1.0  0.75283  0.61551  0.24827  1.0000
  C   C3019     1.0  0.76206  0.60326  0.24379  1.0000
  C   C3020     1.0  0.75738  0.59029  0.24697  1.0000
  C   C3021     1.0  0.74353  0.58927  0.25502  1.0000
  C   C3022     1.0  0.73433  0.60142  0.25984  1.0000
  C   C3023     1.0  0.73892  0.61459  0.25634  1.0000
  H   H4849     1.0  0.66723  0.36778  0.43576  1.0000
  H   H4850     1.0  0.72898  0.33902  0.33709  1.0000
  H   H4851     1.0  0.72366  0.60070  0.26606  1.0000
  H   H4852     1.0  0.73176  0.62398  0.25990  1.0000
  H   H4853     1.0  0.75782  0.63924  0.28887  1.0000
  H   H4854     1.0  0.75845  0.35126  0.23840  1.0000
  C   C3024     1.0  0.73531  0.62719  0.43072  1.0000
  C   C3025     1.0  0.73740  0.63218  0.41565  1.0000
  H   H4855     1.0  0.76458  0.58095  0.24328  1.0000
  C   C3026     1.0  0.73956  0.63402  0.43933  1.0000
  N   N304      1.0  0.72472  0.57317  0.36556  1.0000
  C   C3027     1.0  0.71340  0.33160  0.35578  1.0000
  H   H4856     1.0  0.71459  0.58099  0.34731  1.0000
  C   C3028     1.0  0.69646  0.37020  0.46332  1.0000
  C   C3029     1.0  0.69528  0.37576  0.44882  1.0000
  C   C3030     1.0  0.69389  0.36682  0.44040  1.0000
  C   C3031     1.0  0.69368  0.35227  0.44651  1.0000
  C   C3032     1.0  0.69537  0.34664  0.46079  1.0000
  H   H4857     1.0  0.71659  0.39033  0.23814  1.0000
  H   H4858     1.0  0.69532  0.38704  0.44414  1.0000
  H   H4859     1.0  0.69286  0.37122  0.42930  1.0000
  S   S1212     1.0  0.75908  0.63177  0.24292  1.0000
  C   C3033     1.0  0.74546  0.39583  0.27933  1.0000
  C   C3034     1.0  0.67515  0.62019  0.28696  1.0000
  S   S1213     1.0  0.69397  0.32852  0.40326  1.0000
  H   H4860     1.0  0.71626  0.64202  0.24384  1.0000
  C   C3035     1.0  0.75031  0.38448  0.25909  1.0000
  H   H4861     1.0  0.67669  0.49683  0.25323  1.0000
  S   S1214     1.0  0.66154  0.34620  0.41596  1.0000
  H   H4862     1.0  0.67303  0.39318  0.23620  1.0000
  C   C3036     1.0  0.71954  0.58696  0.37050  1.0000
  H   H4863     1.0  0.74700  0.57377  0.36252  1.0000
  H   H4864     1.0  0.72884  0.55044  0.37493  1.0000
  C   C3037     1.0  0.70605  0.32047  0.36299  1.0000
  C   C3038     1.0  0.69427  0.39799  0.33110  1.0000
  C   C3039     1.0  0.71090  0.42512  0.24129  1.0000
  H   H4865     1.0  0.68336  0.40507  0.33215  1.0000
  C   C3040     1.0  0.75859  0.63789  0.30029  1.0000
  S   S1215     1.0  0.76588  0.33129  0.28764  1.0000
  S   S1216     1.0  0.71577  0.64932  0.34574  1.0000
  C   C3041     1.0  0.75369  0.34669  0.24938  1.0000
  H   H4866     1.0  0.77241  0.34502  0.25758  1.0000
  C   C3042     1.0  0.66488  0.52854  0.31321  1.0000
  H   H4867     1.0  0.68495  0.36627  0.35016  1.0000
  H   H4868     1.0  0.73557  0.56362  0.23114  1.0000
  H   H4869     1.0  0.67912  0.41387  0.36835  1.0000
  H   H4870     1.0  0.67737  0.61003  0.29514  1.0000
  H   H4871     1.0  0.77171  0.37873  0.27326  1.0000
  C   C3043     1.0  0.74172  0.33438  0.27768  1.0000
  H   H4872     1.0  0.76553  0.36253  0.27559  1.0000
  N   N305      1.0  0.67005  0.41619  0.23314  1.0000
  C   C3044     1.0  0.70998  0.58158  0.23633  1.0000
  H   H4873     1.0  0.77471  0.32317  0.23983  1.0000
  H   H4874     1.0  0.74371  0.56238  0.35262  1.0000
  H   H4875     1.0  0.74412  0.39430  0.29122  1.0000
  Fe  Fe611     1.0  0.67130  0.32929  0.40271  1.0000
  C   C3045     1.0  0.69663  0.35557  0.46918  1.0000
  H   H4876     1.0  0.69835  0.32130  0.37303  1.0000
  C   C3046     1.0  0.73730  0.37395  0.28240  1.0000
  C   C3047     1.0  0.68551  0.37783  0.34807  1.0000
  C   C3048     1.0  0.72499  0.56103  0.37825  1.0000
  H   H4877     1.0  0.67268  0.53299  0.30362  1.0000
  C   C3049     1.0  0.70825  0.37373  0.33124  1.0000
  N   N306      1.0  0.68484  0.62982  0.28575  1.0000
  H   H4878     1.0  0.71404  0.37426  0.33934  1.0000
  H   H4879     1.0  0.69076  0.37884  0.35639  1.0000
  H   H4880     1.0  0.75471  0.62791  0.30663  1.0000
  N   N307      1.0  0.69353  0.38272  0.33327  1.0000
  H   H4881     1.0  0.71131  0.43583  0.23473  1.0000
  H   H4882     1.0  0.73523  0.40270  0.27641  1.0000
  C   C3050     1.0  0.69994  0.62245  0.28120  1.0000
  C   C3051     1.0  0.74379  0.64410  0.40922  1.0000
  H   H4883     1.0  0.66460  0.41468  0.25614  1.0000
  C   C3052     1.0  0.65866  0.47910  0.25827  1.0000
  S   S1217     1.0  0.67838  0.64856  0.37265  1.0000
  S   S1218     1.0  0.73059  0.34684  0.23894  1.0000
  H   H4884     1.0  0.68880  0.65054  0.27331  1.0000
  S   S1219     1.0  0.71034  0.34703  0.36289  1.0000
  H   H4885     1.0  0.71408  0.56112  0.38533  1.0000
  H   H4886     1.0  0.73791  0.63006  0.45091  1.0000
  H   H4887     1.0  0.73682  0.33019  0.28871  1.0000
  H   H4888     1.0  0.68517  0.62357  0.30837  1.0000
  C   C3053     1.0  0.66475  0.40322  0.23400  1.0000
  H   H4889     1.0  0.68546  0.36993  0.32386  1.0000
  C   C3054     1.0  0.73939  0.57266  0.35650  1.0000
  S   S1220     1.0  0.67129  0.43182  0.34245  1.0000
  H   H4890     1.0  0.75913  0.39025  0.25304  1.0000
  Fe  Fe612     1.0  0.67158  0.43652  0.31865  1.0000
  C   C3055     1.0  0.74616  0.64579  0.43288  1.0000
  H   H4891     1.0  0.70669  0.57759  0.24816  1.0000
  H   H4892     1.0  0.68755  0.47082  0.25442  1.0000
  H   H4893     1.0  0.70844  0.58785  0.37727  1.0000
  H   H4894     1.0  0.70091  0.59021  0.23286  1.0000
  H   H4895     1.0  0.66455  0.50420  0.30539  1.0000
  H   H4896     1.0  0.68242  0.64076  0.26419  1.0000
  H   H4897     1.0  0.72507  0.62111  0.23217  1.0000
  C   C3056     1.0  0.74828  0.65076  0.41780  1.0000
  H   H4898     1.0  0.70439  0.64744  0.42631  1.0000
  C   C3057     1.0  0.68141  0.64318  0.27490  1.0000
  H   H4899     1.0  0.77017  0.63603  0.30053  1.0000
  H   H4900     1.0  0.76200  0.37086  0.29062  1.0000
  H   H4901     1.0  0.68242  0.40532  0.24946  1.0000
  C   C3058     1.0  0.67403  0.41517  0.24693  1.0000
  H   H4902     1.0  0.67109  0.51866  0.31928  1.0000
  C   C3059     1.0  0.70113  0.56316  0.23136  1.0000
  H   H4903     1.0  0.66710  0.51852  0.28997  1.0000
  C   C3060     1.0  0.70987  0.64013  0.23747  1.0000
  H   H4904     1.0  0.66086  0.53663  0.32019  1.0000
  C   C3061     1.0  0.77183  0.32021  0.23095  1.0000
  H   H4905     1.0  0.66328  0.64778  0.40195  1.0000
  H   H4906     1.0  0.68063  0.49976  0.23382  1.0000
  C   C3062     1.0  0.71489  0.62829  0.23085  1.0000
  H   H4907     1.0  0.65821  0.38360  0.46133  1.0000
  H   H4908     1.0  0.65850  0.38628  0.43580  1.0000
  H   H4909     1.0  0.67370  0.44073  0.64882  1.0000
  H   H4910     1.0  0.76306  0.37131  0.54689  1.0000
  S   S1221     1.0  0.69131  0.35868  0.53930  1.0000
  C   C3063     1.0  0.69691  0.41162  0.55326  1.0000
  H   H4911     1.0  0.74004  0.38741  0.55660  1.0000
  N   N308      1.0  0.72591  0.39056  0.68517  1.0000
  Fe  Fe613     1.0  0.77879  0.37199  0.66727  1.0000
  S   S1222     1.0  0.79955  0.35885  0.65723  1.0000
  S   S1223     1.0  0.77637  0.38642  0.68224  1.0000
  Fe  Fe614     1.0  0.76052  0.36006  0.65506  1.0000
  S   S1224     1.0  0.77959  0.34584  0.64397  1.0000
  S   S1225     1.0  0.73894  0.35913  0.65254  1.0000
  C   C3064     1.0  0.83387  0.62151  0.65801  1.0000
  S   S1226     1.0  0.69308  0.57895  0.72787  1.0000
  Fe  Fe615     1.0  0.78948  0.36521  0.63775  1.0000
  S   S1227     1.0  0.80191  0.37043  0.61499  1.0000
  S   S1228     1.0  0.76759  0.35351  0.67609  1.0000
  S   S1229     1.0  0.76968  0.37990  0.64727  1.0000
  Fe  Fe616     1.0  0.73275  0.43852  0.55684  1.0000
  S   S1230     1.0  0.74120  0.42124  0.57448  1.0000
  S   S1231     1.0  0.72993  0.43267  0.53716  1.0000
  Fe  Fe617     1.0  0.73181  0.46302  0.57139  1.0000
  S   S1232     1.0  0.74036  0.44761  0.59011  1.0000
  S   S1233     1.0  0.72348  0.48693  0.57103  1.0000
  Fe  Fe618     1.0  0.75552  0.43592  0.57338  1.0000
  S   S1234     1.0  0.77926  0.42749  0.57180  1.0000
  Fe  Fe619     1.0  0.72524  0.43450  0.58943  1.0000
  S   S1235     1.0  0.71166  0.42416  0.60976  1.0000
  S   S1236     1.0  0.74831  0.45246  0.55452  1.0000
  S   S1237     1.0  0.71548  0.45060  0.57187  1.0000
  H   H4912     1.0  0.75168  0.38045  0.58634  1.0000
  C   C3065     1.0  0.66676  0.34203  0.50251  1.0000
  H   H4913     1.0  0.76516  0.32369  0.68955  1.0000
  H   H4914     1.0  0.75212  0.38733  0.60859  1.0000
  H   H4915     1.0  0.74625  0.32518  0.69735  1.0000
  H   H4916     1.0  0.74386  0.39839  0.68642  1.0000
  H   H4917     1.0  0.72644  0.39426  0.54612  1.0000
  Fe  Fe620     1.0  0.77174  0.62832  0.67502  1.0000
  S   S1238     1.0  0.77898  0.60907  0.69154  1.0000
  C   C3066     1.0  0.76420  0.37222  0.72514  1.0000
  Fe  Fe621     1.0  0.79794  0.62058  0.65224  1.0000
  S   S1239     1.0  0.80711  0.60046  0.66701  1.0000
  H   H4918     1.0  0.80211  0.64203  0.56939  1.0000
  Fe  Fe622     1.0  0.78434  0.59720  0.67356  1.0000
  S   S1240     1.0  0.77673  0.57628  0.67949  1.0000
  Fe  Fe623     1.0  0.80067  0.61465  0.68328  1.0000
  S   S1241     1.0  0.81423  0.61424  0.69881  1.0000
  S   S1242     1.0  0.77569  0.61622  0.65751  1.0000
  S   S1243     1.0  0.79297  0.63493  0.66801  1.0000
  Fe  Fe624     1.0  0.74857  0.54378  0.59374  1.0000
  S   S1244     1.0  0.73049  0.56217  0.58784  1.0000
  S   S1245     1.0  0.75996  0.52462  0.58350  1.0000
  Fe  Fe625     1.0  0.75113  0.55513  0.61889  1.0000
  S   S1246     1.0  0.73335  0.57448  0.61537  1.0000
  S   S1247     1.0  0.76179  0.54535  0.63794  1.0000
  Fe  Fe626     1.0  0.72179  0.55937  0.61184  1.0000
  S   S1248     1.0  0.69938  0.55707  0.62363  1.0000
  Fe  Fe627     1.0  0.74344  0.57596  0.59167  1.0000
  S   S1249     1.0  0.74631  0.59779  0.57783  1.0000
  S   S1250     1.0  0.73870  0.53982  0.61728  1.0000
  S   S1251     1.0  0.76235  0.55779  0.59556  1.0000
  H   H4919     1.0  0.76884  0.62944  0.59124  1.0000
  H   H4920     1.0  0.73792  0.37062  0.59651  1.0000
  S   S1252     1.0  0.75306  0.60721  0.51020  1.0000
  H   H4921     1.0  0.74734  0.37880  0.51448  1.0000
  S   S1253     1.0  0.71777  0.33766  0.71476  1.0000
  C   C3067     1.0  0.74886  0.59992  0.55903  1.0000
  C   C3068     1.0  0.75202  0.61284  0.54996  1.0000
  C   C3069     1.0  0.75362  0.61504  0.53494  1.0000
  C   C3070     1.0  0.75194  0.60438  0.52891  1.0000
  C   C3071     1.0  0.74890  0.59139  0.53797  1.0000
  C   C3072     1.0  0.74736  0.58916  0.55301  1.0000
  H   H4922     1.0  0.75331  0.62114  0.55455  1.0000
  H   H4923     1.0  0.75640  0.62488  0.52803  1.0000
  H   H4924     1.0  0.74756  0.58315  0.53334  1.0000
  H   H4925     1.0  0.74486  0.57923  0.55998  1.0000
  H   H4926     1.0  0.71866  0.54809  0.68840  1.0000
  H   H4927     1.0  0.75779  0.39796  0.53689  1.0000
  C   C3073     1.0  0.68161  0.33737  0.70325  1.0000
  C   C3074     1.0  0.77227  0.56873  0.66726  1.0000
  C   C3075     1.0  0.77125  0.55423  0.67162  1.0000
  C   C3076     1.0  0.76795  0.54742  0.66248  1.0000
  C   C3077     1.0  0.76525  0.55508  0.64893  1.0000
  C   C3078     1.0  0.76579  0.56977  0.64458  1.0000
  C   C3079     1.0  0.76945  0.57658  0.65371  1.0000
  H   H4928     1.0  0.77338  0.54810  0.68205  1.0000
  H   H4929     1.0  0.76765  0.53608  0.66592  1.0000
  H   H4930     1.0  0.76376  0.57576  0.63409  1.0000
  H   H4931     1.0  0.77014  0.58782  0.65028  1.0000
  C   C3080     1.0  0.66640  0.51126  0.63568  1.0000
  C   C3081     1.0  0.65997  0.33677  0.51667  1.0000
  C   C3082     1.0  0.82933  0.62894  0.70757  1.0000
  C   C3083     1.0  0.82036  0.62972  0.69831  1.0000
  H   H4932     1.0  0.84197  0.61132  0.66026  1.0000
  S   S1254     1.0  0.66393  0.46082  0.67784  1.0000
  H   H4933     1.0  0.75877  0.58976  0.70499  1.0000
  H   H4934     1.0  0.72942  0.62230  0.70782  1.0000
  H   H4935     1.0  0.85929  0.62593  0.65922  1.0000
  C   C3084     1.0  0.67446  0.57555  0.65651  1.0000
  C   C3085     1.0  0.67822  0.58897  0.65327  1.0000
  H   H4936     1.0  0.70614  0.62288  0.56196  1.0000
  C   C3086     1.0  0.68059  0.56604  0.64705  1.0000
  C   C3087     1.0  0.69083  0.56973  0.63453  1.0000
  C   C3088     1.0  0.69449  0.58322  0.63119  1.0000
  C   C3089     1.0  0.68807  0.59290  0.64048  1.0000
  H   H4937     1.0  0.77480  0.37500  0.59398  1.0000
  H   H4938     1.0  0.67768  0.55565  0.64966  1.0000
  H   H4939     1.0  0.70216  0.58626  0.62138  1.0000
  H   H4940     1.0  0.69097  0.60329  0.63790  1.0000
  H   H4941     1.0  0.80221  0.63688  0.59582  1.0000
  H   H4942     1.0  0.72617  0.34320  0.64019  1.0000
  H   H4943     1.0  0.68436  0.44984  0.58938  1.0000
  H   H4944     1.0  0.72805  0.63835  0.53967  1.0000
  H   H4945     1.0  0.68351  0.38931  0.70693  1.0000
  H   H4946     1.0  0.67941  0.41329  0.59116  1.0000
  H   H4947     1.0  0.67613  0.43303  0.71172  1.0000
  C   C3090     1.0  0.75886  0.33076  0.71551  1.0000
  C   C3091     1.0  0.73358  0.49652  0.57588  1.0000
  C   C3092     1.0  0.72667  0.50960  0.58025  1.0000
  C   C3093     1.0  0.73457  0.51799  0.58328  1.0000
  C   C3094     1.0  0.74950  0.51351  0.58158  1.0000
  C   C3095     1.0  0.75641  0.50039  0.57734  1.0000
  C   C3096     1.0  0.74845  0.49183  0.57464  1.0000
  H   H4948     1.0  0.71515  0.51326  0.58123  1.0000
  H   H4949     1.0  0.72913  0.52807  0.58658  1.0000
  H   H4950     1.0  0.76797  0.49687  0.57595  1.0000
  H   H4951     1.0  0.75386  0.48179  0.57123  1.0000
  H   H4952     1.0  0.70399  0.45525  0.60061  1.0000
  H   H4953     1.0  0.73426  0.39002  0.70350  1.0000
  C   C3097     1.0  0.73999  0.34067  0.65476  1.0000
  H   H4954     1.0  0.70951  0.37882  0.68779  1.0000
  H   H4955     1.0  0.67815  0.33064  0.69830  1.0000
  H   H4956     1.0  0.69339  0.34311  0.57019  1.0000
  C   C3098     1.0  0.77559  0.37576  0.69970  1.0000
  H   H4957     1.0  0.71443  0.60766  0.70385  1.0000
  C   C3099     1.0  0.66982  0.43138  0.60961  1.0000
  H   H4958     1.0  0.84261  0.63990  0.71337  1.0000
  H   H4959     1.0  0.72644  0.36772  0.69116  1.0000
  C   C3100     1.0  0.79513  0.38655  0.60355  1.0000
  C   C3101     1.0  0.78097  0.39437  0.60698  1.0000
  C   C3102     1.0  0.77579  0.40685  0.59719  1.0000
  C   C3103     1.0  0.78493  0.41169  0.58416  1.0000
  C   C3104     1.0  0.79906  0.40391  0.58085  1.0000
  C   C3105     1.0  0.80407  0.39131  0.59041  1.0000
  H   H4960     1.0  0.77398  0.39078  0.61706  1.0000
  H   H4961     1.0  0.76489  0.41291  0.59984  1.0000
  H   H4962     1.0  0.80615  0.40763  0.57082  1.0000
  H   H4963     1.0  0.81499  0.38533  0.58767  1.0000
  H   H4964     1.0  0.83188  0.61905  0.71539  1.0000
  C   C3106     1.0  0.78303  0.36133  0.70181  1.0000
  C   C3107     1.0  0.73896  0.33598  0.57252  1.0000
  H   H4965     1.0  0.67715  0.51413  0.63158  1.0000
  C   C3108     1.0  0.70035  0.34270  0.71145  1.0000
  C   C3109     1.0  0.73693  0.61194  0.71112  1.0000
  H   H4966     1.0  0.73674  0.39951  0.66381  1.0000
  H   H4967     1.0  0.67419  0.48562  0.65270  1.0000
  H   H4968     1.0  0.69688  0.38094  0.72676  1.0000
  H   H4969     1.0  0.69813  0.32534  0.49677  1.0000
  C   C3110     1.0  0.70492  0.41135  0.52778  1.0000
  C   C3111     1.0  0.71494  0.41962  0.52663  1.0000
  C   C3112     1.0  0.71617  0.42369  0.53882  1.0000
  H   H4970     1.0  0.70401  0.40833  0.51830  1.0000
  H   H4971     1.0  0.72184  0.42279  0.51626  1.0000
  H   H4972     1.0  0.69568  0.55653  0.67062  1.0000
  S   S1255     1.0  0.67082  0.41717  0.69303  1.0000
  H   H4973     1.0  0.70426  0.61198  0.55077  1.0000
  C   C3113     1.0  0.69229  0.39222  0.72355  1.0000
  H   H4974     1.0  0.70575  0.40519  0.68239  1.0000
  C   C3114     1.0  0.71018  0.61999  0.55116  1.0000
  C   C3115     1.0  0.73428  0.33878  0.54478  1.0000
  C   C3116     1.0  0.74535  0.32799  0.54985  1.0000
  H   H4975     1.0  0.73370  0.61692  0.68372  1.0000
  H   H4976     1.0  0.68454  0.49765  0.65374  1.0000
  H   H4977     1.0  0.76606  0.36794  0.52910  1.0000
  H   H4978     1.0  0.72810  0.53043  0.65678  1.0000
  S   S1256     1.0  0.66058  0.56313  0.72607  1.0000
  C   C3117     1.0  0.76651  0.38130  0.71144  1.0000
  H   H4979     1.0  0.84390  0.32378  0.67014  1.0000
  H   H4980     1.0  0.75215  0.60966  0.68454  1.0000
  N   N309      1.0  0.70849  0.63286  0.53932  1.0000
  C   C3118     1.0  0.69308  0.63980  0.54040  1.0000
  H   H4981     1.0  0.68532  0.33346  0.58743  1.0000
  C   C3119     1.0  0.71638  0.64322  0.54042  1.0000
  H   H4982     1.0  0.76251  0.64401  0.60071  1.0000
  H   H4983     1.0  0.68150  0.50496  0.69519  1.0000
  C   C3120     1.0  0.68820  0.41678  0.72630  1.0000
  H   H4984     1.0  0.76113  0.32970  0.72628  1.0000
  H   H4985     1.0  0.66883  0.36686  0.71842  1.0000
  C   C3121     1.0  0.73334  0.33565  0.64673  1.0000
  C   C3122     1.0  0.67000  0.42219  0.58906  1.0000
  H   H4986     1.0  0.70192  0.54170  0.66168  1.0000
  H   H4987     1.0  0.69269  0.42236  0.63773  1.0000
  C   C3123     1.0  0.73789  0.64992  0.70849  1.0000
  H   H4988     1.0  0.69152  0.64961  0.53161  1.0000
  C   C3124     1.0  0.72071  0.55525  0.67749  1.0000
  S   S1257     1.0  0.67102  0.60060  0.66542  1.0000
  H   H4989     1.0  0.76540  0.49833  0.64342  1.0000
  N   N310      1.0  0.73722  0.60108  0.70306  1.0000
  H   H4990     1.0  0.73189  0.55698  0.67520  1.0000
  H   H4991     1.0  0.70458  0.33085  0.58189  1.0000
  C   C3125     1.0  0.67180  0.34909  0.70821  1.0000
  C   C3126     1.0  0.79114  0.63963  0.57272  1.0000
  H   H4992     1.0  0.82727  0.62363  0.66862  1.0000
  C   C3127     1.0  0.78107  0.35237  0.71563  1.0000
  C   C3128     1.0  0.81704  0.64258  0.68835  1.0000
  C   C3129     1.0  0.72080  0.55917  0.65216  1.0000
  H   H4993     1.0  0.75568  0.37363  0.62423  1.0000
  H   H4994     1.0  0.76072  0.39244  0.70982  1.0000
  S   S1258     1.0  0.66277  0.47099  0.63753  1.0000
  H   H4995     1.0  0.74489  0.58306  0.71915  1.0000
  H   H4996     1.0  0.67179  0.32371  0.57549  1.0000
  H   H4997     1.0  0.72754  0.52718  0.67584  1.0000
  C   C3130     1.0  0.82495  0.32494  0.71454  1.0000
  H   H4998     1.0  0.74787  0.33754  0.71532  1.0000
  H   H4999     1.0  0.75313  0.36007  0.54357  1.0000
  S   S1259     1.0  0.66375  0.34107  0.53137  1.0000
  Fe  Fe628     1.0  0.69595  0.37346  0.49806  1.0000
  S   S1260     1.0  0.70933  0.37833  0.51091  1.0000
  H   H5000     1.0  0.65961  0.51790  0.66941  1.0000
  C   C3131     1.0  0.68378  0.44003  0.58613  1.0000
  S   S1261     1.0  0.73140  0.34000  0.52756  1.0000
  C   C3132     1.0  0.67739  0.45823  0.63060  1.0000
  N   N311      1.0  0.84072  0.63369  0.64957  1.0000
  H   H5001     1.0  0.72603  0.62362  0.52385  1.0000
  H   H5002     1.0  0.70622  0.33018  0.55047  1.0000
  C   C3133     1.0  0.68129  0.32317  0.56635  1.0000
  Fe  Fe629     1.0  0.66590  0.55658  0.70455  1.0000
  C   C3134     1.0  0.74141  0.60686  0.68737  1.0000
  S   S1262     1.0  0.74366  0.64908  0.50877  1.0000
  C   C3135     1.0  0.82221  0.32142  0.67263  1.0000
  H   H5003     1.0  0.67325  0.52322  0.65408  1.0000
  H   H5004     1.0  0.71922  0.55484  0.64345  1.0000
  H   H5005     1.0  0.74605  0.37916  0.69120  1.0000
  C   C3136     1.0  0.74772  0.58773  0.70738  1.0000
  H   H5006     1.0  0.85726  0.62038  0.63667  1.0000
  H   H5007     1.0  0.77416  0.64185  0.72044  1.0000
  H   H5008     1.0  0.71957  0.59289  0.71806  1.0000
  C   C3137     1.0  0.66255  0.52022  0.65737  1.0000
  H   H5009     1.0  0.74208  0.59886  0.68094  1.0000
  C   C3138     1.0  0.68010  0.44391  0.63822  1.0000
  S   S1263     1.0  0.74184  0.33450  0.58981  1.0000
  C   C3139     1.0  0.72912  0.53520  0.66544  1.0000
  Fe  Fe630     1.0  0.67972  0.35559  0.52402  1.0000
  S   S1264     1.0  0.68330  0.39688  0.54283  1.0000
  C   C3140     1.0  0.73139  0.39033  0.66966  1.0000
  C   C3141     1.0  0.75273  0.39569  0.52909  1.0000
  C   C3142     1.0  0.73540  0.38504  0.54855  1.0000
  H   H5010     1.0  0.70809  0.42271  0.56163  1.0000
  H   H5011     1.0  0.73943  0.38021  0.66814  1.0000
  H   H5012     1.0  0.72122  0.35425  0.57417  1.0000
  H   H5013     1.0  0.70173  0.53881  0.68062  1.0000
  Fe  Fe631     1.0  0.67649  0.57759  0.71624  1.0000
  H   H5014     1.0  0.71153  0.40505  0.69828  1.0000
  H   H5015     1.0  0.67934  0.42293  0.61234  1.0000
  H   H5016     1.0  0.69002  0.40838  0.56358  1.0000
  H   H5017     1.0  0.74446  0.40555  0.52618  1.0000
  H   H5018     1.0  0.73445  0.37091  0.52895  1.0000
  C   C3143     1.0  0.69096  0.43351  0.63199  1.0000
  H   H5019     1.0  0.66713  0.48770  0.69511  1.0000
  H   H5020     1.0  0.71294  0.63786  0.51608  1.0000
  C   C3144     1.0  0.73803  0.38947  0.69187  1.0000
  H   H5021     1.0  0.67367  0.34954  0.50041  1.0000
  C   C3145     1.0  0.69941  0.43750  0.61827  1.0000
  H   H5022     1.0  0.74773  0.61450  0.70905  1.0000
  C   C3146     1.0  0.74907  0.33088  0.66334  1.0000
  S   S1265     1.0  0.68329  0.56943  0.69569  1.0000
  C   C3147     1.0  0.68612  0.46229  0.61706  1.0000
  Fe  Fe632     1.0  0.78765  0.34077  0.66441  1.0000
  S   S1266     1.0  0.69992  0.34979  0.50790  1.0000
  H   H5023     1.0  0.76110  0.39442  0.51910  1.0000
  H   H5024     1.0  0.72019  0.41378  0.68093  1.0000
  C   C3148     1.0  0.71888  0.37821  0.69238  1.0000
  H   H5025     1.0  0.71325  0.56590  0.67806  1.0000
  C   C3149     1.0  0.76865  0.64104  0.59025  1.0000
  N   N312      1.0  0.75662  0.36550  0.60567  1.0000
  C   C3150     1.0  0.75386  0.35129  0.61420  1.0000
  C   C3151     1.0  0.75053  0.37638  0.61477  1.0000
  C   C3152     1.0  0.74977  0.36978  0.59305  1.0000
  S   S1267     1.0  0.67387  0.53401  0.69955  1.0000
  H   H5026     1.0  0.75848  0.34790  0.62406  1.0000
  H   H5027     1.0  0.75853  0.34275  0.60777  1.0000
  C   C3153     1.0  0.67362  0.49520  0.65701  1.0000
  N   N313      1.0  0.71863  0.54899  0.66628  1.0000
  H   H5028     1.0  0.66682  0.57245  0.66632  1.0000
  C   C3154     1.0  0.73673  0.32092  0.64644  1.0000
  H   H5029     1.0  0.75400  0.36166  0.58608  1.0000
  N   N314      1.0  0.75226  0.54106  0.54031  1.0000
  C   C3155     1.0  0.75419  0.55094  0.52597  1.0000
  C   C3156     1.0  0.74215  0.53200  0.54113  1.0000
  C   C3157     1.0  0.74641  0.54963  0.55166  1.0000
  C   C3158     1.0  0.76630  0.53167  0.54250  1.0000
  H   H5030     1.0  0.76170  0.55799  0.52506  1.0000
  H   H5031     1.0  0.74380  0.55816  0.52392  1.0000
  H   H5032     1.0  0.75868  0.54487  0.51711  1.0000
  H   H5033     1.0  0.74069  0.52423  0.55173  1.0000
  H   H5034     1.0  0.73133  0.53865  0.53984  1.0000
  H   H5035     1.0  0.74613  0.52548  0.53262  1.0000
  H   H5036     1.0  0.74419  0.54259  0.56257  1.0000
  H   H5037     1.0  0.73612  0.55731  0.55003  1.0000
  H   H5038     1.0  0.75412  0.55599  0.55188  1.0000
  H   H5039     1.0  0.76520  0.52398  0.55314  1.0000
  H   H5040     1.0  0.77414  0.53808  0.54225  1.0000
  H   H5041     1.0  0.77109  0.52512  0.53406  1.0000
  C   C3159     1.0  0.68471  0.39701  0.71237  1.0000
  C   C3160     1.0  0.75116  0.64867  0.72651  1.0000
  H   H5042     1.0  0.83311  0.33074  0.70678  1.0000
  H   H5043     1.0  0.73878  0.37711  0.61913  1.0000
  H   H5044     1.0  0.74036  0.53674  0.66299  1.0000
  H   H5045     1.0  0.74212  0.35157  0.61779  1.0000
  H   H5046     1.0  0.77778  0.36157  0.60991  1.0000
  H   H5047     1.0  0.68473  0.44272  0.57420  1.0000
  C   C3161     1.0  0.72279  0.59778  0.70641  1.0000
  C   C3162     1.0  0.74765  0.32654  0.56371  1.0000
  H   H5048     1.0  0.65924  0.39697  0.68657  1.0000
  H   H5049     1.0  0.70890  0.62038  0.52416  1.0000
  H   H5050     1.0  0.67100  0.49194  0.66899  1.0000
  C   C3163     1.0  0.75765  0.36998  0.53888  1.0000
  H   H5051     1.0  0.72257  0.39094  0.66427  1.0000
  H   H5052     1.0  0.80976  0.64350  0.68156  1.0000
  N   N315      1.0  0.74632  0.38281  0.53529  1.0000
  H   H5053     1.0  0.68679  0.63237  0.53944  1.0000
  H   H5054     1.0  0.73055  0.37546  0.55374  1.0000
  C   C3164     1.0  0.72797  0.34690  0.56739  1.0000
  H   H5055     1.0  0.78640  0.34110  0.71712  1.0000
  C   C3165     1.0  0.67895  0.41173  0.70801  1.0000
  C   C3166     1.0  0.69590  0.40730  0.54110  1.0000
  H   H5056     1.0  0.82171  0.64573  0.64162  1.0000
  C   C3167     1.0  0.69726  0.45198  0.61102  1.0000
  H   H5057     1.0  0.71704  0.35669  0.54971  1.0000
  H   H5058     1.0  0.70346  0.32528  0.70084  1.0000
  Fe  Fe633     1.0  0.68870  0.38180  0.52742  1.0000
  C   C3168     1.0  0.70388  0.54636  0.66996  1.0000
  Fe  Fe634     1.0  0.71113  0.35509  0.52218  1.0000
  Fe  Fe635     1.0  0.75010  0.63038  0.49770  1.0000
  H   H5059     1.0  0.68425  0.47340  0.61120  1.0000
  H   H5060     1.0  0.79005  0.35704  0.69271  1.0000
  N   N316      1.0  0.77538  0.50489  0.62107  1.0000
  C   C3169     1.0  0.78848  0.49341  0.62212  1.0000
  C   C3170     1.0  0.76533  0.50001  0.61553  1.0000
  C   C3171     1.0  0.77935  0.51808  0.61108  1.0000
  C   C3172     1.0  0.76837  0.50807  0.63551  1.0000
  H   H5061     1.0  0.79629  0.49673  0.62627  1.0000
  H   H5062     1.0  0.79402  0.49081  0.61136  1.0000
  H   H5063     1.0  0.78589  0.48326  0.62953  1.0000
  H   H5064     1.0  0.76208  0.49007  0.62276  1.0000
  H   H5065     1.0  0.75535  0.50845  0.61449  1.0000
  H   H5066     1.0  0.77024  0.49763  0.60458  1.0000
  H   H5067     1.0  0.76971  0.52693  0.61007  1.0000
  H   H5068     1.0  0.78452  0.51619  0.60000  1.0000
  H   H5069     1.0  0.78683  0.52216  0.61494  1.0000
  H   H5070     1.0  0.75838  0.51660  0.63508  1.0000
  H   H5071     1.0  0.77552  0.51213  0.63985  1.0000
  H   H5072     1.0  0.71303  0.56971  0.65241  1.0000
  H   H5073     1.0  0.77732  0.35623  0.59396  1.0000
  C   C3173     1.0  0.72555  0.34825  0.55358  1.0000
  S   S1268     1.0  0.81031  0.62811  0.62992  1.0000
  H   H5074     1.0  0.81966  0.33094  0.66442  1.0000
  H   H5075     1.0  0.71221  0.64681  0.55087  1.0000
  C   C3174     1.0  0.73944  0.38053  0.52465  1.0000
  H   H5076     1.0  0.73080  0.38999  0.52170  1.0000
  C   C3175     1.0  0.77230  0.36452  0.60065  1.0000
  C   C3176     1.0  0.66312  0.52212  0.69946  1.0000
  C   C3177     1.0  0.70709  0.41972  0.55216  1.0000
  Fe  Fe636     1.0  0.66599  0.58734  0.68787  1.0000
  H   H5077     1.0  0.65999  0.42731  0.61586  1.0000
  C   C3178     1.0  0.71539  0.40423  0.68674  1.0000
  C   C3179     1.0  0.68054  0.42164  0.71507  1.0000
  C   C3180     1.0  0.79107  0.63508  0.59816  1.0000
  C   C3181     1.0  0.71433  0.62847  0.52526  1.0000
  H   H5078     1.0  0.73185  0.56136  0.64898  1.0000
  H   H5079     1.0  0.71487  0.37787  0.70414  1.0000
  H   H5080     1.0  0.82666  0.61950  0.65213  1.0000
  H   H5081     1.0  0.74831  0.57935  0.70141  1.0000
  H   H5082     1.0  0.76648  0.33682  0.70725  1.0000
  S   S1269     1.0  0.66059  0.59669  0.70756  1.0000
  H   H5083     1.0  0.67553  0.60818  0.72430  1.0000
  C   C3182     1.0  0.85057  0.63569  0.65755  1.0000
  C   C3183     1.0  0.83539  0.64073  0.70646  1.0000
  S   S1270     1.0  0.67498  0.37910  0.51364  1.0000
  H   H5084     1.0  0.67029  0.42465  0.57724  1.0000
  C   C3184     1.0  0.69060  0.35452  0.71623  1.0000
  C   C3185     1.0  0.78833  0.65178  0.63114  1.0000
  H   H5085     1.0  0.66981  0.44097  0.61361  1.0000
  C   C3186     1.0  0.67637  0.35785  0.71445  1.0000
  H   H5086     1.0  0.68828  0.64324  0.55088  1.0000
  H   H5087     1.0  0.79227  0.62793  0.57333  1.0000
  H   H5088     1.0  0.72170  0.61445  0.55048  1.0000
  H   H5089     1.0  0.78548  0.63792  0.60880  1.0000
  H   H5090     1.0  0.78288  0.64529  0.64066  1.0000
  C   C3187     1.0  0.69593  0.33432  0.70468  1.0000
  N   N317      1.0  0.78336  0.64374  0.58662  1.0000
  N   N318      1.0  0.66275  0.50768  0.65166  1.0000
  H   H5091     1.0  0.65799  0.44985  0.57894  1.0000
  N   N319      1.0  0.67035  0.43507  0.59388  1.0000
  H   H5092     1.0  0.84161  0.62905  0.62914  1.0000
  C   C3188     1.0  0.84887  0.63050  0.63539  1.0000
  C   C3189     1.0  0.76386  0.64263  0.70340  1.0000
  H   H5093     1.0  0.73347  0.60811  0.72299  1.0000
  C   C3190     1.0  0.66180  0.49847  0.69668  1.0000
  C   C3191     1.0  0.77134  0.35773  0.72719  1.0000
  H   H5094     1.0  0.66008  0.41803  0.59478  1.0000
  S   S1271     1.0  0.73241  0.63809  0.48514  1.0000
  C   C3192     1.0  0.80198  0.64599  0.62376  1.0000
  H   H5095     1.0  0.75423  0.33477  0.66945  1.0000
  H   H5096     1.0  0.84437  0.32858  0.72725  1.0000
  H   H5097     1.0  0.81944  0.65001  0.60565  1.0000
  C   C3193     1.0  0.66991  0.50825  0.69684  1.0000
  S   S1272     1.0  0.75045  0.64212  0.68254  1.0000
  H   H5098     1.0  0.77386  0.63908  0.69626  1.0000
  C   C3194     1.0  0.69449  0.33254  0.57800  1.0000
  H   H5099     1.0  0.72246  0.58993  0.70024  1.0000
  H   H5100     1.0  0.79189  0.62332  0.59946  1.0000
  H   H5101     1.0  0.69344  0.43161  0.58850  1.0000
  H   H5102     1.0  0.69399  0.36103  0.72138  1.0000
  C   C3195     1.0  0.70709  0.31999  0.55878  1.0000
  C   C3196     1.0  0.75077  0.64535  0.69913  1.0000
  H   H5103     1.0  0.67959  0.33349  0.55824  1.0000
  H   H5104     1.0  0.80663  0.34727  0.72505  1.0000
  C   C3197     1.0  0.81691  0.34320  0.72889  1.0000
  C   C3198     1.0  0.69417  0.40205  0.73045  1.0000
  H   H5105     1.0  0.66668  0.50193  0.63110  1.0000
  C   C3199     1.0  0.66463  0.33757  0.49097  1.0000
  N   N320      1.0  0.69484  0.32064  0.57128  1.0000
  H   H5106     1.0  0.76251  0.64745  0.58179  1.0000
  H   H5107     1.0  0.78542  0.64577  0.56385  1.0000
  H   H5108     1.0  0.81493  0.32850  0.71020  1.0000
  C   C3200     1.0  0.76406  0.64434  0.71705  1.0000
  C   C3201     1.0  0.65787  0.44672  0.59073  1.0000
  H   H5109     1.0  0.84478  0.63769  0.66847  1.0000
  N   N321      1.0  0.82235  0.32759  0.72925  1.0000
  H   H5110     1.0  0.82473  0.34964  0.72149  1.0000
  H   H5111     1.0  0.85429  0.63939  0.62872  1.0000
  C   C3202     1.0  0.73808  0.65146  0.72222  1.0000
  S   S1273     1.0  0.73131  0.36409  0.72866  1.0000
  H   H5112     1.0  0.75215  0.32065  0.54308  1.0000
  C   C3203     1.0  0.82952  0.64700  0.64730  1.0000
  H   H5113     1.0  0.68983  0.32131  0.52346  1.0000
  H   H5114     1.0  0.85567  0.64503  0.65173  1.0000
  H   H5115     1.0  0.82324  0.64986  0.65772  1.0000
  H   H5116     1.0  0.65836  0.52054  0.63124  1.0000
  H   H5117     1.0  0.65788  0.45658  0.59428  1.0000
  H   H5118     1.0  0.71570  0.31885  0.51294  1.0000
  Fe  Fe637     1.0  0.71402  0.37208  0.74652  1.0000
  C   C3204     1.0  0.78272  0.64835  0.78732  1.0000
  H   H5119     1.0  0.80106  0.32316  0.73578  1.0000
  H   H5120     1.0  0.75998  0.62513  0.80110  1.0000
  C   C3205     1.0  0.69973  0.60432  0.75112  1.0000
  S   S1274     1.0  0.70121  0.35533  0.74954  1.0000
  S   S1275     1.0  0.70449  0.32987  0.78680  1.0000
  H   H5121     1.0  0.75685  0.63870  0.77715  1.0000
  S   S1276     1.0  0.68694  0.63160  0.75682  1.0000
  Fe  Fe638     1.0  0.70304  0.63640  0.76689  1.0000
  H   H5122     1.0  0.77582  0.63540  0.77008  1.0000
  C   C3206     1.0  0.71881  0.64718  0.81887  1.0000
  Fe  Fe639     1.0  0.72029  0.63298  0.78984  1.0000
  C   C3207     1.0  0.83598  0.32276  0.73445  1.0000
  S   S1277     1.0  0.73024  0.62192  0.80920  1.0000
  H   H5123     1.0  0.78484  0.64885  0.79775  1.0000
  H   H5124     1.0  0.66487  0.60059  0.76168  1.0000
  C   C3208     1.0  0.68978  0.61723  0.74803  1.0000
  H   H5125     1.0  0.75091  0.33251  0.77126  1.0000
  S   S1278     1.0  0.69690  0.64160  0.78914  1.0000
  S   S1279     1.0  0.72592  0.62556  0.76878  1.0000
  Fe  Fe640     1.0  0.71949  0.34645  0.73296  1.0000
  H   H5126     1.0  0.76703  0.32338  0.80976  1.0000
  H   H5127     1.0  0.89333  0.65020  0.76800  1.0000
  S   S1280     1.0  0.76621  0.34588  0.74345  1.0000
  Fe  Fe641     1.0  0.71477  0.34216  0.76548  1.0000
  H   H5128     1.0  0.66318  0.58721  0.74416  1.0000
  S   S1281     1.0  0.72604  0.35968  0.76408  1.0000
  H   H5129     1.0  0.74854  0.32305  0.81098  1.0000
  H   H5130     1.0  0.74484  0.34808  0.79601  1.0000
  C   C3209     1.0  0.81160  0.31951  0.73913  1.0000
  H   H5131     1.0  0.75655  0.37637  0.73403  1.0000
  C   C3210     1.0  0.75964  0.32104  0.80428  1.0000
  H   H5132     1.0  0.69280  0.32242  0.76639  1.0000
  H   H5133     1.0  0.81484  0.34558  0.73981  1.0000
  S   S1282     1.0  0.73191  0.33166  0.74917  1.0000
  H   H5134     1.0  0.70644  0.60317  0.75864  1.0000
  H   H5135     1.0  0.67340  0.62851  0.73582  1.0000
  N   N322      1.0  0.76037  0.32980  0.78940  1.0000
  C   C3211     1.0  0.74026  0.64310  0.83427  1.0000
  C   C3212     1.0  0.73993  0.63229  0.82748  1.0000
  C   C3213     1.0  0.72940  0.63447  0.81946  1.0000
  C   C3214     1.0  0.75050  0.32622  0.78255  1.0000
  C   C3215     1.0  0.75606  0.34531  0.78978  1.0000
  H   H5136     1.0  0.74853  0.64147  0.84024  1.0000
  H   H5137     1.0  0.74799  0.62236  0.82822  1.0000
  S   S1283     1.0  0.70448  0.39587  0.74383  1.0000
  H   H5138     1.0  0.66961  0.32065  0.76248  1.0000
  H   H5139     1.0  0.73914  0.32860  0.78858  1.0000
  H   H5140     1.0  0.77631  0.33329  0.76975  1.0000
  C   C3216     1.0  0.70063  0.59267  0.74488  1.0000
  H   H5141     1.0  0.70814  0.58261  0.74758  1.0000
  Fe  Fe642     1.0  0.74219  0.35017  0.74645  1.0000
  H   H5142     1.0  0.79210  0.64084  0.78222  1.0000
  H   H5143     1.0  0.77912  0.62108  0.79483  1.0000
  H   H5144     1.0  0.75650  0.35216  0.77867  1.0000
  S   S1284     1.0  0.75155  0.65044  0.74368  1.0000
  H   H5145     1.0  0.68884  0.32741  0.74152  1.0000
  H   H5146     1.0  0.83446  0.32447  0.74557  1.0000
  H   H5147     1.0  0.80969  0.32093  0.75042  1.0000
  C   C3217     1.0  0.68106  0.61852  0.73834  1.0000
  C   C3218     1.0  0.76997  0.62918  0.79936  1.0000
  Fe  Fe643     1.0  0.73066  0.64759  0.75905  1.0000
  H   H5148     1.0  0.76325  0.34844  0.79488  1.0000
  H   H5149     1.0  0.77136  0.62941  0.81018  1.0000
  H   H5150     1.0  0.71053  0.64888  0.81289  1.0000
  C   C3219     1.0  0.69174  0.59390  0.73537  1.0000
  C   C3220     1.0  0.77526  0.32666  0.78094  1.0000
  H   H5151     1.0  0.78304  0.32883  0.78607  1.0000
  C   C3221     1.0  0.76674  0.64282  0.77566  1.0000
  N   N323      1.0  0.76914  0.64360  0.78965  1.0000
  C   C3222     1.0  0.68215  0.60698  0.73190  1.0000
  H   H5152     1.0  0.74669  0.65075  0.79832  1.0000
  H   H5153     1.0  0.68962  0.42444  0.73165  1.0000
  H   H5154     1.0  0.78256  0.65140  0.91426  1.0000
  N   N324      1.0  0.78576  0.95989  0.12468  1.0000
  Fe  Fe644     1.0  0.89164  0.79806  0.07696  1.0000
  S   S1285     1.0  0.91292  0.78282  0.07274  1.0000
  S   S1286     1.0  0.87358  0.80160  0.06521  1.0000
  Fe  Fe645     1.0  0.89896  0.80618  0.10173  1.0000
  S   S1287     1.0  0.92036  0.79084  0.09997  1.0000
  S   S1288     1.0  0.89234  0.82141  0.11713  1.0000
  Fe  Fe646     1.0  0.92283  0.79947  0.07621  1.0000
  Fe  Fe647     1.0  0.90882  0.77555  0.09686  1.0000
  S   S1289     1.0  0.91572  0.75176  0.10509  1.0000
  S   S1290     1.0  0.90185  0.81573  0.07792  1.0000
  S   S1291     1.0  0.88697  0.78991  0.10107  1.0000
  Fe  Fe648     1.0  0.84811  0.72495  0.15629  1.0000
  S   S1292     1.0  0.83638  0.74795  0.15101  1.0000
  S   S1293     1.0  0.87167  0.71597  0.14941  1.0000
  S   S1294     1.0  0.73000  0.80257  0.11938  1.0000
  S   S1295     1.0  0.80683  0.73623  0.16962  1.0000
  Fe  Fe649     1.0  0.81982  0.73861  0.14689  1.0000
  S   S1296     1.0  0.81043  0.74606  0.12700  1.0000
  Fe  Fe650     1.0  0.82467  0.74320  0.17427  1.0000
  S   S1297     1.0  0.82048  0.75699  0.19042  1.0000
  H   H5155     1.0  0.72250  0.82592  0.06584  1.0000
  S   S1298     1.0  0.83754  0.72075  0.17980  1.0000
  H   H5156     1.0  0.96689  0.91596  0.11406  1.0000
  S   S1299     1.0  0.88792  0.80698  0.19668  1.0000
  Fe  Fe651     1.0  0.96920  0.85797  0.14734  1.0000
  S   S1300     1.0  0.95727  0.85870  0.13051  1.0000
  H   H5157     1.0  0.72909  0.67174  0.13229  1.0000
  Fe  Fe652     1.0  0.94227  0.85855  0.17072  1.0000
  S   S1301     1.0  0.92793  0.85914  0.15619  1.0000
  S   S1302     1.0  0.93382  0.85770  0.19432  1.0000
  Fe  Fe653     1.0  0.94615  0.84261  0.14724  1.0000
  S   S1303     1.0  0.94510  0.82244  0.14142  1.0000
  Fe  Fe654     1.0  0.94019  0.87524  0.14077  1.0000
  S   S1304     1.0  0.92933  0.89441  0.12627  1.0000
  S   S1305     1.0  0.95943  0.84045  0.16326  1.0000
  S   S1306     1.0  0.95311  0.87618  0.15606  1.0000
  Fe  Fe655     1.0  0.82297  0.95092  0.15218  1.0000
  S   S1307     1.0  0.83955  0.93509  0.14057  1.0000
  S   S1308     1.0  0.80113  0.94731  0.16507  1.0000
  H   H5158     1.0  0.70155  0.67390  0.15988  1.0000
  S   S1309     1.0  0.86002  0.95952  0.13005  1.0000
  C   C3223     1.0  0.85890  0.80896  0.17272  1.0000
  Fe  Fe656     1.0  0.84278  0.95429  0.12249  1.0000
  S   S1310     1.0  0.84210  0.95708  0.09919  1.0000
  Fe  Fe657     1.0  0.85515  0.94159  0.14931  1.0000
  S   S1311     1.0  0.87008  0.92402  0.16167  1.0000
  Fe  Fe658     1.0  0.84177  0.97367  0.14242  1.0000
  S   S1312     1.0  0.83816  0.95627  0.16235  1.0000
  Fe  Fe659     1.0  0.73266  0.81779  0.13130  1.0000
  H   H5159     1.0  0.67788  0.66199  0.19513  1.0000
  Fe  Fe660     1.0  0.66552  0.81469  0.07328  1.0000
  S   S1313     1.0  0.68125  0.81023  0.08735  1.0000
  S   S1314     1.0  0.66739  0.83476  0.05594  1.0000
  S   S1315     1.0  0.75229  0.86023  0.02173  1.0000
  C   C3224     1.0  0.83412  0.86216  0.19441  1.0000
  H   H5160     1.0  0.82749  0.69296  0.13766  1.0000
  H   H5161     1.0  0.89396  0.88569  0.19308  1.0000
  Fe  Fe661     1.0  0.68687  0.78820  0.08298  1.0000
  S   S1316     1.0  0.71032  0.77859  0.07820  1.0000
  S   S1317     1.0  0.83620  0.72869  0.99381  1.0000
  S   S1318     1.0  0.67206  0.79272  0.06787  1.0000
  S   S1319     1.0  0.73337  0.82918  0.02673  1.0000
  Fe  Fe662     1.0  0.74829  0.68498  0.13699  1.0000
  S   S1320     1.0  0.72984  0.70408  0.13811  1.0000
  H   H5162     1.0  0.69869  0.86067  0.00245  1.0000
  Fe  Fe663     1.0  0.76702  0.70145  0.11103  1.0000
  S   S1321     1.0  0.74978  0.72148  0.10988  1.0000
  S   S1322     1.0  0.78899  0.70277  0.09689  1.0000
  Fe  Fe664     1.0  0.74682  0.71690  0.13386  1.0000
  S   S1323     1.0  0.74755  0.73406  0.14461  1.0000
  Fe  Fe665     1.0  0.73489  0.70648  0.11405  1.0000
  S   S1324     1.0  0.71802  0.71169  0.10110  1.0000
  S   S1325     1.0  0.76479  0.69756  0.13499  1.0000
  S   S1326     1.0  0.75244  0.68664  0.11301  1.0000
  S   S1327     1.0  0.79012  0.75872  0.04666  1.0000
  H   H5163     1.0  0.92417  0.84544  0.22421  1.0000
  H   H5164     1.0  0.80400  0.68540  0.12629  1.0000
  Fe  Fe666     1.0  0.77286  0.93339  0.05467  1.0000
  S   S1328     1.0  0.77783  0.92599  0.03361  1.0000
  Fe  Fe667     1.0  0.78384  0.93114  0.08151  1.0000
  S   S1329     1.0  0.80012  0.92039  0.09544  1.0000
  Fe  Fe668     1.0  0.75261  0.93055  0.08395  1.0000
  S   S1330     1.0  0.73350  0.92242  0.09887  1.0000
  S   S1331     1.0  0.77350  0.91670  0.07525  1.0000
  H   H5165     1.0  0.88378  0.75362  0.05334  1.0000
  H   H5166     1.0  0.83549  0.86406  0.18279  1.0000
  H   H5167     1.0  0.78989  0.71351  0.14830  1.0000
  H   H5168     1.0  0.79636  0.67446  0.15155  1.0000
  C   C3225     1.0  0.81969  0.68657  0.14520  1.0000
  H   H5169     1.0  0.80531  0.90315  0.14826  1.0000
  S   S1332     1.0  0.75378  0.81841  0.13510  1.0000
  C   C3226     1.0  0.73804  0.90350  0.10250  1.0000
  C   C3227     1.0  0.73318  0.89553  0.11628  1.0000
  C   C3228     1.0  0.73902  0.88068  0.11997  1.0000
  C   C3229     1.0  0.74991  0.87397  0.10997  1.0000
  C   C3230     1.0  0.75408  0.88176  0.09595  1.0000
  C   C3231     1.0  0.74794  0.89645  0.09215  1.0000
  H   H5170     1.0  0.72541  0.90092  0.12428  1.0000
  H   H5171     1.0  0.73568  0.87463  0.13079  1.0000
  H   H5172     1.0  0.76231  0.87652  0.08813  1.0000
  H   H5173     1.0  0.75110  0.90241  0.08128  1.0000
  C   C3232     1.0  0.83043  0.85723  0.22446  1.0000
  H   H5174     1.0  0.66603  0.72159  0.12826  1.0000
  H   H5175     1.0  0.90449  0.85001  0.18293  1.0000
  H   H5176     1.0  0.94435  0.80422  0.09291  1.0000
  H   H5177     1.0  0.68977  0.66183  0.16946  1.0000
  H   H5178     1.0  0.87045  0.87901  0.20457  1.0000
  C   C3233     1.0  0.78913  0.71856  0.08323  1.0000
  C   C3234     1.0  0.77674  0.72597  0.07792  1.0000
  C   C3235     1.0  0.77707  0.73842  0.06686  1.0000
  C   C3236     1.0  0.78988  0.74338  0.06084  1.0000
  C   C3237     1.0  0.80232  0.73593  0.06602  1.0000
  C   C3238     1.0  0.80194  0.72356  0.07721  1.0000
  H   H5179     1.0  0.76698  0.72186  0.08200  1.0000
  H   H5180     1.0  0.76746  0.74398  0.06274  1.0000
  H   H5181     1.0  0.81221  0.73978  0.06155  1.0000
  H   H5182     1.0  0.81158  0.71786  0.08122  1.0000
  C   C3239     1.0  0.80298  0.69586  0.12921  1.0000
  Fe  Fe669     1.0  0.81190  0.75916  0.03179  1.0000
  C   C3240     1.0  0.87681  0.76423  0.05269  1.0000
  Fe  Fe670     1.0  0.77552  0.87888  0.19037  1.0000
  H   H5183     1.0  0.84973  0.82474  0.14877  1.0000
  C   C3241     1.0  0.75647  0.90900  0.01442  1.0000
  H   H5184     1.0  0.77565  0.91765  0.00849  1.0000
  H   H5185     1.0  0.78958  0.78433  0.02133  1.0000
  H   H5186     1.0  0.86656  0.74345  0.21129  1.0000
  C   C3242     1.0  0.74200  0.91072  0.03828  1.0000
  C   C3243     1.0  0.75211  0.91692  0.04091  1.0000
  C   C3244     1.0  0.76435  0.91934  0.03024  1.0000
  C   C3245     1.0  0.76634  0.91559  0.01690  1.0000
  H   H5187     1.0  0.73254  0.90892  0.04656  1.0000
  H   H5188     1.0  0.75046  0.91974  0.05124  1.0000
  S   S1333     1.0  0.76298  0.94346  0.09212  1.0000
  C   C3246     1.0  0.71175  0.76011  0.08476  1.0000
  C   C3247     1.0  0.71020  0.75154  0.07621  1.0000
  C   C3248     1.0  0.71172  0.73661  0.08140  1.0000
  C   C3249     1.0  0.71482  0.73036  0.09508  1.0000
  C   C3250     1.0  0.71592  0.73901  0.10379  1.0000
  C   C3251     1.0  0.71431  0.75392  0.09865  1.0000
  H   H5189     1.0  0.70806  0.75641  0.06552  1.0000
  H   H5190     1.0  0.71092  0.72988  0.07467  1.0000
  H   H5191     1.0  0.71803  0.73419  0.11449  1.0000
  H   H5192     1.0  0.71513  0.76063  0.10539  1.0000
  H   H5193     1.0  0.73684  0.96735  0.09608  1.0000
  H   H5194     1.0  0.69844  0.69012  0.19094  1.0000
  C   C3252     1.0  0.70681  0.79367  0.11753  1.0000
  H   H5195     1.0  0.69515  0.84612  0.09992  1.0000
  H   H5196     1.0  0.81111  0.70150  0.12117  1.0000
  C   C3253     1.0  0.86503  0.76754  0.04599  1.0000
  H   H5197     1.0  0.68860  0.78728  0.11534  1.0000
  H   H5198     1.0  0.71443  0.78607  0.11155  1.0000
  C   C3254     1.0  0.87073  0.73365  0.20655  1.0000
  C   C3255     1.0  0.68555  0.83334  0.04709  1.0000
  C   C3256     1.0  0.69052  0.84545  0.03801  1.0000
  C   C3257     1.0  0.70526  0.84437  0.03174  1.0000
  C   C3258     1.0  0.71494  0.83113  0.03434  1.0000
  C   C3259     1.0  0.70992  0.81906  0.04325  1.0000
  C   C3260     1.0  0.69532  0.82019  0.04963  1.0000
  H   H5199     1.0  0.68304  0.85571  0.03615  1.0000
  H   H5200     1.0  0.70910  0.85382  0.02513  1.0000
  H   H5201     1.0  0.71732  0.80877  0.04531  1.0000
  H   H5202     1.0  0.69168  0.81076  0.05651  1.0000
  C   C3261     1.0  0.76713  0.82054  0.20552  1.0000
  C   C3262     1.0  0.76579  0.82861  0.19166  1.0000
  C   C3263     1.0  0.75975  0.82358  0.18300  1.0000
  C   C3264     1.0  0.75502  0.81056  0.18830  1.0000
  C   C3265     1.0  0.75596  0.80281  0.20230  1.0000
  C   C3266     1.0  0.76197  0.80781  0.21090  1.0000
  H   H5203     1.0  0.72721  0.84343  0.08504  1.0000
  H   H5204     1.0  0.88708  0.79793  0.16364  1.0000
  H   H5205     1.0  0.77150  0.79739  0.00655  1.0000
  H   H5206     1.0  0.67812  0.70486  0.10387  1.0000
  H   H5207     1.0  0.72510  0.81897  0.08417  1.0000
  Fe  Fe671     1.0  0.84365  0.75791  0.02725  1.0000
  H   H5208     1.0  0.70970  0.81688  0.07921  1.0000
  C   C3267     1.0  0.66197  0.80905  0.17057  1.0000
  C   C3268     1.0  0.81095  0.82844  0.00712  1.0000
  Fe  Fe672     1.0  0.74104  0.88075  0.00940  1.0000
  C   C3269     1.0  0.81250  0.93031  0.09543  1.0000
  C   C3270     1.0  0.81324  0.94370  0.08603  1.0000
  C   C3271     1.0  0.82282  0.95166  0.08678  1.0000
  C   C3272     1.0  0.83151  0.94631  0.09706  1.0000
  C   C3273     1.0  0.83085  0.93285  0.10632  1.0000
  C   C3274     1.0  0.82143  0.92483  0.10544  1.0000
  H   H5209     1.0  0.80641  0.94795  0.07822  1.0000
  H   H5210     1.0  0.82326  0.96209  0.07962  1.0000
  H   H5211     1.0  0.83769  0.92856  0.11409  1.0000
  H   H5212     1.0  0.82096  0.91444  0.11267  1.0000
  C   C3275     1.0  0.79588  0.93161  0.16495  1.0000
  C   C3276     1.0  0.78362  0.92800  0.17488  1.0000
  C   C3277     1.0  0.77933  0.91535  0.17543  1.0000
  C   C3278     1.0  0.78723  0.90624  0.16601  1.0000
  C   C3279     1.0  0.79922  0.91010  0.15567  1.0000
  C   C3280     1.0  0.80362  0.92270  0.15523  1.0000
  H   H5213     1.0  0.77745  0.93494  0.18229  1.0000
  H   H5214     1.0  0.76973  0.91278  0.18302  1.0000
  Fe  Fe673     1.0  0.77368  0.84989  0.21114  1.0000
  H   H5215     1.0  0.81303  0.92542  0.14743  1.0000
  C   C3281     1.0  0.91292  0.90288  0.13598  1.0000
  C   C3282     1.0  0.90299  0.91325  0.12864  1.0000
  C   C3283     1.0  0.88979  0.91988  0.13640  1.0000
  C   C3284     1.0  0.88657  0.91622  0.15152  1.0000
  C   C3285     1.0  0.89657  0.90598  0.15882  1.0000
  C   C3286     1.0  0.90967  0.89927  0.15110  1.0000
  H   H5216     1.0  0.90546  0.91611  0.11696  1.0000
  H   H5217     1.0  0.88214  0.92779  0.13067  1.0000
  H   H5218     1.0  0.89426  0.90342  0.17049  1.0000
  H   H5219     1.0  0.91736  0.89149  0.15686  1.0000
  C   C3287     1.0  0.91798  0.81609  0.21659  1.0000
  C   C3288     1.0  0.92245  0.81936  0.20153  1.0000
  C   C3289     1.0  0.92786  0.83188  0.19467  1.0000
  C   C3290     1.0  0.92835  0.84137  0.20283  1.0000
  C   C3291     1.0  0.92376  0.83815  0.21787  1.0000
  C   C3292     1.0  0.66006  0.72385  0.11947  1.0000
  H   H5220     1.0  0.92195  0.81208  0.19521  1.0000
  H   H5221     1.0  0.93137  0.83428  0.18305  1.0000
  H   H5222     1.0  0.78683  0.97757  0.13310  1.0000
  S   S1334     1.0  0.91155  0.80033  0.22533  1.0000
  C   C3293     1.0  0.83619  0.76256  0.18956  1.0000
  C   C3294     1.0  0.83671  0.76950  0.20005  1.0000
  C   C3295     1.0  0.84946  0.77336  0.19981  1.0000
  C   C3296     1.0  0.86169  0.77038  0.18908  1.0000
  C   C3297     1.0  0.86116  0.76352  0.17852  1.0000
  C   C3298     1.0  0.84847  0.75948  0.17887  1.0000
  H   H5223     1.0  0.82740  0.77161  0.20857  1.0000
  H   H5224     1.0  0.84987  0.77834  0.20814  1.0000
  H   H5225     1.0  0.87064  0.76107  0.17024  1.0000
  H   H5226     1.0  0.84832  0.75382  0.17093  1.0000
  C   C3299     1.0  0.79270  0.74350  0.13147  1.0000
  C   C3300     1.0  0.78345  0.74670  0.14426  1.0000
  C   C3301     1.0  0.76964  0.74368  0.14831  1.0000
  C   C3302     1.0  0.76502  0.73741  0.13963  1.0000
  C   C3303     1.0  0.77436  0.73399  0.12694  1.0000
  C   C3304     1.0  0.78810  0.73722  0.12275  1.0000
  H   H5227     1.0  0.78689  0.75162  0.15101  1.0000
  H   H5228     1.0  0.76267  0.74589  0.15834  1.0000
  H   H5229     1.0  0.77104  0.72885  0.12031  1.0000
  H   H5230     1.0  0.79531  0.73445  0.11298  1.0000
  C   C3305     1.0  0.90628  0.82139  0.12521  1.0000
  C   C3306     1.0  0.90660  0.83380  0.12948  1.0000
  C   C3307     1.0  0.91816  0.83407  0.13516  1.0000
  C   C3308     1.0  0.92951  0.82201  0.13633  1.0000
  C   C3309     1.0  0.92883  0.80945  0.13266  1.0000
  C   C3310     1.0  0.91715  0.80909  0.12733  1.0000
  H   H5231     1.0  0.89808  0.84330  0.12810  1.0000
  H   H5232     1.0  0.91847  0.84370  0.13827  1.0000
  H   H5233     1.0  0.93740  0.79998  0.13388  1.0000
  H   H5234     1.0  0.91649  0.79918  0.12511  1.0000
  C   C3311     1.0  0.87072  0.78833  0.05771  1.0000
  C   C3312     1.0  0.85895  0.79162  0.05102  1.0000
  C   C3313     1.0  0.85611  0.78130  0.04518  1.0000
  H   H5235     1.0  0.78336  0.69063  0.15467  1.0000
  C   C3314     1.0  0.87964  0.77455  0.05854  1.0000
  H   H5236     1.0  0.85200  0.80225  0.05032  1.0000
  H   H5237     1.0  0.84704  0.78402  0.04005  1.0000
  H   H5238     1.0  0.88875  0.77188  0.06363  1.0000
  C   C3315     1.0  0.90291  0.74249  0.11741  1.0000
  C   C3316     1.0  0.90669  0.72745  0.12116  1.0000
  C   C3317     1.0  0.89694  0.71957  0.13094  1.0000
  C   C3318     1.0  0.88326  0.72662  0.13706  1.0000
  C   C3319     1.0  0.87936  0.74173  0.13339  1.0000
  C   C3320     1.0  0.88923  0.74968  0.12356  1.0000
  H   H5239     1.0  0.91725  0.72183  0.11652  1.0000
  H   H5240     1.0  0.90004  0.70792  0.13380  1.0000
  H   H5241     1.0  0.86895  0.74727  0.13838  1.0000
  H   H5242     1.0  0.88639  0.76132  0.12101  1.0000
  S   S1335     1.0  0.83095  0.74060  0.03173  1.0000
  H   H5243     1.0  0.70558  0.86854  0.98397  1.0000
  C   C3321     1.0  0.76362  0.79585  0.03533  1.0000
  H   H5244     1.0  0.97812  0.87631  0.12090  1.0000
  H   H5245     1.0  0.77607  0.81504  0.04000  1.0000
  H   H5246     1.0  0.71058  0.96847  0.07459  1.0000
  S   S1336     1.0  0.83264  0.71591  0.15014  1.0000
  H   H5247     1.0  0.79234  0.70268  0.12759  1.0000
  H   H5248     1.0  0.80356  0.70727  0.15866  1.0000
  S   S1337     1.0  0.79202  0.86071  0.19956  1.0000
  C   C3322     1.0  0.77349  0.81727  0.02916  1.0000
  S   S1338     1.0  0.78512  0.94697  0.06014  1.0000
  S   S1339     1.0  0.72773  0.86961  0.00234  1.0000
  H   H5249     1.0  0.84218  0.73849  0.21745  1.0000
  N   N325      1.0  0.69387  0.67417  0.18250  1.0000
  H   H5250     1.0  0.68527  0.83898  0.99631  1.0000
  H   H5251     1.0  0.72910  0.83526  0.18956  1.0000
  H   H5252     1.0  0.83185  0.89953  0.18013  1.0000
  H   H5253     1.0  0.80356  0.92658  0.19732  1.0000
  C   C3323     1.0  0.69019  0.82877  0.18147  1.0000
  H   H5254     1.0  0.79523  0.73049  0.01905  1.0000
  C   C3324     1.0  0.70154  0.81299  0.13029  1.0000
  H   H5255     1.0  0.77668  0.94250  0.13942  1.0000
  Fe  Fe674     1.0  0.83265  0.74510  0.00762  1.0000
  C   C3325     1.0  0.66124  0.72977  0.09369  1.0000
  H   H5256     1.0  0.66553  0.80845  0.15896  1.0000
  H   H5257     1.0  0.92102  0.86057  0.11094  1.0000
  N   N326      1.0  0.77417  0.80378  0.02481  1.0000
  C   C3326     1.0  0.96880  0.90449  0.11330  1.0000
  H   H5258     1.0  0.96583  0.90434  0.10318  1.0000
  C   C3327     1.0  0.80553  0.82180  0.98337  1.0000
  N   N327      1.0  0.85262  0.75925  0.09936  1.0000
  C   C3328     1.0  0.85434  0.74495  0.10932  1.0000
  C   C3329     1.0  0.83954  0.76897  0.10558  1.0000
  C   C3330     1.0  0.85125  0.75765  0.08526  1.0000
  C   C3331     1.0  0.86531  0.76544  0.09728  1.0000
  H   H5259     1.0  0.86414  0.73732  0.10502  1.0000
  H   H5260     1.0  0.84487  0.74002  0.11120  1.0000
  H   H5261     1.0  0.85540  0.74575  0.12006  1.0000
  H   H5262     1.0  0.83800  0.77991  0.09841  1.0000
  H   H5263     1.0  0.82972  0.76470  0.10716  1.0000
  H   H5264     1.0  0.84009  0.77025  0.11633  1.0000
  H   H5265     1.0  0.84993  0.76826  0.07749  1.0000
  H   H5266     1.0  0.84179  0.75301  0.08639  1.0000
  H   H5267     1.0  0.86097  0.75045  0.08018  1.0000
  H   H5268     1.0  0.86443  0.77619  0.08971  1.0000
  H   H5269     1.0  0.87543  0.75834  0.09271  1.0000
  H   H5270     1.0  0.86656  0.76695  0.10767  1.0000
  N   N328      1.0  0.77783  0.89091  0.12632  1.0000
  C   C3332     1.0  0.76846  0.88154  0.13665  1.0000
  C   C3333     1.0  0.77328  0.90555  0.12944  1.0000
  C   C3334     1.0  0.77661  0.89173  0.11144  1.0000
  C   C3335     1.0  0.79293  0.88485  0.12769  1.0000
  H   H5271     1.0  0.77136  0.87048  0.13441  1.0000
  H   H5272     1.0  0.75697  0.88595  0.13601  1.0000
  H   H5273     1.0  0.76929  0.88048  0.14800  1.0000
  H   H5274     1.0  0.76198  0.91049  0.12830  1.0000
  H   H5275     1.0  0.77393  0.90532  0.14063  1.0000
  H   H5276     1.0  0.78022  0.91283  0.12192  1.0000
  H   H5277     1.0  0.77902  0.88080  0.10900  1.0000
  H   H5278     1.0  0.78415  0.89801  0.10330  1.0000
  H   H5279     1.0  0.76558  0.89715  0.10979  1.0000
  H   H5280     1.0  0.80024  0.89178  0.12009  1.0000
  H   H5281     1.0  0.79670  0.87385  0.12531  1.0000
  H   H5282     1.0  0.79424  0.88401  0.13882  1.0000
  N   N329      1.0  0.88810  0.86657  0.19178  1.0000
  H   H5283     1.0  0.79572  0.98441  0.08734  1.0000
  C   C3336     1.0  0.87590  0.86759  0.20430  1.0000
  C   C3337     1.0  0.89875  0.87416  0.19277  1.0000
  C   C3338     1.0  0.89490  0.85121  0.19190  1.0000
  H   H5284     1.0  0.72878  0.96914  0.07367  1.0000
  C   C3339     1.0  0.70615  0.66294  0.18693  1.0000
  C   C3340     1.0  0.68174  0.71483  0.10327  1.0000
  H   H5285     1.0  0.71633  0.66416  0.17886  1.0000
  H   H5286     1.0  0.70101  0.82462  0.99571  1.0000
  C   C3341     1.0  0.69910  0.86057  0.99104  1.0000
  H   H5287     1.0  0.81569  0.75365  0.98203  1.0000
  H   H5288     1.0  0.75190  0.79297  0.20655  1.0000
  H   H5289     1.0  0.86099  0.70181  0.21126  1.0000
  H   H5290     1.0  0.90322  0.86910  0.20268  1.0000
  H   H5291     1.0  0.81300  0.90756  0.18349  1.0000
  H   H5292     1.0  0.72695  0.84908  0.98359  1.0000
  N   N330      1.0  0.82539  0.91436  0.19446  1.0000
  C   C3342     1.0  0.81469  0.92784  0.19636  1.0000
  C   C3343     1.0  0.84003  0.91697  0.19190  1.0000
  C   C3344     1.0  0.82392  0.90966  0.18193  1.0000
  C   C3345     1.0  0.82289  0.90301  0.20763  1.0000
  N   N331      1.0  0.78743  0.76775  0.22946  1.0000
  H   H5293     1.0  0.68194  0.67342  0.20441  1.0000
  C   C3346     1.0  0.84676  0.72905  0.21224  1.0000
  Fe  Fe675     1.0  0.73791  0.68405  0.22733  1.0000
  H   H5294     1.0  0.67224  0.76363  0.15802  1.0000
  C   C3347     1.0  0.77571  0.95434  0.13787  1.0000
  H   H5295     1.0  0.81681  0.93687  0.18700  1.0000
  H   H5296     1.0  0.69629  0.83514  0.00931  1.0000
  H   H5297     1.0  0.67126  0.81041  0.17412  1.0000
  C   C3348     1.0  0.66290  0.77289  0.15897  1.0000
  H   H5298     1.0  0.71091  0.65986  0.12970  1.0000
  H   H5299     1.0  0.66810  0.73216  0.08268  1.0000
  H   H5300     1.0  0.95176  0.76042  0.09306  1.0000
  H   H5301     1.0  0.87881  0.70534  0.20683  1.0000
  H   H5302     1.0  0.72041  0.84050  0.00184  1.0000
  H   H5303     1.0  0.86403  0.98493  0.15364  1.0000
  H   H5304     1.0  0.76589  0.79294  0.04638  1.0000
  H   H5305     1.0  0.82566  0.91805  0.17183  1.0000
  S   S1340     1.0  0.73233  0.66405  0.22577  1.0000
  H   H5306     1.0  0.78250  0.70511  0.03976  1.0000
  C   C3349     1.0  0.67485  0.74023  0.10372  1.0000
  H   H5307     1.0  0.97826  0.75707  0.06796  1.0000
  C   C3350     1.0  0.81966  0.86655  0.21763  1.0000
  H   H5308     1.0  0.71049  0.84079  0.18843  1.0000
  H   H5309     1.0  0.77854  0.81346  0.00214  1.0000
  C   C3351     1.0  0.68543  0.84340  0.17567  1.0000
  H   H5310     1.0  0.70673  0.69013  0.17226  1.0000
  N   N332      1.0  0.66947  0.72717  0.10504  1.0000
  H   H5311     1.0  0.69338  0.96615  0.09816  1.0000
  H   H5312     1.0  0.67131  0.68115  0.19089  1.0000
  H   H5313     1.0  0.82248  0.67574  0.14250  1.0000
  H   H5314     1.0  0.68776  0.69732  0.17735  1.0000
  C   C3352     1.0  0.69781  0.84508  0.07235  1.0000
  S   S1341     1.0  0.75118  0.94623  0.06296  1.0000
  H   H5315     1.0  0.82143  0.68507  0.15632  1.0000
  H   H5316     1.0  0.78752  0.78948  0.21732  1.0000
  C   C3353     1.0  0.80545  0.70669  0.04857  1.0000
  C   C3354     1.0  0.98589  0.88190  0.11236  1.0000
  H   H5317     1.0  0.80065  0.88487  0.05001  1.0000
  H   H5318     1.0  0.78315  0.89524  0.04787  1.0000
  C   C3355     1.0  0.68202  0.80469  0.12668  1.0000
  N   N333      1.0  0.80308  0.71107  0.03362  1.0000
  H   H5319     1.0  0.79511  0.67342  0.20236  1.0000
  H   H5320     1.0  0.72439  0.96558  0.11320  1.0000
  C   C3356     1.0  0.98722  0.89707  0.12739  1.0000
  H   H5321     1.0  0.72534  0.85331  0.20482  1.0000
  H   H5322     1.0  0.70767  0.66353  0.19759  1.0000
  H   H5323     1.0  0.75244  0.80239  0.03592  1.0000
  C   C3357     1.0  0.80061  0.95211  0.12560  1.0000
  H   H5324     1.0  0.77137  0.96379  0.11032  1.0000
  C   C3358     1.0  0.68339  0.82236  0.19524  1.0000
  H   H5325     1.0  0.79169  0.79180  0.03520  1.0000
  N   N334      1.0  0.75524  0.76679  0.09661  1.0000
  C   C3359     1.0  0.75470  0.78246  0.09348  1.0000
  C   C3360     1.0  0.77039  0.75883  0.09482  1.0000
  C   C3361     1.0  0.74833  0.76363  0.08652  1.0000
  C   C3362     1.0  0.74750  0.76228  0.11164  1.0000
  H   H5326     1.0  0.74340  0.78875  0.09447  1.0000
  H   H5327     1.0  0.76069  0.78623  0.08235  1.0000
  H   H5328     1.0  0.75941  0.78529  0.10122  1.0000
  H   H5329     1.0  0.77114  0.74697  0.09704  1.0000
  H   H5330     1.0  0.77656  0.76195  0.08360  1.0000
  H   H5331     1.0  0.77594  0.76092  0.10231  1.0000
  H   H5332     1.0  0.74801  0.75197  0.08891  1.0000
  H   H5333     1.0  0.75412  0.76647  0.07510  1.0000
  H   H5334     1.0  0.73704  0.76985  0.08724  1.0000
  H   H5335     1.0  0.75253  0.76434  0.11958  1.0000
  H   H5336     1.0  0.74747  0.75057  0.11439  1.0000
  H   H5337     1.0  0.73610  0.76821  0.11342  1.0000
  N   N335      1.0  0.79087  0.87749  0.03695  1.0000
  C   C3363     1.0  0.79977  0.86270  0.03909  1.0000
  C   C3364     1.0  0.78987  0.88407  0.04919  1.0000
  C   C3365     1.0  0.77629  0.87692  0.03616  1.0000
  C   C3366     1.0  0.79755  0.88628  0.02333  1.0000
  H   H5338     1.0  0.81087  0.86270  0.03971  1.0000
  H   H5339     1.0  0.80071  0.85753  0.02997  1.0000
  H   H5340     1.0  0.79506  0.85572  0.04923  1.0000
  S   S1342     1.0  0.67230  0.78888  0.20368  1.0000
  H   H5341     1.0  0.80850  0.95655  0.11618  1.0000
  H   H5342     1.0  0.78489  0.87774  0.05966  1.0000
  H   H5343     1.0  0.77651  0.87277  0.02659  1.0000
  H   H5344     1.0  0.76911  0.88780  0.03524  1.0000
  H   H5345     1.0  0.77114  0.86989  0.04598  1.0000
  H   H5346     1.0  0.79153  0.89768  0.02172  1.0000
  H   H5347     1.0  0.98787  0.82084  0.06131  1.0000
  H   H5348     1.0  0.78276  0.94596  0.11264  1.0000
  N   N336      1.0  0.80471  0.69389  0.14417  1.0000
  C   C3367     1.0  0.79479  0.68506  0.15443  1.0000
  H   H5349     1.0  0.72432  0.85027  0.06686  1.0000
  H   H5350     1.0  0.69138  0.85557  0.07498  1.0000
  H   H5351     1.0  0.70284  0.84719  0.06063  1.0000
  H   H5352     1.0  0.95759  0.76259  0.04779  1.0000
  S   S1343     1.0  0.82433  0.77629  0.02850  1.0000
  C   C3368     1.0  0.74425  0.90654  0.02511  1.0000
  H   H5353     1.0  0.69012  0.83802  0.07403  1.0000
  Fe  Fe676     1.0  0.76323  0.95832  0.07043  1.0000
  H   H5354     1.0  0.71904  0.76333  0.16288  1.0000
  S   S1344     1.0  0.69346  0.85157  0.15824  1.0000
  S   S1345     1.0  0.85935  0.84221  0.19129  1.0000
  H   H5355     1.0  0.65812  0.85163  0.20383  1.0000
  H   H5356     1.0  0.69437  0.82826  0.09933  1.0000
  H   H5357     1.0  0.78237  0.97280  0.07716  1.0000
  Fe  Fe677     1.0  0.74072  0.84910  0.01294  1.0000
  Fe  Fe678     1.0  0.82068  0.71402  0.17319  1.0000
  H   H5358     1.0  0.79641  0.68295  0.16567  1.0000
  H   H5359     1.0  0.87486  0.86771  0.17715  1.0000
  H   H5360     1.0  0.68167  0.73850  0.11166  1.0000
  N   N337      1.0  0.70879  0.83838  0.08124  1.0000
  C   C3369     1.0  0.71879  0.84812  0.07846  1.0000
  C   C3370     1.0  0.71692  0.82444  0.07744  1.0000
  H   H5361     1.0  0.71301  0.85874  0.08124  1.0000
  H   H5362     1.0  0.75906  0.82959  0.17215  1.0000
  C   C3371     1.0  0.95478  0.76862  0.05660  1.0000
  N   N338      1.0  0.95557  0.75879  0.07083  1.0000
  H   H5363     1.0  0.75983  0.81405  0.01022  1.0000
  H   H5364     1.0  0.81490  0.93129  0.20619  1.0000
  C   C3372     1.0  0.70169  0.83591  0.09671  1.0000
  S   S1346     1.0  0.73176  0.89818  0.02230  1.0000
  S   S1347     1.0  0.86161  0.75403  0.03924  1.0000
  H   H5365     1.0  0.75819  0.90602  0.00416  1.0000
  S   S1348     1.0  0.94453  0.80409  0.06308  1.0000
  C   C3373     1.0  0.95383  0.80771  0.08595  1.0000
  H   H5366     1.0  0.81309  0.83103  0.01628  1.0000
  H   H5367     1.0  0.83973  0.72114  0.21752  1.0000
  S   S1349     1.0  0.87782  0.77478  0.18887  1.0000
  C   C3374     1.0  0.80141  0.70815  0.14790  1.0000
  H   H5368     1.0  0.70974  0.83126  0.10369  1.0000
  C   C3375     1.0  0.84268  0.84976  0.21635  1.0000
  C   C3376     1.0  0.98371  0.82588  0.12744  1.0000
  H   H5369     1.0  0.86448  0.83482  0.15934  1.0000
  C   C3377     1.0  0.71158  0.80297  0.12282  1.0000
  C   C3378     1.0  0.79799  0.83466  0.98779  1.0000
  C   C3379     1.0  0.84442  0.85206  0.20135  1.0000
  H   H5370     1.0  0.87972  0.82886  0.14595  1.0000
  H   H5371     1.0  0.88048  0.82342  0.16476  1.0000
  Fe  Fe679     1.0  0.86718  0.82095  0.20536  1.0000
  S   S1350     1.0  0.74668  0.66452  0.15382  1.0000
  C   C3380     1.0  0.95643  0.80868  0.07104  1.0000
  C   C3381     1.0  0.87338  0.82549  0.15698  1.0000
  H   H5372     1.0  0.76978  0.83847  0.18746  1.0000
  H   H5373     1.0  0.93664  0.86836  0.10578  1.0000
  H   H5374     1.0  0.96121  0.81072  0.10351  1.0000
  H   H5375     1.0  0.71996  0.75442  0.18130  1.0000
  S   S1351     1.0  0.81232  0.69384  0.18534  1.0000
  H   H5376     1.0  0.78821  0.71761  0.17934  1.0000
  H   H5377     1.0  0.79747  0.69113  0.03450  1.0000
  S   S1352     1.0  0.74782  0.80367  0.17779  1.0000
  S   S1353     1.0  0.78222  0.89004  0.16713  1.0000
  H   H5378     1.0  0.79992  0.68612  0.22024  1.0000
  H   H5379     1.0  0.82605  0.80795  0.00878  1.0000
  H   H5380     1.0  0.86545  0.81837  0.13607  1.0000
  H   H5381     1.0  0.87625  0.79023  0.15703  1.0000
  C   C3382     1.0  0.81823  0.81539  0.00292  1.0000
  H   H5382     1.0  0.91980  0.84171  0.09927  1.0000
  C   C3383     1.0  0.93294  0.85821  0.10720  1.0000
  H   H5383     1.0  0.80315  0.78073  0.22483  1.0000
  C   C3384     1.0  0.82164  0.86928  0.20258  1.0000
  H   H5384     1.0  0.81345  0.87676  0.19723  1.0000
  C   C3385     1.0  0.79307  0.70298  0.03215  1.0000
  H   H5385     1.0  0.87954  0.86258  0.21468  1.0000
  H   H5386     1.0  0.93755  0.85020  0.11607  1.0000
  H   H5387     1.0  0.93550  0.87390  0.08002  1.0000
  H   H5388     1.0  0.73503  0.75064  0.16691  1.0000
  H   H5389     1.0  0.81199  0.90065  0.20972  1.0000
  H   H5390     1.0  0.85420  0.79950  0.17394  1.0000
  H   H5391     1.0  0.86548  0.80614  0.18103  1.0000
  H   H5392     1.0  0.79103  0.70606  0.02099  1.0000
  C   C3386     1.0  0.72623  0.75941  0.17075  1.0000
  C   C3387     1.0  0.79353  0.69547  0.19050  1.0000
  N   N339      1.0  0.86784  0.81258  0.15814  1.0000
  C   C3388     1.0  0.93176  0.83954  0.09605  1.0000
  C   C3389     1.0  0.88289  0.87325  0.17822  1.0000
  C   C3390     1.0  0.78413  0.70847  0.18632  1.0000
  C   C3391     1.0  0.85903  0.81555  0.14723  1.0000
  H   H5393     1.0  0.88689  0.80246  0.14474  1.0000
  H   H5394     1.0  0.79010  0.96107  0.10186  1.0000
  H   H5395     1.0  0.93467  0.85997  0.07174  1.0000
  H   H5396     1.0  0.93601  0.83086  0.10471  1.0000
  C   C3392     1.0  0.93151  0.86381  0.08207  1.0000
  N   N340      1.0  0.93736  0.85269  0.09372  1.0000
  H   H5397     1.0  0.76873  0.67596  0.21174  1.0000
  C   C3393     1.0  0.88004  0.80029  0.15575  1.0000
  S   S1354     1.0  0.75756  0.86679  0.20001  1.0000
  H   H5398     1.0  0.80083  0.77588  0.20932  1.0000
  C   C3394     1.0  0.97846  0.81710  0.06824  1.0000
  H   H5399     1.0  0.91954  0.86667  0.08489  1.0000
  Fe  Fe680     1.0  0.74204  0.81905  0.15790  1.0000
  H   H5400     1.0  0.85075  0.84225  0.22173  1.0000
  S   S1355     1.0  0.74512  0.70069  0.20796  1.0000
  H   H5401     1.0  0.78150  0.70913  0.21600  1.0000
  Fe  Fe681     1.0  0.87540  0.78943  0.20384  1.0000
  C   C3395     1.0  0.78790  0.68360  0.19930  1.0000
  H   H5402     1.0  0.80799  0.71545  0.13984  1.0000
  C   C3396     1.0  0.81696  0.70789  0.02340  1.0000
  H   H5403     1.0  0.87770  0.88487  0.17772  1.0000
  H   H5404     1.0  0.93484  0.83513  0.08606  1.0000
  H   H5405     1.0  0.75134  0.75733  0.17827  1.0000
  H   H5406     1.0  0.74593  0.77398  0.18442  1.0000
  S   S1356     1.0  0.85428  0.80401  0.21073  1.0000
  H   H5407     1.0  0.94377  0.77543  0.05651  1.0000
  S   S1357     1.0  0.87103  0.81653  0.22779  1.0000
  H   H5408     1.0  0.73057  0.95085  0.10398  1.0000
  H   H5409     1.0  0.81016  0.69494  0.05144  1.0000
  H   H5410     1.0  0.79251  0.97984  0.11390  1.0000
  S   S1358     1.0  0.75947  0.85638  0.11522  1.0000
  C   C3397     1.0  0.74186  0.76532  0.18243  1.0000
  H   H5411     1.0  0.82207  0.69620  0.02554  1.0000
  H   H5412     1.0  0.94539  0.74183  0.08506  1.0000
  N   N341      1.0  0.73199  0.77122  0.17228  1.0000
  H   H5413     1.0  0.76392  0.78560  0.03236  1.0000
  H   H5414     1.0  0.83089  0.89274  0.20667  1.0000
  H   H5415     1.0  0.84992  0.81817  0.17524  1.0000
  H   H5416     1.0  0.68254  0.68085  0.16508  1.0000
  H   H5417     1.0  0.85477  0.80597  0.14782  1.0000
  H   H5418     1.0  0.80877  0.88647  0.02331  1.0000
  H   H5419     1.0  0.97751  0.81304  0.15530  1.0000
  H   H5420     1.0  0.71368  0.77768  0.18858  1.0000
  C   C3398     1.0  0.72726  0.96282  0.10238  1.0000
  C   C3399     1.0  0.69683  0.68858  0.18069  1.0000
  C   C3400     1.0  0.76924  0.70979  0.19133  1.0000
  H   H5421     1.0  0.76201  0.71994  0.18819  1.0000
  Fe  Fe682     1.0  0.74523  0.84240  0.13106  1.0000
  C   C3401     1.0  0.95323  0.84917  0.08959  1.0000
  H   H5422     1.0  0.74469  0.78649  0.15893  1.0000
  H   H5423     1.0  0.89847  0.84570  0.20222  1.0000
  S   S1359     1.0  0.77055  0.89067  0.20835  1.0000
  H   H5424     1.0  0.81560  0.71104  0.01199  1.0000
  H   H5425     1.0  0.76757  0.70161  0.22939  1.0000
  H   H5426     1.0  0.66394  0.75940  0.13845  1.0000
  H   H5427     1.0  0.82365  0.90623  0.21738  1.0000
  H   H5428     1.0  0.93410  0.75540  0.07453  1.0000
  Fe  Fe683     1.0  0.66429  0.80237  0.10561  1.0000
  C   C3402     1.0  0.77300  0.68502  0.20462  1.0000
  H   H5429     1.0  0.73637  0.75975  0.19305  1.0000
  H   H5430     1.0  0.95701  0.84482  0.07953  1.0000
  H   H5431     1.0  0.96216  0.77624  0.05383  1.0000
  H   H5432     1.0  0.95789  0.85881  0.08768  1.0000
  C   C3403     1.0  0.71998  0.78230  0.17797  1.0000
  C   C3404     1.0  0.78227  0.95758  0.11185  1.0000
  H   H5433     1.0  0.95796  0.84083  0.09821  1.0000
  S   S1360     1.0  0.82490  0.96958  0.13351  1.0000
  H   H5434     1.0  0.72260  0.95253  0.08173  1.0000
  C   C3405     1.0  0.73984  0.77785  0.15802  1.0000
  H   H5435     1.0  0.81293  0.71261  0.05007  1.0000
  H   H5436     1.0  0.97396  0.82503  0.12432  1.0000
  C   C3406     1.0  0.69208  0.79446  0.11958  1.0000
  H   H5437     1.0  0.78124  0.82354  0.02137  1.0000
  H   H5438     1.0  0.73261  0.78279  0.15021  1.0000
  C   C3407     1.0  0.96344  0.81142  0.09196  1.0000
  H   H5439     1.0  0.74871  0.76977  0.15317  1.0000
  C   C3408     1.0  0.96886  0.81329  0.06224  1.0000
  H   H5440     1.0  0.67910  0.82213  0.13728  1.0000
  H   H5441     1.0  0.79700  0.80014  0.01651  1.0000
  N   N342      1.0  0.71515  0.96849  0.09483  1.0000
  H   H5442     1.0  0.71244  0.78717  0.17049  1.0000
  S   S1361     1.0  0.66372  0.80704  0.12697  1.0000
  H   H5443     1.0  0.72399  0.79112  0.17971  1.0000
  C   C3409     1.0  0.77086  0.80731  0.01028  1.0000
  S   S1362     1.0  0.81260  0.76217  0.00824  1.0000
  C   C3410     1.0  0.80073  0.83800  0.99963  1.0000
  C   C3411     1.0  0.76367  0.69819  0.20076  1.0000
  S   S1363     1.0  0.75393  0.98190  0.07075  1.0000
  S   S1364     1.0  0.84744  0.76030  0.00312  1.0000
  H   H5444     1.0  0.90803  0.87383  0.18336  1.0000
  C   C3412     1.0  0.78461  0.97547  0.12339  1.0000
  H   H5445     1.0  0.84583  0.73285  0.20074  1.0000
  H   H5446     1.0  0.68934  0.71708  0.09268  1.0000
  Fe  Fe684     1.0  0.82713  0.77727  0.00479  1.0000
  H   H5447     1.0  0.98027  0.83355  0.13481  1.0000
  C   C3413     1.0  0.78876  0.79464  0.02444  1.0000
  S   S1365     1.0  0.72175  0.81599  0.15445  1.0000
  C   C3414     1.0  0.67178  0.83057  0.20328  1.0000
  H   H5448     1.0  0.97100  0.81409  0.05068  1.0000
  H   H5449     1.0  0.84159  0.92051  0.20113  1.0000
  H   H5450     1.0  0.84844  0.90713  0.19014  1.0000
  S   S1366     1.0  0.73533  0.84316  0.15439  1.0000
  H   H5451     1.0  0.71807  0.82212  0.19497  1.0000
  H   H5452     1.0  0.76261  0.82442  0.02957  1.0000
  C   C3415     1.0  0.97575  0.81621  0.08315  1.0000
  H   H5453     1.0  0.79519  0.70893  0.05657  1.0000
  C   C3416     1.0  0.81551  0.81210  0.99104  1.0000
  C   C3417     1.0  0.79682  0.72671  0.03037  1.0000
  H   H5454     1.0  0.96113  0.89929  0.12249  1.0000
  Fe  Fe685     1.0  0.71568  0.84000  0.14928  1.0000
  C   C3418     1.0  0.97034  0.75007  0.07047  1.0000
  H   H5455     1.0  0.69904  0.82232  0.17542  1.0000
  C   C3419     1.0  0.70271  0.96220  0.10355  1.0000
  C   C3420     1.0  0.95178  0.76739  0.08206  1.0000
  C   C3421     1.0  0.68068  0.67260  0.19374  1.0000
  H   H5456     1.0  0.98692  0.79508  0.15339  1.0000
  H   H5457     1.0  0.94087  0.77428  0.08227  1.0000
  H   H5458     1.0  0.66257  0.83653  0.16872  1.0000
  C   C3422     1.0  0.69185  0.67263  0.16863  1.0000
  C   C3423     1.0  0.77751  0.98327  0.07982  1.0000
  Fe  Fe686     1.0  0.78590  0.87180  0.21815  1.0000
  H   H5459     1.0  0.98456  0.88122  0.10168  1.0000
  H   H5460     1.0  0.70506  0.82059  0.13397  1.0000
  H   H5461     1.0  0.88736  0.84519  0.19074  1.0000
  S   S1367     1.0  0.80320  0.87358  0.22804  1.0000
  H   H5462     1.0  0.76907  0.77520  0.21958  1.0000
  H   H5463     1.0  0.78623  0.72951  0.03774  1.0000
  H   H5464     1.0  0.80346  0.95308  0.13541  1.0000
  H   H5465     1.0  0.68803  0.71236  0.11183  1.0000
  S   S1368     1.0  0.79080  0.85364  0.00569  1.0000
  H   H5466     1.0  0.98620  0.80088  0.12062  1.0000
  C   C3424     1.0  0.91875  0.82544  0.22476  1.0000
  C   C3425     1.0  0.71813  0.83340  0.19508  1.0000
  H   H5467     1.0  0.88208  0.72943  0.20778  1.0000
  N   N343      1.0  0.98389  0.89697  0.11360  1.0000
  H   H5468     1.0  0.95927  0.77476  0.07997  1.0000
  C   C3426     1.0  0.94536  0.74915  0.07422  1.0000
  H   H5469     1.0  0.89189  0.87266  0.16858  1.0000
  S   S1369     1.0  0.72485  0.84170  0.12551  1.0000
  H   H5470     1.0  0.98623  0.86995  0.16427  1.0000
  H   H5471     1.0  0.97356  0.74344  0.06210  1.0000
  C   C3427     1.0  0.71946  0.96448  0.08058  1.0000
  H   H5472     1.0  0.80393  0.73312  0.03169  1.0000
  H   H5473     1.0  0.79781  0.88204  0.01378  1.0000
  Fe  Fe687     1.0  0.89090  0.80108  0.21951  1.0000
  H   H5474     1.0  0.97127  0.74260  0.08109  1.0000
  S   S1370     1.0  0.70512  0.75759  0.21267  1.0000
  S   S1371     1.0  0.67132  0.77965  0.10244  1.0000
  H   H5475     1.0  0.70693  0.85871  0.20284  1.0000
  H   H5476     1.0  0.80212  0.94042  0.12593  1.0000
  C   C3428     1.0  0.86738  0.71034  0.20625  1.0000
  H   H5477     1.0  0.69909  0.82189  0.21744  1.0000
  C   C3429     1.0  0.67381  0.85160  0.18375  1.0000
  H   H5478     1.0  0.66025  0.77434  0.17032  1.0000
  H   H5479     1.0  0.77796  0.95613  0.14772  1.0000
  H   H5480     1.0  0.97185  0.80387  0.14500  1.0000
  C   C3430     1.0  0.68676  0.81386  0.13221  1.0000
  H   H5481     1.0  0.86777  0.86184  0.20396  1.0000
  H   H5482     1.0  0.94789  0.74239  0.06606  1.0000
  H   H5483     1.0  0.87092  0.73720  0.19477  1.0000
  S   S1372     1.0  0.75813  0.88092  0.98905  1.0000
  H   H5484     1.0  0.86687  0.71375  0.19458  1.0000
  H   H5485     1.0  0.68792  0.86454  0.98921  1.0000
  H   H5486     1.0  0.82475  0.71390  0.02413  1.0000
  H   H5487     1.0  0.98043  0.89106  0.13681  1.0000
  C   C3431     1.0  0.72920  0.75487  0.22277  1.0000
  C   C3432     1.0  0.98149  0.80563  0.14761  1.0000
  H   H5488     1.0  0.84219  0.92556  0.18207  1.0000
  C   C3433     1.0  0.69660  0.83573  0.99773  1.0000
  H   H5489     1.0  0.68737  0.81115  0.19978  1.0000
  H   H5490     1.0  0.76436  0.95980  0.13742  1.0000
  N   N344      1.0  0.86186  0.72269  0.21352  1.0000
  H   H5491     1.0  0.98542  0.90824  0.12898  1.0000
  Fe  Fe688     1.0  0.76862  0.85958  0.00113  1.0000
  S   S1373     1.0  0.88051  0.78197  0.22590  1.0000
  H   H5492     1.0  0.99074  0.83076  0.11745  1.0000
  H   H5493     1.0  0.73234  0.74404  0.22076  1.0000
  H   H5494     1.0  0.70546  0.95017  0.10522  1.0000
  H   H5495     1.0  0.69916  0.96494  0.11442  1.0000
  H   H5496     1.0  0.71091  0.85341  0.22046  1.0000
  H   H5497     1.0  0.68150  0.74339  0.09276  1.0000
  S   S1374     1.0  0.77547  0.82595  0.21622  1.0000
  H   H5498     1.0  0.76240  0.80190  0.22182  1.0000
  C   C3434     1.0  0.72679  0.66207  0.14000  1.0000
  C   C3435     1.0  0.79508  0.77896  0.21983  1.0000
  S   S1375     1.0  0.75810  0.84636  0.99327  1.0000
  C   C3436     1.0  0.72020  0.84129  0.99039  1.0000
  N   N345      1.0  0.70535  0.84599  0.98798  1.0000
  Fe  Fe689     1.0  0.66419  0.79905  0.22297  1.0000
  H   H5499     1.0  0.66118  0.67087  0.16224  1.0000
  C   C3437     1.0  0.71246  0.77797  0.22189  1.0000
  H   H5500     1.0  0.66580  0.74962  0.10543  1.0000
  H   H5501     1.0  0.80443  0.70840  0.22246  1.0000
  H   H5502     1.0  0.70453  0.65192  0.18795  1.0000
  H   H5503     1.0  0.80440  0.75036  0.22292  1.0000
  N   N346      1.0  0.71427  0.83585  0.20998  1.0000
  C   C3438     1.0  0.71646  0.76398  0.21933  1.0000
  H   H5504     1.0  0.66642  0.78271  0.15175  1.0000
  Fe  Fe690     1.0  0.74592  0.86770  0.98293  1.0000
  C   C3439     1.0  0.77664  0.70702  0.22776  1.0000
  H   H5505     1.0  0.78298  0.76168  0.21187  1.0000
  H   H5506     1.0  0.72548  0.83053  0.98776  1.0000
  H   H5507     1.0  0.73562  0.82868  0.21424  1.0000
  S   S1376     1.0  0.98692  0.82158  0.09129  1.0000
  C   C3440     1.0  0.71440  0.85097  0.20949  1.0000
  H   H5508     1.0  0.67800  0.65373  0.22673  1.0000
  H   H5509     1.0  0.82118  0.82995  0.21762  1.0000
  H   H5510     1.0  0.70293  0.78524  0.21876  1.0000
  S   S1377     1.0  0.66388  0.75916  0.22540  1.0000
  Fe  Fe691     1.0  0.68259  0.77000  0.21876  1.0000
  C   C3441     1.0  0.77731  0.76523  0.22216  1.0000
  H   H5511     1.0  0.80300  0.82963  0.21783  1.0000
  C   C3442     1.0  0.80994  0.83154  0.22408  1.0000
  H   H5512     1.0  0.77374  0.98190  0.12200  1.0000
  Fe  Fe692     1.0  0.75405  0.87703  0.21887  1.0000
  H   H5513     1.0  0.72610  0.81454  0.21761  1.0000
  H   H5514     1.0  0.69147  0.84065  0.21127  1.0000
  S   S1378     1.0  0.82407  0.79569  0.98592  1.0000
  C   C3443     1.0  0.66706  0.84522  0.19758  1.0000
  C   C3444     1.0  0.72481  0.82594  0.21830  1.0000
  H   H5515     1.0  0.65937  0.79848  0.17677  1.0000
  H   H5516     1.0  0.67006  0.86292  0.17934  1.0000
  C   C3445     1.0  0.69974  0.83312  0.21704  1.0000
  H   H5517     1.0  0.80646  0.84306  0.22490  1.0000
  C   C3446     1.0  0.73406  0.65619  0.15139  1.0000
  C   C3447     1.0  0.71647  0.65537  0.13855  1.0000
  S   S1379     1.0  0.66298  0.82267  0.22037  1.0000
  H   H5518     1.0  0.79023  0.84212  0.98188  1.0000
  C   C3448     1.0  0.73753  0.75953  0.22945  1.0000
  C   C3449     1.0  0.86260  0.71771  0.22896  1.0000
  C   C3450     1.0  0.72063  0.78251  0.22881  1.0000
  H   H5519     1.0  0.69656  0.83467  0.22839  1.0000
  H   H5520     1.0  0.77133  0.75687  0.22922  1.0000
  C   C3451     1.0  0.71128  0.98439  0.09276  1.0000
  H   H5521     1.0  0.72142  0.82634  0.22994  1.0000
  S   S1380     1.0  0.73166  0.88561  0.23013  1.0000
  H   H5522     1.0  0.87374  0.71236  0.23036  1.0000
  H   H5523     1.0  0.84748  0.75144  0.23060  1.0000
  H   H5524     1.0  0.82391  0.80399  0.23070  1.0000
  S   S1381     1.0  0.76897  0.85935  0.23067  1.0000
  C   C3452     1.0  0.67169  0.66209  0.38262  1.0000
  C   C3453     1.0  0.73682  0.72550  0.32652  1.0000
  C   C3454     1.0  0.78364  0.66468  0.45190  1.0000
  Fe  Fe693     1.0  0.72882  0.65768  0.35596  1.0000
  H   H5525     1.0  0.76688  0.66274  0.29828  1.0000
  H   H5526     1.0  0.71840  0.75634  0.25842  1.0000
  C   C3455     1.0  0.68488  0.76548  0.31500  1.0000
  Fe  Fe694     1.0  0.71305  0.66922  0.24323  1.0000
  N   N347      1.0  0.73551  0.73950  0.33016  1.0000
  H   H5527     1.0  0.72544  0.83568  0.24752  1.0000
  S   S1382     1.0  0.84322  0.79213  0.25193  1.0000
  C   C3456     1.0  0.66042  0.66916  0.40550  1.0000
  Fe  Fe695     1.0  0.77865  0.73129  0.27236  1.0000
  S   S1383     1.0  0.79744  0.71341  0.26757  1.0000
  S   S1384     1.0  0.76275  0.73631  0.25814  1.0000
  Fe  Fe696     1.0  0.79044  0.73665  0.29562  1.0000
  S   S1385     1.0  0.81014  0.71902  0.29269  1.0000
  S   S1386     1.0  0.78586  0.74917  0.31289  1.0000
  Fe  Fe697     1.0  0.81067  0.72804  0.26900  1.0000
  S   S1387     1.0  0.82930  0.73320  0.25095  1.0000
  Fe  Fe698     1.0  0.79467  0.70633  0.29160  1.0000
  H   H5528     1.0  0.69960  0.77874  0.31362  1.0000
  S   S1388     1.0  0.79203  0.74653  0.27200  1.0000
  S   S1389     1.0  0.77496  0.72344  0.29637  1.0000
  H   H5529     1.0  0.68145  0.75272  0.27832  1.0000
  H   H5530     1.0  0.81221  0.79913  0.24774  1.0000
  H   H5531     1.0  0.78812  0.68837  0.25863  1.0000
  C   C3457     1.0  0.73939  0.70811  0.25882  1.0000
  C   C3458     1.0  0.65883  0.75806  0.45836  1.0000
  S   S1390     1.0  0.75188  0.65466  0.44315  1.0000
  H   H5532     1.0  0.70434  0.72569  0.25642  1.0000
  H   H5533     1.0  0.78656  0.66256  0.32895  1.0000
  C   C3459     1.0  0.77689  0.67014  0.32650  1.0000
  H   H5534     1.0  0.77139  0.78289  0.24073  1.0000
  Fe  Fe699     1.0  0.72292  0.79770  0.28847  1.0000
  S   S1391     1.0  0.69923  0.80606  0.29074  1.0000
  S   S1392     1.0  0.73301  0.80088  0.30492  1.0000
  Fe  Fe700     1.0  0.70495  0.81520  0.26696  1.0000
  S   S1393     1.0  0.69442  0.83799  0.25825  1.0000
  S   S1394     1.0  0.72874  0.80833  0.26520  1.0000
  C   C3460     1.0  0.67680  0.75162  0.33907  1.0000
  S   S1395     1.0  0.72904  0.68596  0.27905  1.0000
  C   C3461     1.0  0.72014  0.84689  0.24615  1.0000
  C   C3462     1.0  0.70519  0.85088  0.25065  1.0000
  C   C3463     1.0  0.69851  0.86552  0.24873  1.0000
  C   C3464     1.0  0.70672  0.87612  0.24248  1.0000
  H   H5535     1.0  0.78213  0.66441  0.46361  1.0000
  H   H5536     1.0  0.73981  0.85434  0.23573  1.0000
  H   H5537     1.0  0.68695  0.86869  0.25211  1.0000
  H   H5538     1.0  0.70149  0.88743  0.24115  1.0000
  C   C3465     1.0  0.74847  0.71722  0.27889  1.0000
  C   C3466     1.0  0.77165  0.76397  0.31034  1.0000
  C   C3467     1.0  0.76658  0.77314  0.32015  1.0000
  C   C3468     1.0  0.75478  0.78466  0.31840  1.0000
  C   C3469     1.0  0.74817  0.78703  0.30678  1.0000
  C   C3470     1.0  0.75343  0.77802  0.29685  1.0000
  C   C3471     1.0  0.76499  0.76636  0.29877  1.0000
  H   H5539     1.0  0.77170  0.77125  0.32915  1.0000
  H   H5540     1.0  0.75072  0.79163  0.32609  1.0000
  H   H5541     1.0  0.74868  0.78008  0.28761  1.0000
  H   H5542     1.0  0.76868  0.75923  0.29129  1.0000
  C   C3472     1.0  0.76523  0.69078  0.31083  1.0000
  H   H5543     1.0  0.76566  0.69857  0.30075  1.0000
  H   H5544     1.0  0.80139  0.67715  0.23839  1.0000
  H   H5545     1.0  0.73957  0.75081  0.30793  1.0000
  C   C3473     1.0  0.75116  0.67950  0.33322  1.0000
  H   H5546     1.0  0.83015  0.82237  0.23990  1.0000
  H   H5547     1.0  0.67937  0.67870  0.36521  1.0000
  H   H5548     1.0  0.66960  0.83543  0.47121  1.0000
  C   C3474     1.0  0.75203  0.69014  0.32054  1.0000
  H   H5549     1.0  0.73021  0.76215  0.32057  1.0000
  C   C3475     1.0  0.70768  0.73511  0.27819  1.0000
  C   C3476     1.0  0.69351  0.76697  0.33540  1.0000
  C   C3477     1.0  0.83936  0.77569  0.25196  1.0000
  C   C3478     1.0  0.82979  0.76918  0.26358  1.0000
  C   C3479     1.0  0.82676  0.75605  0.26340  1.0000
  C   C3480     1.0  0.83313  0.74953  0.25151  1.0000
  H   H5550     1.0  0.76343  0.68675  0.46070  1.0000
  C   C3481     1.0  0.79400  0.82504  0.24700  1.0000
  H   H5551     1.0  0.82493  0.77413  0.27283  1.0000
  H   H5552     1.0  0.81975  0.75086  0.27264  1.0000
  H   H5553     1.0  0.79075  0.83644  0.24834  1.0000
  H   H5554     1.0  0.78661  0.77426  0.24899  1.0000
  H   H5555     1.0  0.74826  0.72514  0.24307  1.0000
  H   H5556     1.0  0.81599  0.83562  0.24774  1.0000
  C   C3482     1.0  0.68632  0.67323  0.42836  1.0000
  H   H5557     1.0  0.66232  0.75096  0.46784  1.0000
  H   H5558     1.0  0.77649  0.65814  0.45086  1.0000
  C   C3483     1.0  0.76534  0.68654  0.44904  1.0000
  H   H5559     1.0  0.68323  0.68462  0.42975  1.0000
  C   C3484     1.0  0.68590  0.74677  0.26937  1.0000
  H   H5560     1.0  0.77131  0.68986  0.25383  1.0000
  S   S1396     1.0  0.68438  0.77074  0.29652  1.0000
  H   H5561     1.0  0.72812  0.66229  0.31010  1.0000
  H   H5562     1.0  0.69153  0.67896  0.39904  1.0000
  C   C3485     1.0  0.79377  0.68437  0.23162  1.0000
  Fe  Fe701     1.0  0.69946  0.78571  0.28446  1.0000
  H   H5563     1.0  0.71724  0.79316  0.23120  1.0000
  C   C3486     1.0  0.77934  0.77258  0.24295  1.0000
  S   S1397     1.0  0.72287  0.77653  0.28395  1.0000
  C   C3487     1.0  0.73135  0.75140  0.31816  1.0000
  C   C3488     1.0  0.75141  0.72394  0.26428  1.0000
  C   C3489     1.0  0.74948  0.74030  0.33241  1.0000
  H   H5564     1.0  0.74898  0.75083  0.33494  1.0000
  H   H5565     1.0  0.75814  0.73916  0.32259  1.0000
  H   H5566     1.0  0.75295  0.73158  0.34144  1.0000
  H   H5567     1.0  0.72088  0.75111  0.31610  1.0000
  H   H5568     1.0  0.67058  0.74395  0.34611  1.0000
  C   C3490     1.0  0.70710  0.73651  0.25339  1.0000
  H   H5569     1.0  0.71899  0.73494  0.24978  1.0000
  H   H5570     1.0  0.72646  0.72448  0.32480  1.0000
  H   H5571     1.0  0.75189  0.72071  0.28669  1.0000
  H   H5572     1.0  0.67101  0.69749  0.37992  1.0000
  N   N348      1.0  0.78742  0.69820  0.23633  1.0000
  H   H5573     1.0  0.71010  0.67925  0.39629  1.0000
  C   C3491     1.0  0.73301  0.77320  0.23285  1.0000
  H   H5574     1.0  0.69293  0.81000  0.46205  1.0000
  H   H5575     1.0  0.76294  0.66101  0.34593  1.0000
  H   H5576     1.0  0.77991  0.69052  0.42149  1.0000
  C   C3492     1.0  0.78042  0.69530  0.25182  1.0000
  H   H5577     1.0  0.72730  0.73220  0.35288  1.0000
  H   H5578     1.0  0.71381  0.73984  0.34231  1.0000
  H   H5579     1.0  0.72276  0.75141  0.34642  1.0000
  N   N349      1.0  0.71985  0.84773  0.28973  1.0000
  C   C3493     1.0  0.71105  0.85703  0.29988  1.0000
  C   C3494     1.0  0.71081  0.83918  0.28729  1.0000
  C   C3495     1.0  0.73193  0.83786  0.29593  1.0000
  C   C3496     1.0  0.72558  0.85682  0.27584  1.0000
  H   H5580     1.0  0.71754  0.86355  0.30209  1.0000
  H   H5581     1.0  0.70644  0.85047  0.31041  1.0000
  H   H5582     1.0  0.70190  0.86465  0.29543  1.0000
  H   H5583     1.0  0.71696  0.83244  0.27929  1.0000
  H   H5584     1.0  0.70680  0.83173  0.29744  1.0000
  H   H5585     1.0  0.70132  0.84620  0.28300  1.0000
  H   H5586     1.0  0.73849  0.83033  0.28876  1.0000
  H   H5587     1.0  0.72800  0.83101  0.30656  1.0000
  H   H5588     1.0  0.73922  0.84387  0.29760  1.0000
  H   H5589     1.0  0.73264  0.85009  0.26812  1.0000
  H   H5590     1.0  0.73209  0.86378  0.27728  1.0000
  H   H5591     1.0  0.71676  0.86403  0.27057  1.0000
  H   H5592     1.0  0.75510  0.66553  0.28612  1.0000
  C   C3497     1.0  0.68520  0.75729  0.34469  1.0000
  S   S1398     1.0  0.66740  0.73359  0.40167  1.0000
  H   H5593     1.0  0.76252  0.69787  0.44306  1.0000
  C   C3498     1.0  0.70345  0.65552  0.41604  1.0000
  C   C3499     1.0  0.72161  0.87214  0.23776  1.0000
  C   C3500     1.0  0.66481  0.65867  0.39712  1.0000
  S   S1399     1.0  0.75090  0.67264  0.24418  1.0000
  H   H5594     1.0  0.79283  0.81791  0.25798  1.0000
  H   H5595     1.0  0.77506  0.67320  0.42670  1.0000
  H   H5596     1.0  0.91536  0.82288  0.23641  1.0000
  H   H5597     1.0  0.78800  0.69925  0.43910  1.0000
  H   H5598     1.0  0.68194  0.73654  0.27281  1.0000
  C   C3501     1.0  0.71176  0.67243  0.42406  1.0000
  H   H5599     1.0  0.71302  0.66453  0.43438  1.0000
  S   S1400     1.0  0.72375  0.65669  0.26164  1.0000
  Fe  Fe702     1.0  0.74341  0.65295  0.24419  1.0000
  C   C3502     1.0  0.81273  0.80672  0.23701  1.0000
  H   H5600     1.0  0.73884  0.70071  0.29474  1.0000
  C   C3503     1.0  0.72440  0.74080  0.34352  1.0000
  H   H5601     1.0  0.77601  0.70547  0.25584  1.0000
  C   C3504     1.0  0.74637  0.71974  0.25433  1.0000
  H   H5602     1.0  0.79440  0.71674  0.23734  1.0000
  N   N350      1.0  0.78039  0.67964  0.44355  1.0000
  N   N351      1.0  0.70178  0.74407  0.26555  1.0000
  C   C3505     1.0  0.70645  0.75795  0.26123  1.0000
  C   C3506     1.0  0.72831  0.85750  0.23944  1.0000
  C   C3507     1.0  0.69329  0.77113  0.32062  1.0000
  N   N352      1.0  0.80888  0.82190  0.23855  1.0000
  H   H5603     1.0  0.70225  0.76501  0.25169  1.0000
  S   S1401     1.0  0.73434  0.67930  0.34502  1.0000
  H   H5604     1.0  0.74900  0.67344  0.30170  1.0000
  S   S1402     1.0  0.79451  0.68300  0.30245  1.0000
  H   H5605     1.0  0.68111  0.75344  0.26004  1.0000
  H   H5606     1.0  0.78531  0.67850  0.23233  1.0000
  H   H5607     1.0  0.74511  0.72413  0.31649  1.0000
  H   H5608     1.0  0.71378  0.65317  0.40821  1.0000
  C   C3508     1.0  0.84571  0.76915  0.24016  1.0000
  S   S1403     1.0  0.71738  0.69047  0.24299  1.0000
  H   H5609     1.0  0.80715  0.69993  0.24048  1.0000
  H   H5610     1.0  0.79356  0.67424  0.42363  1.0000
  H   H5611     1.0  0.74239  0.69776  0.31812  1.0000
  H   H5612     1.0  0.72234  0.67085  0.41640  1.0000
  H   H5613     1.0  0.71963  0.73326  0.27574  1.0000
  S   S1404     1.0  0.66438  0.78063  0.46698  1.0000
  C   C3509     1.0  0.84255  0.75619  0.23987  1.0000
  H   H5614     1.0  0.73998  0.71626  0.33534  1.0000
  H   H5615     1.0  0.81866  0.81694  0.25692  1.0000
  C   C3510     1.0  0.77778  0.68115  0.31400  1.0000
  Fe  Fe703     1.0  0.72615  0.78818  0.26070  1.0000
  H   H5616     1.0  0.70001  0.77141  0.33969  1.0000
  S   S1405     1.0  0.74121  0.66943  0.47675  1.0000
  S   S1406     1.0  0.70259  0.79574  0.26069  1.0000
  C   C3511     1.0  0.79017  0.68787  0.44520  1.0000
  H   H5617     1.0  0.80577  0.75564  0.23855  1.0000
  H   H5618     1.0  0.69495  0.65360  0.41168  1.0000
  C   C3512     1.0  0.67387  0.67611  0.37639  1.0000
  S   S1407     1.0  0.68628  0.75176  0.36302  1.0000
  H   H5619     1.0  0.70252  0.76397  0.27011  1.0000
  H   H5620     1.0  0.73604  0.70457  0.25097  1.0000
  S   S1408     1.0  0.69206  0.66568  0.24173  1.0000
  C   C3513     1.0  0.75555  0.66361  0.29770  1.0000
  H   H5621     1.0  0.69644  0.69209  0.40533  1.0000
  C   C3514     1.0  0.66906  0.68675  0.38468  1.0000
  C   C3515     1.0  0.74104  0.70594  0.28346  1.0000
  S   S1409     1.0  0.74210  0.77808  0.24324  1.0000
  H   H5622     1.0  0.70359  0.74047  0.28761  1.0000
  C   C3516     1.0  0.67681  0.75556  0.32421  1.0000
  H   H5623     1.0  0.75766  0.68063  0.44790  1.0000
  C   C3517     1.0  0.73688  0.70109  0.27339  1.0000
  C   C3518     1.0  0.76355  0.66929  0.33612  1.0000
  Fe  Fe704     1.0  0.72996  0.67754  0.25978  1.0000
  C   C3519     1.0  0.81883  0.82435  0.24611  1.0000
  H   H5624     1.0  0.70242  0.74278  0.24385  1.0000
  H   H5625     1.0  0.70476  0.72435  0.28157  1.0000
  H   H5626     1.0  0.74447  0.65734  0.32646  1.0000
  H   H5627     1.0  0.67384  0.81161  0.46469  1.0000
  H   H5628     1.0  0.68660  0.66603  0.43920  1.0000
  C   C3520     1.0  0.66252  0.68320  0.39929  1.0000
  S   S1410     1.0  0.67612  0.78092  0.23753  1.0000
  H   H5629     1.0  0.74702  0.75227  0.23269  1.0000
  Fe  Fe705     1.0  0.66687  0.74430  0.37840  1.0000
  H   H5630     1.0  0.77305  0.76455  0.25025  1.0000
  H   H5631     1.0  0.78617  0.82340  0.24157  1.0000
  H   H5632     1.0  0.80163  0.68296  0.44122  1.0000
  H   H5633     1.0  0.85318  0.77404  0.23125  1.0000
  H   H5634     1.0  0.67751  0.67142  0.42442  1.0000
  Fe  Fe706     1.0  0.86024  0.79790  0.23231  1.0000
  H   H5635     1.0  0.75341  0.65983  0.41271  1.0000
  H   H5636     1.0  0.70947  0.68347  0.42619  1.0000
  H   H5637     1.0  0.82903  0.85532  0.23607  1.0000
  C   C3521     1.0  0.78235  0.67942  0.42814  1.0000
  H   H5638     1.0  0.78885  0.68811  0.45679  1.0000
  C   C3522     1.0  0.79888  0.70616  0.23406  1.0000
  H   H5639     1.0  0.73343  0.65438  0.29454  1.0000
  H   H5640     1.0  0.67060  0.75088  0.31986  1.0000
  C   C3523     1.0  0.68305  0.80798  0.47027  1.0000
  C   C3524     1.0  0.65931  0.77272  0.45525  1.0000
  H   H5641     1.0  0.85905  0.72686  0.23464  1.0000
  C   C3525     1.0  0.69958  0.68066  0.40410  1.0000
  C   C3526     1.0  0.73481  0.65264  0.30581  1.0000
  N   N353      1.0  0.70027  0.67046  0.41815  1.0000
  H   H5642     1.0  0.68866  0.83371  0.46872  1.0000
  H   H5643     1.0  0.79258  0.74548  0.24011  1.0000
  C   C3527     1.0  0.79801  0.75419  0.23290  1.0000
  H   H5644     1.0  0.80536  0.80456  0.23138  1.0000
  C   C3528     1.0  0.67886  0.83103  0.47670  1.0000
  S   S1411     1.0  0.71387  0.65536  0.37773  1.0000
  H   H5645     1.0  0.85547  0.70997  0.23477  1.0000
  H   H5646     1.0  0.68434  0.79608  0.47411  1.0000
  H   H5647     1.0  0.79492  0.65914  0.44813  1.0000
  H   H5648     1.0  0.77199  0.71770  0.23079  1.0000
  S   S1412     1.0  0.66963  0.74571  0.49920  1.0000
  H   H5649     1.0  0.79715  0.67250  0.69779  1.0000
  C   C3529     1.0  0.71924  0.68869  0.50378  1.0000
  H   H5650     1.0  0.80453  0.75496  0.54736  1.0000
  H   H5651     1.0  0.81404  0.67138  0.71369  1.0000
  S   S1413     1.0  0.82892  0.69698  0.71341  1.0000
  Fe  Fe707     1.0  0.84781  0.70344  0.71647  1.0000
  S   S1414     1.0  0.85372  0.72490  0.70582  1.0000
  S   S1415     1.0  0.66497  0.78341  0.62069  1.0000
  H   H5652     1.0  0.73248  0.73069  0.54196  1.0000
  H   H5653     1.0  0.72320  0.71120  0.52850  1.0000
  S   S1416     1.0  0.69807  0.87577  0.67061  1.0000
  Fe  Fe708     1.0  0.94057  0.82413  0.66975  1.0000
  S   S1417     1.0  0.92525  0.83954  0.68294  1.0000
  S   S1418     1.0  0.96473  0.81700  0.66971  1.0000
  Fe  Fe709     1.0  0.91522  0.81497  0.66302  1.0000
  S   S1419     1.0  0.89851  0.82959  0.67616  1.0000
  S   S1420     1.0  0.90846  0.79767  0.65629  1.0000
  Fe  Fe710     1.0  0.91256  0.84572  0.66545  1.0000
  S   S1421     1.0  0.90294  0.86866  0.65540  1.0000
  Fe  Fe711     1.0  0.91282  0.82189  0.69218  1.0000
  S   S1422     1.0  0.90529  0.81537  0.71625  1.0000
  S   S1423     1.0  0.92879  0.83147  0.65126  1.0000
  S   S1424     1.0  0.92861  0.80616  0.67998  1.0000
  Fe  Fe712     1.0  0.82335  0.78448  0.62975  1.0000
  S   S1425     1.0  0.83329  0.79594  0.60805  1.0000
  S   S1426     1.0  0.80155  0.79643  0.63893  1.0000
  Fe  Fe713     1.0  0.84763  0.75827  0.62870  1.0000
  S   S1427     1.0  0.85924  0.76772  0.60655  1.0000
  S   S1428     1.0  0.85537  0.73517  0.63912  1.0000
  Fe  Fe714     1.0  0.85414  0.78770  0.61576  1.0000
  S   S1429     1.0  0.86821  0.80371  0.61277  1.0000
  Fe  Fe715     1.0  0.83712  0.77490  0.60135  1.0000
  S   S1430     1.0  0.82744  0.77560  0.58253  1.0000
  S   S1431     1.0  0.84370  0.77779  0.63813  1.0000
  S   S1432     1.0  0.82606  0.76394  0.62280  1.0000
  Fe  Fe716     1.0  0.77502  0.72126  0.55764  1.0000
  S   S1433     1.0  0.79520  0.71487  0.54162  1.0000
  S   S1434     1.0  0.75659  0.73824  0.55071  1.0000
  Fe  Fe717     1.0  0.78566  0.69981  0.58293  1.0000
  S   S1435     1.0  0.80661  0.69144  0.56904  1.0000
  S   S1436     1.0  0.77880  0.69163  0.60672  1.0000
  Fe  Fe718     1.0  0.80633  0.71492  0.55900  1.0000
  S   S1437     1.0  0.82590  0.72441  0.55543  1.0000
  Fe  Fe719     1.0  0.79325  0.69221  0.55339  1.0000
  S   S1438     1.0  0.79376  0.67228  0.54572  1.0000
  S   S1439     1.0  0.78616  0.72313  0.57394  1.0000
  S   S1440     1.0  0.77228  0.69887  0.56822  1.0000
  S   S1441     1.0  0.72814  0.81608  0.70800  1.0000
  C   C3530     1.0  0.98963  0.81692  0.67742  1.0000
  C   C3531     1.0  0.66735  0.81225  0.49288  1.0000
  H   H5654     1.0  0.67748  0.76288  0.59153  1.0000
  C   C3532     1.0  0.74874  0.90881  0.72669  1.0000
  Fe  Fe720     1.0  0.83658  0.94894  0.65738  1.0000
  S   S1442     1.0  0.82631  0.93312  0.67543  1.0000
  S   S1443     1.0  0.83915  0.94809  0.63415  1.0000
  Fe  Fe721     1.0  0.84525  0.96262  0.67772  1.0000
  S   S1444     1.0  0.83539  0.94768  0.69728  1.0000
  S   S1445     1.0  0.70496  0.66798  0.50514  1.0000
  Fe  Fe722     1.0  0.84563  0.93026  0.68461  1.0000
  S   S1446     1.0  0.85745  0.90862  0.69512  1.0000
  Fe  Fe723     1.0  0.81723  0.95213  0.68604  1.0000
  S   S1447     1.0  0.79393  0.95761  0.69669  1.0000
  S   S1448     1.0  0.85671  0.94475  0.66579  1.0000
  S   S1449     1.0  0.82619  0.96842  0.66727  1.0000
  Fe  Fe724     1.0  0.76877  0.89294  0.65299  1.0000
  S   S1450     1.0  0.76708  0.90321  0.63011  1.0000
  S   S1451     1.0  0.75111  0.89979  0.67110  1.0000
  Fe  Fe725     1.0  0.79523  0.87063  0.64407  1.0000
  S   S1452     1.0  0.79527  0.87873  0.62045  1.0000
  S   S1453     1.0  0.81214  0.85188  0.65140  1.0000
  Fe  Fe726     1.0  0.79103  0.90044  0.62611  1.0000
  S   S1454     1.0  0.80361  0.91672  0.61159  1.0000
  Fe  Fe727     1.0  0.77135  0.88044  0.62708  1.0000
  S   S1455     1.0  0.75472  0.87445  0.61893  1.0000
  S   S1456     1.0  0.79241  0.89211  0.64936  1.0000
  S   S1457     1.0  0.77181  0.87042  0.65037  1.0000
  Fe  Fe728     1.0  0.71505  0.82735  0.58088  1.0000
  S   S1458     1.0  0.72947  0.83606  0.56019  1.0000
  H   H5655     1.0  0.89869  0.70038  0.71133  1.0000
  Fe  Fe729     1.0  0.73528  0.79836  0.58563  1.0000
  S   S1459     1.0  0.75152  0.80482  0.56586  1.0000
  S   S1460     1.0  0.73963  0.77549  0.59767  1.0000
  Fe  Fe730     1.0  0.74683  0.82571  0.57316  1.0000
  S   S1461     1.0  0.76577  0.83394  0.57450  1.0000
  Fe  Fe731     1.0  0.73253  0.81411  0.55517  1.0000
  S   S1462     1.0  0.73308  0.80564  0.53556  1.0000
  S   S1463     1.0  0.73210  0.81824  0.59402  1.0000
  S   S1464     1.0  0.71668  0.80661  0.57476  1.0000
  Fe  Fe732     1.0  0.72716  0.65740  0.49508  1.0000
  H   H5656     1.0  0.78667  0.76252  0.56913  1.0000
  C   C3533     1.0  0.71726  0.80157  0.53365  1.0000
  C   C3534     1.0  0.70357  0.80822  0.54023  1.0000
  N   N354      1.0  0.78471  0.79636  0.60135  1.0000
  C   C3535     1.0  0.79549  0.75852  0.54158  1.0000
  C   C3536     1.0  0.70597  0.78868  0.52303  1.0000
  C   C3537     1.0  0.71839  0.79177  0.52506  1.0000
  H   H5657     1.0  0.78293  0.79200  0.54919  1.0000
  H   H5658     1.0  0.70702  0.78111  0.51641  1.0000
  H   H5659     1.0  0.72893  0.78656  0.51994  1.0000
  C   C3538     1.0  0.75832  0.86267  0.60698  1.0000
  C   C3539     1.0  0.77227  0.85743  0.59977  1.0000
  C   C3540     1.0  0.77447  0.84862  0.58983  1.0000
  C   C3541     1.0  0.76277  0.84485  0.58718  1.0000
  C   C3542     1.0  0.74888  0.84983  0.59466  1.0000
  C   C3543     1.0  0.74667  0.85874  0.60445  1.0000
  H   H5660     1.0  0.78131  0.86044  0.60159  1.0000
  H   H5661     1.0  0.78525  0.84490  0.58401  1.0000
  H   H5662     1.0  0.73978  0.84711  0.59264  1.0000
  H   H5663     1.0  0.73584  0.86278  0.60994  1.0000
  C   C3544     1.0  0.82835  0.93974  0.62864  1.0000
  C   C3545     1.0  0.83150  0.93893  0.61409  1.0000
  C   C3546     1.0  0.82373  0.93194  0.60913  1.0000
  C   C3547     1.0  0.81279  0.92548  0.61866  1.0000
  C   C3548     1.0  0.80951  0.92626  0.63330  1.0000
  C   C3549     1.0  0.81725  0.93346  0.63828  1.0000
  H   H5664     1.0  0.84001  0.94377  0.60657  1.0000
  H   H5665     1.0  0.82627  0.93149  0.59781  1.0000
  H   H5666     1.0  0.80086  0.92157  0.64069  1.0000
  H   H5667     1.0  0.81455  0.93430  0.64948  1.0000
  C   C3550     1.0  0.70583  0.68519  0.50637  1.0000
  C   C3551     1.0  0.69328  0.69555  0.50963  1.0000
  C   C3552     1.0  0.69421  0.70950  0.50987  1.0000
  C   C3553     1.0  0.70768  0.71311  0.50668  1.0000
  H   H5668     1.0  0.85252  0.73788  0.61073  1.0000
  C   C3554     1.0  0.67237  0.79861  0.61241  1.0000
  H   H5669     1.0  0.68286  0.69286  0.51178  1.0000
  H   H5670     1.0  0.68451  0.71743  0.51249  1.0000
  C   C3555     1.0  0.74894  0.74777  0.56454  1.0000
  C   C3556     1.0  0.74301  0.76249  0.56103  1.0000
  C   C3557     1.0  0.73980  0.77090  0.57136  1.0000
  C   C3558     1.0  0.74204  0.76458  0.58537  1.0000
  C   C3559     1.0  0.74702  0.74966  0.58917  1.0000
  C   C3560     1.0  0.75052  0.74125  0.57872  1.0000
  H   H5671     1.0  0.74170  0.76760  0.55009  1.0000
  H   H5672     1.0  0.73610  0.78236  0.56821  1.0000
  H   H5673     1.0  0.74868  0.74468  0.60002  1.0000
  H   H5674     1.0  0.75481  0.72978  0.58158  1.0000
  C   C3561     1.0  0.78675  0.67377  0.53047  1.0000
  C   C3562     1.0  0.78676  0.68598  0.51919  1.0000
  C   C3563     1.0  0.78191  0.68645  0.50680  1.0000
  C   C3564     1.0  0.77672  0.67487  0.50572  1.0000
  H   H5675     1.0  0.72899  0.68070  0.50170  1.0000
  C   C3565     1.0  0.78153  0.66221  0.52940  1.0000
  H   H5676     1.0  0.79096  0.69484  0.51982  1.0000
  H   H5677     1.0  0.73723  0.84081  0.68740  1.0000
  H   H5678     1.0  0.96090  0.84518  0.67682  1.0000
  H   H5679     1.0  0.79618  0.69327  0.70781  1.0000
  C   C3566     1.0  0.80397  0.81162  0.64325  1.0000
  C   C3567     1.0  0.79493  0.82501  0.63954  1.0000
  C   C3568     1.0  0.79742  0.83738  0.64210  1.0000
  C   C3569     1.0  0.80868  0.83632  0.64875  1.0000
  C   C3570     1.0  0.81763  0.82288  0.65259  1.0000
  C   C3571     1.0  0.81538  0.81056  0.64967  1.0000
  H   H5680     1.0  0.78632  0.82591  0.63425  1.0000
  H   H5681     1.0  0.79081  0.84775  0.63859  1.0000
  H   H5682     1.0  0.82638  0.82201  0.65767  1.0000
  H   H5683     1.0  0.82235  0.80019  0.65257  1.0000
  C   C3572     1.0  0.82750  0.75984  0.57712  1.0000
  C   C3573     1.0  0.83984  0.75315  0.56846  1.0000
  C   C3574     1.0  0.83924  0.74208  0.56221  1.0000
  C   C3575     1.0  0.82634  0.73752  0.56458  1.0000
  C   C3576     1.0  0.81411  0.74384  0.57369  1.0000
  C   C3577     1.0  0.81464  0.75507  0.57980  1.0000
  H   H5684     1.0  0.84971  0.75697  0.56603  1.0000
  H   H5685     1.0  0.84875  0.73731  0.55514  1.0000
  H   H5686     1.0  0.80419  0.74028  0.57580  1.0000
  H   H5687     1.0  0.80502  0.76024  0.58640  1.0000
  C   C3578     1.0  0.86986  0.89751  0.68394  1.0000
  C   C3579     1.0  0.87382  0.90262  0.66903  1.0000
  C   C3580     1.0  0.88419  0.89375  0.66043  1.0000
  C   C3581     1.0  0.89042  0.87962  0.66663  1.0000
  C   C3582     1.0  0.88637  0.87446  0.68152  1.0000
  C   C3583     1.0  0.87618  0.88343  0.69016  1.0000
  H   H5688     1.0  0.86902  0.91345  0.66412  1.0000
  H   H5689     1.0  0.88734  0.89779  0.64891  1.0000
  H   H5690     1.0  0.89113  0.86358  0.68638  1.0000
  H   H5691     1.0  0.87318  0.87941  0.70169  1.0000
  C   C3584     1.0  0.89697  0.79986  0.64432  1.0000
  C   C3585     1.0  0.89165  0.78794  0.64431  1.0000
  C   C3586     1.0  0.88251  0.78910  0.63503  1.0000
  C   C3587     1.0  0.87896  0.80208  0.62528  1.0000
  C   C3588     1.0  0.88433  0.81400  0.62523  1.0000
  C   C3589     1.0  0.89310  0.81298  0.63487  1.0000
  H   H5692     1.0  0.89475  0.77768  0.65139  1.0000
  H   H5693     1.0  0.87860  0.77979  0.63508  1.0000
  H   H5694     1.0  0.88186  0.82403  0.61759  1.0000
  H   H5695     1.0  0.89723  0.82219  0.63466  1.0000
  H   H5696     1.0  0.88355  0.92531  0.67398  1.0000
  H   H5697     1.0  0.77675  0.78634  0.58900  1.0000
  H   H5698     1.0  0.70369  0.80964  0.60612  1.0000
  C   C3590     1.0  0.71230  0.88319  0.67065  1.0000
  C   C3591     1.0  0.72377  0.88369  0.65872  1.0000
  C   C3592     1.0  0.73569  0.88871  0.65894  1.0000
  C   C3593     1.0  0.73607  0.89354  0.67098  1.0000
  C   C3594     1.0  0.72446  0.89328  0.68285  1.0000
  C   C3595     1.0  0.71263  0.88798  0.68273  1.0000
  H   H5699     1.0  0.72361  0.87982  0.64945  1.0000
  H   H5700     1.0  0.74448  0.88897  0.64968  1.0000
  H   H5701     1.0  0.72466  0.89695  0.69221  1.0000
  H   H5702     1.0  0.70370  0.88769  0.69195  1.0000
  H   H5703     1.0  0.82089  0.73375  0.61918  1.0000
  C   C3596     1.0  0.96106  0.81538  0.71342  1.0000
  C   C3597     1.0  0.79785  0.93275  0.71752  1.0000
  H   H5704     1.0  0.74207  0.85676  0.67512  1.0000
  H   H5705     1.0  0.80929  0.93184  0.71328  1.0000
  H   H5706     1.0  0.72830  0.70574  0.54563  1.0000
  C   C3598     1.0  0.80190  0.66861  0.60617  1.0000
  C   C3599     1.0  0.78813  0.67432  0.61342  1.0000
  C   C3600     1.0  0.78144  0.66594  0.62601  1.0000
  H   H5707     1.0  0.69128  0.81510  0.49887  1.0000
  H   H5708     1.0  0.80729  0.67515  0.59671  1.0000
  N   N355      1.0  0.89078  0.71789  0.72259  1.0000
  H   H5709     1.0  0.71133  0.78274  0.56359  1.0000
  C   C3601     1.0  0.85454  0.72777  0.68722  1.0000
  C   C3602     1.0  0.85373  0.71661  0.68133  1.0000
  C   C3603     1.0  0.85422  0.71892  0.66651  1.0000
  C   C3604     1.0  0.85532  0.73245  0.65755  1.0000
  C   C3605     1.0  0.85635  0.74356  0.66339  1.0000
  C   C3606     1.0  0.85601  0.74121  0.67822  1.0000
  H   H5710     1.0  0.85269  0.70617  0.68816  1.0000
  H   H5711     1.0  0.85352  0.71025  0.66205  1.0000
  H   H5712     1.0  0.85763  0.75389  0.65648  1.0000
  H   H5713     1.0  0.85672  0.74983  0.68272  1.0000
  C   C3607     1.0  0.90358  0.77405  0.71854  1.0000
  C   C3608     1.0  0.90559  0.78826  0.71321  1.0000
  C   C3609     1.0  0.98081  0.84481  0.68248  1.0000
  H   H5714     1.0  0.90563  0.76696  0.71117  1.0000
  H   H5715     1.0  0.90888  0.79214  0.70173  1.0000
  C   C3610     1.0  0.79280  0.92282  0.72986  1.0000
  H   H5716     1.0  0.68052  0.76480  0.57227  1.0000
  H   H5717     1.0  0.95631  0.79758  0.69931  1.0000
  C   C3611     1.0  0.97585  0.82491  0.67555  1.0000
  C   C3612     1.0  0.97143  0.83886  0.67826  1.0000
  C   C3613     1.0  0.73254  0.70657  0.53381  1.0000
  C   C3614     1.0  0.66026  0.84590  0.64883  1.0000
  S   S1465     1.0  0.67206  0.86165  0.70833  1.0000
  Fe  Fe733     1.0  0.69304  0.86077  0.69199  1.0000
  H   H5718     1.0  0.70504  0.90525  0.71741  1.0000
  H   H5719     1.0  0.77865  0.67181  0.70601  1.0000
  H   H5720     1.0  0.90252  0.92157  0.67314  1.0000
  C   C3615     1.0  0.66422  0.81121  0.60542  1.0000
  H   H5721     1.0  0.88762  0.77708  0.67789  1.0000
  N   N356      1.0  0.68056  0.81529  0.48235  1.0000
  N   N357      1.0  0.84140  0.84302  0.61115  1.0000
  C   C3616     1.0  0.85329  0.84347  0.59826  1.0000
  C   C3617     1.0  0.83158  0.85734  0.61051  1.0000
  C   C3618     1.0  0.84734  0.83905  0.62434  1.0000
  C   C3619     1.0  0.83336  0.83218  0.61152  1.0000
  H   H5722     1.0  0.85963  0.85151  0.59762  1.0000
  H   H5723     1.0  0.84920  0.84632  0.58811  1.0000
  H   H5724     1.0  0.86089  0.83279  0.59845  1.0000
  H   H5725     1.0  0.82675  0.86064  0.60079  1.0000
  H   H5726     1.0  0.82257  0.85728  0.62016  1.0000
  H   H5727     1.0  0.83724  0.86583  0.61021  1.0000
  H   H5728     1.0  0.83865  0.83906  0.63424  1.0000
  H   H5729     1.0  0.85397  0.84663  0.62421  1.0000
  H   H5730     1.0  0.85424  0.82800  0.62553  1.0000
  H   H5731     1.0  0.82896  0.83460  0.60162  1.0000
  H   H5732     1.0  0.82419  0.83167  0.62097  1.0000
  H   H5733     1.0  0.84036  0.82120  0.61239  1.0000
  N   N358      1.0  0.69404  0.77435  0.57918  1.0000
  H   H5734     1.0  0.70693  0.78006  0.59052  1.0000
  C   C3620     1.0  0.94671  0.80337  0.70609  1.0000
  H   H5735     1.0  0.78161  0.65267  0.53798  1.0000
  H   H5736     1.0  0.67508  0.78884  0.58776  1.0000
  S   S1466     1.0  0.70932  0.73046  0.50671  1.0000
  C   C3621     1.0  0.76830  0.93514  0.72865  1.0000
  C   C3622     1.0  0.67032  0.82331  0.59867  1.0000
  Fe  Fe734     1.0  0.67456  0.77539  0.51611  1.0000
  H   H5737     1.0  0.93202  0.82382  0.72067  1.0000
  H   H5738     1.0  0.82129  0.66388  0.67875  1.0000
  C   C3623     1.0  0.90296  0.71373  0.73001  1.0000
  H   H5739     1.0  0.69444  0.79809  0.49409  1.0000
  H   H5740     1.0  0.69475  0.88417  0.71965  1.0000
  H   H5741     1.0  0.70032  0.77606  0.55615  1.0000
  H   H5742     1.0  0.66665  0.82002  0.62962  1.0000
  H   H5743     1.0  0.72526  0.85236  0.67615  1.0000
  H   H5744     1.0  0.82814  0.90935  0.65925  1.0000
  H   H5745     1.0  0.86166  0.87422  0.64718  1.0000
  H   H5746     1.0  0.70871  0.92797  0.61101  1.0000
  C   C3624     1.0  0.69292  0.80991  0.48959  1.0000
  H   H5747     1.0  0.73447  0.91753  0.64266  1.0000
  S   S1467     1.0  0.86328  0.68294  0.71236  1.0000
  N   N359      1.0  0.74380  0.83924  0.66505  1.0000
  C   C3625     1.0  0.75898  0.83293  0.66604  1.0000
  C   C3626     1.0  0.73623  0.82753  0.66705  1.0000
  C   C3627     1.0  0.74315  0.84884  0.65070  1.0000
  C   C3628     1.0  0.73680  0.84766  0.67642  1.0000
  H   H5748     1.0  0.76506  0.84143  0.66456  1.0000
  H   H5749     1.0  0.76461  0.82644  0.65767  1.0000
  H   H5750     1.0  0.75980  0.82566  0.67680  1.0000
  H   H5751     1.0  0.74102  0.82117  0.65847  1.0000
  H   H5752     1.0  0.73680  0.81989  0.67764  1.0000
  H   H5753     1.0  0.72463  0.83187  0.66684  1.0000
  H   H5754     1.0  0.73183  0.85345  0.64947  1.0000
  H   H5755     1.0  0.74876  0.84306  0.64175  1.0000
  H   H5756     1.0  0.74830  0.85809  0.64899  1.0000
  H   H5757     1.0  0.80875  0.65512  0.72474  1.0000
  H   H5758     1.0  0.76390  0.71575  0.53204  1.0000
  H   H5759     1.0  0.91167  0.92926  0.69041  1.0000
  C   C3629     1.0  0.70098  0.77157  0.59157  1.0000
  H   H5760     1.0  0.72768  0.73534  0.52460  1.0000
  H   H5761     1.0  0.82728  0.72629  0.59587  1.0000
  H   H5762     1.0  0.90060  0.91924  0.70514  1.0000
  H   H5763     1.0  0.83185  0.70766  0.60445  1.0000
  H   H5764     1.0  0.71988  0.93298  0.64235  1.0000
  N   N360      1.0  0.74347  0.71559  0.52822  1.0000
  C   C3630     1.0  0.73677  0.73045  0.53031  1.0000
  Fe  Fe735     1.0  0.66881  0.76911  0.48922  1.0000
  C   C3631     1.0  0.83615  0.71767  0.59970  1.0000
  H   H5765     1.0  0.82500  0.71512  0.62820  1.0000
  H   H5766     1.0  0.84471  0.71576  0.58997  1.0000
  C   C3632     1.0  0.72354  0.92190  0.64018  1.0000
  C   C3633     1.0  0.77284  0.77490  0.53880  1.0000
  C   C3634     1.0  0.72916  0.80534  0.72520  1.0000
  H   H5767     1.0  0.68744  0.83129  0.62393  1.0000
  C   C3635     1.0  0.85439  0.87921  0.65616  1.0000
  C   C3636     1.0  0.74926  0.71591  0.51264  1.0000
  H   H5768     1.0  0.76810  0.76562  0.53942  1.0000
  H   H5769     1.0  0.91320  0.70935  0.72298  1.0000
  H   H5770     1.0  0.79518  0.80854  0.60902  1.0000
  C   C3637     1.0  0.82970  0.72478  0.62267  1.0000
  C   C3638     1.0  0.73772  0.79139  0.72654  1.0000
  N   N361      1.0  0.84162  0.72183  0.61029  1.0000
  H   H5771     1.0  0.85592  0.73345  0.59341  1.0000
  C   C3639     1.0  0.75527  0.70943  0.53615  1.0000
  C   C3640     1.0  0.72017  0.70263  0.50372  1.0000
  S   S1468     1.0  0.77122  0.67562  0.48977  1.0000
  H   H5772     1.0  0.68066  0.81091  0.54277  1.0000
  H   H5773     1.0  0.83342  0.72795  0.63090  1.0000
  C   C3641     1.0  0.84751  0.73494  0.60334  1.0000
  H   H5774     1.0  0.84908  0.69990  0.62079  1.0000
  H   H5775     1.0  0.66512  0.81751  0.50222  1.0000
  H   H5776     1.0  0.97738  0.85574  0.68421  1.0000
  H   H5777     1.0  0.69614  0.78770  0.71891  1.0000
  S   S1469     1.0  0.67535  0.75246  0.52830  1.0000
  C   C3642     1.0  0.85310  0.70998  0.61546  1.0000
  H   H5778     1.0  0.78011  0.80397  0.58009  1.0000
  H   H5779     1.0  0.76246  0.79566  0.61061  1.0000
  H   H5780     1.0  0.84840  0.87106  0.66365  1.0000
  H   H5781     1.0  0.74469  0.73758  0.52610  1.0000
  H   H5782     1.0  0.86134  0.88137  0.66225  1.0000
  H   H5783     1.0  0.86232  0.70759  0.60641  1.0000
  H   H5784     1.0  0.73123  0.92428  0.70891  1.0000
  H   H5785     1.0  0.89928  0.93807  0.70411  1.0000
  H   H5786     1.0  0.82731  0.89896  0.63914  1.0000
  S   S1470     1.0  0.67627  0.79293  0.52640  1.0000
  C   C3643     1.0  0.78411  0.79372  0.58742  1.0000
  C   C3644     1.0  0.95626  0.79230  0.72758  1.0000
  H   H5787     1.0  0.82827  0.88147  0.65098  1.0000
  H   H5788     1.0  0.79498  0.78883  0.58171  1.0000
  H   H5789     1.0  0.76572  0.81334  0.60188  1.0000
  S   S1471     1.0  0.68842  0.83173  0.72677  1.0000
  H   H5790     1.0  0.75133  0.70948  0.54787  1.0000
  C   C3645     1.0  0.83488  0.88909  0.64344  1.0000
  H   H5791     1.0  0.85996  0.90598  0.64547  1.0000
  H   H5792     1.0  0.84569  0.91296  0.63586  1.0000
  C   C3646     1.0  0.77636  0.66283  0.51716  1.0000
  H   H5793     1.0  0.79091  0.74889  0.54305  1.0000
  C   C3647     1.0  0.77013  0.80283  0.60859  1.0000
  H   H5794     1.0  0.78314  0.77473  0.61288  1.0000
  C   C3648     1.0  0.89180  0.92264  0.68063  1.0000
  H   H5795     1.0  0.71624  0.91515  0.64805  1.0000
  H   H5796     1.0  0.74080  0.72144  0.50625  1.0000
  H   H5797     1.0  0.83898  0.74437  0.60021  1.0000
  H   H5798     1.0  0.85737  0.71282  0.62355  1.0000
  C   C3649     1.0  0.85285  0.90283  0.64031  1.0000
  H   H5799     1.0  0.77079  0.67033  0.63168  1.0000
  H   H5800     1.0  0.72776  0.65202  0.70522  1.0000
  C   C3650     1.0  0.68403  0.78859  0.57807  1.0000
  C   C3651     1.0  0.79019  0.78254  0.61069  1.0000
  H   H5801     1.0  0.77024  0.80490  0.61917  1.0000
  C   C3652     1.0  0.77837  0.76546  0.56252  1.0000
  N   N362      1.0  0.78444  0.77043  0.54703  1.0000
  H   H5802     1.0  0.79058  0.81689  0.59169  1.0000
  H   H5803     1.0  0.80122  0.77745  0.60559  1.0000
  H   H5804     1.0  0.69931  0.80061  0.72690  1.0000
  H   H5805     1.0  0.76952  0.77390  0.56688  1.0000
  H   H5806     1.0  0.69294  0.78833  0.61798  1.0000
  C   C3653     1.0  0.68662  0.79805  0.61254  1.0000
  H   H5807     1.0  0.73060  0.94204  0.61653  1.0000
  H   H5808     1.0  0.89598  0.78640  0.68556  1.0000
  S   S1472     1.0  0.69598  0.83759  0.69139  1.0000
  H   H5809     1.0  0.82926  0.89184  0.67107  1.0000
  C   C3654     1.0  0.79443  0.80634  0.59871  1.0000
  H   H5810     1.0  0.80553  0.80178  0.59325  1.0000
  H   H5811     1.0  0.79078  0.78415  0.62130  1.0000
  H   H5812     1.0  0.65983  0.80162  0.69531  1.0000
  N   N363      1.0  0.72367  0.92187  0.62508  1.0000
  C   C3655     1.0  0.73374  0.93068  0.61508  1.0000
  H   H5813     1.0  0.88758  0.77202  0.69691  1.0000
  N   N364      1.0  0.84447  0.89258  0.65072  1.0000
  C   C3656     1.0  0.88658  0.78135  0.68762  1.0000
  H   H5814     1.0  0.77687  0.77930  0.52716  1.0000
  H   H5815     1.0  0.75439  0.93168  0.70554  1.0000
  H   H5816     1.0  0.70251  0.81589  0.54675  1.0000
  H   H5817     1.0  0.73414  0.93089  0.60359  1.0000
  C   C3657     1.0  0.70903  0.92797  0.62226  1.0000
  H   H5818     1.0  0.72922  0.90645  0.61140  1.0000
  H   H5819     1.0  0.74490  0.92630  0.61690  1.0000
  H   H5820     1.0  0.87157  0.79926  0.66810  1.0000
  C   C3658     1.0  0.83573  0.89923  0.66298  1.0000
  C   C3659     1.0  0.68594  0.76301  0.58139  1.0000
  S   S1473     1.0  0.68893  0.76961  0.49566  1.0000
  C   C3660     1.0  0.79103  0.78281  0.54523  1.0000
  H   H5821     1.0  0.88810  0.95666  0.68518  1.0000
  H   H5822     1.0  0.89525  0.73881  0.71187  1.0000
  H   H5823     1.0  0.73911  0.90175  0.62540  1.0000
  C   C3661     1.0  0.72836  0.90691  0.62281  1.0000
  H   H5824     1.0  0.86125  0.77566  0.70393  1.0000
  H   H5825     1.0  0.76391  0.78341  0.54302  1.0000
  H   H5826     1.0  0.70313  0.81197  0.48202  1.0000
  Fe  Fe736     1.0  0.68842  0.74674  0.50737  1.0000
  H   H5827     1.0  0.70118  0.92158  0.62973  1.0000
  H   H5828     1.0  0.88084  0.80903  0.67425  1.0000
  C   C3662     1.0  0.69270  0.81011  0.60583  1.0000
  C   C3663     1.0  0.69228  0.79562  0.52933  1.0000
  H   H5829     1.0  0.70515  0.93930  0.62377  1.0000
  H   H5830     1.0  0.72074  0.90005  0.62976  1.0000
  C   C3664     1.0  0.70516  0.77417  0.56569  1.0000
  H   H5831     1.0  0.85019  0.79206  0.69610  1.0000
  N   N365      1.0  0.87286  0.79184  0.69050  1.0000
  C   C3665     1.0  0.87161  0.80352  0.67752  1.0000
  C   C3666     1.0  0.86075  0.78443  0.69407  1.0000
  H   H5832     1.0  0.77387  0.75575  0.56433  1.0000
  H   H5833     1.0  0.76572  0.95386  0.71136  1.0000
  C   C3667     1.0  0.69118  0.80539  0.53793  1.0000
  H   H5834     1.0  0.85977  0.89815  0.63100  1.0000
  H   H5835     1.0  0.78912  0.69290  0.72667  1.0000
  N   N366      1.0  0.75158  0.90979  0.71095  1.0000
  H   H5836     1.0  0.79983  0.77979  0.55130  1.0000
  C   C3668     1.0  0.89004  0.94795  0.67916  1.0000
  H   H5837     1.0  0.86219  0.80575  0.70553  1.0000
  H   H5838     1.0  0.88132  0.80406  0.70025  1.0000
  C   C3669     1.0  0.82346  0.65417  0.68689  1.0000
  C   C3670     1.0  0.87253  0.79805  0.70278  1.0000
  H   H5839     1.0  0.76251  0.92184  0.69136  1.0000
  S   S1474     1.0  0.66260  0.82206  0.71002  1.0000
  S   S1475     1.0  0.84167  0.66744  0.69264  1.0000
  H   H5840     1.0  0.66529  0.85980  0.62109  1.0000
  C   C3671     1.0  0.83275  0.65324  0.69584  1.0000
  H   H5841     1.0  0.86650  0.93717  0.69295  1.0000
  H   H5842     1.0  0.86085  0.77946  0.68508  1.0000
  H   H5843     1.0  0.66840  0.80049  0.49742  1.0000
  C   C3672     1.0  0.68458  0.82274  0.59888  1.0000
  C   C3673     1.0  0.66185  0.84940  0.62325  1.0000
  N   N367      1.0  0.95030  0.80616  0.71862  1.0000
  H   H5844     1.0  0.79575  0.78684  0.53366  1.0000
  H   H5845     1.0  0.90062  0.94786  0.67149  1.0000
  H   H5846     1.0  0.87394  0.78949  0.71266  1.0000
  S   S1476     1.0  0.70709  0.85623  0.70793  1.0000
  H   H5847     1.0  0.88468  0.73235  0.70351  1.0000
  H   H5848     1.0  0.86155  0.81185  0.67937  1.0000
  H   H5849     1.0  0.66655  0.84489  0.61337  1.0000
  H   H5850     1.0  0.73108  0.90561  0.71170  1.0000
  H   H5851     1.0  0.67912  0.79130  0.56845  1.0000
  H   H5852     1.0  0.90366  0.72492  0.70169  1.0000
  H   H5853     1.0  0.67692  0.83685  0.48557  1.0000
  C   C3674     1.0  0.87521  0.93449  0.69901  1.0000
  S   S1477     1.0  0.69254  0.83755  0.59021  1.0000
  C   C3675     1.0  0.78256  0.65925  0.58535  1.0000
  H   H5854     1.0  0.76027  0.69807  0.53514  1.0000
  H   H5855     1.0  0.73941  0.91489  0.69436  1.0000
  H   H5856     1.0  0.93826  0.79684  0.70953  1.0000
  H   H5857     1.0  0.84263  0.90207  0.66869  1.0000
  Fe  Fe737     1.0  0.68649  0.85550  0.72442  1.0000
  H   H5858     1.0  0.75351  0.70482  0.51050  1.0000
  H   H5859     1.0  0.80016  0.76177  0.52986  1.0000
  H   H5860     1.0  0.77677  0.66281  0.59562  1.0000
  C   C3676     1.0  0.78807  0.94408  0.71100  1.0000
  H   H5861     1.0  0.73061  0.70527  0.50112  1.0000
  C   C3677     1.0  0.73775  0.91383  0.70623  1.0000
  H   H5862     1.0  0.84112  0.88406  0.63414  1.0000
  H   H5863     1.0  0.88672  0.69639  0.72845  1.0000
  H   H5864     1.0  0.69316  0.75211  0.58227  1.0000
  C   C3678     1.0  0.93713  0.81360  0.72730  1.0000
  C   C3679     1.0  0.69837  0.78919  0.72889  1.0000
  N   N368      1.0  0.88946  0.93375  0.68909  1.0000
  C   C3680     1.0  0.78984  0.66818  0.70786  1.0000
  H   H5865     1.0  0.78234  0.69574  0.49793  1.0000
  H   H5866     1.0  0.88161  0.95121  0.67261  1.0000
  C   C3681     1.0  0.90315  0.79742  0.72272  1.0000
  C   C3682     1.0  0.90076  0.92992  0.69757  1.0000
  Fe  Fe738     1.0  0.67618  0.83777  0.70898  1.0000
  Fe  Fe739     1.0  0.70790  0.83311  0.70899  1.0000
  H   H5867     1.0  0.73703  0.69544  0.53183  1.0000
  H   H5868     1.0  0.77732  0.69375  0.71521  1.0000
  H   H5869     1.0  0.76227  0.89609  0.69580  1.0000
  N   N369      1.0  0.79120  0.67298  0.72039  1.0000
  C   C3683     1.0  0.77330  0.94514  0.71646  1.0000
  H   H5870     1.0  0.95683  0.82593  0.70664  1.0000
  H   H5871     1.0  0.89105  0.91184  0.68779  1.0000
  H   H5872     1.0  0.94257  0.81365  0.69894  1.0000
  N   N370      1.0  0.66652  0.83928  0.63608  1.0000
  H   H5873     1.0  0.87289  0.94295  0.70540  1.0000
  H   H5874     1.0  0.68956  0.79739  0.57715  1.0000
  H   H5875     1.0  0.75323  0.88715  0.71286  1.0000
  H   H5876     1.0  0.71538  0.65305  0.53160  1.0000
  H   H5877     1.0  0.75817  0.72185  0.50832  1.0000
  Fe  Fe740     1.0  0.84386  0.67567  0.71124  1.0000
  H   H5878     1.0  0.87431  0.92396  0.70666  1.0000
  S   S1478     1.0  0.85810  0.97615  0.68267  1.0000
  C   C3684     1.0  0.69587  0.88681  0.72924  1.0000
  H   H5879     1.0  0.83426  0.65637  0.64072  1.0000
  H   H5880     1.0  0.96622  0.78644  0.72131  1.0000
  H   H5881     1.0  0.97104  0.81018  0.70660  1.0000
  C   C3685     1.0  0.76017  0.92086  0.70328  1.0000
  H   H5882     1.0  0.66345  0.83853  0.65877  1.0000
  H   H5883     1.0  0.70888  0.76107  0.59251  1.0000
  H   H5884     1.0  0.74407  0.78749  0.71698  1.0000
  H   H5885     1.0  0.71300  0.76364  0.56619  1.0000
  H   H5886     1.0  0.77250  0.65381  0.51639  1.0000
  H   H5887     1.0  0.86805  0.72694  0.72706  1.0000
  H   H5888     1.0  0.68627  0.82831  0.64304  1.0000
  C   C3686     1.0  0.70173  0.89876  0.72800  1.0000
  C   C3687     1.0  0.88891  0.70506  0.71874  1.0000
  C   C3688     1.0  0.89374  0.72900  0.70930  1.0000
  H   H5889     1.0  0.77066  0.91821  0.70665  1.0000
  C   C3689     1.0  0.68239  0.83609  0.63364  1.0000
  H   H5890     1.0  0.74254  0.91926  0.72956  1.0000
  H   H5891     1.0  0.76993  0.89211  0.71143  1.0000
  H   H5892     1.0  0.69289  0.77131  0.60196  1.0000
  C   C3690     1.0  0.80593  0.66711  0.72300  1.0000
  H   H5893     1.0  0.66407  0.81816  0.64874  1.0000
  H   H5894     1.0  0.67011  0.79368  0.72959  1.0000
  H   H5895     1.0  0.96417  0.81767  0.72253  1.0000
  H   H5896     1.0  0.65937  0.69519  0.72404  1.0000
  Fe  Fe741     1.0  0.75836  0.65967  0.48967  1.0000
  H   H5897     1.0  0.68652  0.84605  0.63179  1.0000
  H   H5898     1.0  0.79264  0.65619  0.70950  1.0000
  C   C3691     1.0  0.66153  0.82573  0.63864  1.0000
  H   H5899     1.0  0.66379  0.85613  0.64737  1.0000
  C   C3692     1.0  0.75962  0.89565  0.70763  1.0000
  C   C3693     1.0  0.78830  0.68893  0.71737  1.0000
  H   H5900     1.0  0.68422  0.69534  0.72391  1.0000
  H   H5901     1.0  0.79348  0.66171  0.58256  1.0000
  H   H5902     1.0  0.66049  0.74402  0.68642  1.0000
  H   H5903     1.0  0.77688  0.66607  0.57667  1.0000
  H   H5904     1.0  0.66410  0.83298  0.59307  1.0000
  H   H5905     1.0  0.70909  0.78233  0.73031  1.0000
  H   H5906     1.0  0.66372  0.67584  0.72714  1.0000
  H   H5907     1.0  0.68904  0.67592  0.72734  1.0000
  H   H5908     1.0  0.72811  0.65489  0.72941  1.0000
  H   H5909     1.0  0.87977  0.70776  0.71319  1.0000
  C   C3694     1.0  0.80883  0.65443  0.61133  1.0000
  H   H5910     1.0  0.65777  0.81597  0.48785  1.0000
  H   H5911     1.0  0.77008  0.87408  0.90228  1.0000
  H   H5912     1.0  0.69865  0.70452  0.79814  1.0000
  C   C3695     1.0  0.70557  0.84638  0.97276  1.0000
  Fe  Fe742     1.0  0.81693  0.73374  0.91823  1.0000
  S   S1479     1.0  0.82216  0.74510  0.89482  1.0000
  S   S1480     1.0  0.81313  0.74708  0.93522  1.0000
  Fe  Fe743     1.0  0.81409  0.70686  0.90991  1.0000
  S   S1481     1.0  0.81907  0.71604  0.88624  1.0000
  S   S1482     1.0  0.80935  0.68465  0.91819  1.0000
  Fe  Fe744     1.0  0.83631  0.72373  0.89113  1.0000
  S   S1483     1.0  0.85886  0.71830  0.87792  1.0000
  Fe  Fe745     1.0  0.80449  0.73624  0.89204  1.0000
  S   S1484     1.0  0.78629  0.74690  0.88050  1.0000
  S   S1485     1.0  0.83245  0.71297  0.91474  1.0000
  S   S1486     1.0  0.79815  0.72653  0.91556  1.0000
  H   H5913     1.0  0.71491  0.82136  0.73662  1.0000
  S   S1487     1.0  0.78541  0.68274  0.84683  1.0000
  C   C3696     1.0  0.82927  0.69166  0.78939  1.0000
  S   S1488     1.0  0.76207  0.68651  0.82679  1.0000
  H   H5914     1.0  0.75015  0.96334  0.80774  1.0000
  H   H5915     1.0  0.75609  0.66503  0.78927  1.0000
  Fe  Fe746     1.0  0.76412  0.69696  0.84356  1.0000
  S   S1489     1.0  0.75977  0.72099  0.84079  1.0000
  S   S1490     1.0  0.75083  0.68400  0.86185  1.0000
  Fe  Fe747     1.0  0.90289  0.71168  0.78228  1.0000
  S   S1491     1.0  0.88353  0.72926  0.77909  1.0000
  S   S1492     1.0  0.90251  0.68827  0.78513  1.0000
  Fe  Fe748     1.0  0.92154  0.73253  0.78148  1.0000
  S   S1493     1.0  0.90340  0.75165  0.77805  1.0000
  S   S1494     1.0  0.94298  0.73847  0.77904  1.0000
  Fe  Fe749     1.0  0.88950  0.73800  0.79513  1.0000
  S   S1495     1.0  0.87266  0.74898  0.81171  1.0000
  Fe  Fe750     1.0  0.89928  0.74110  0.76242  1.0000
  H   H5916     1.0  0.72260  0.76921  0.85903  1.0000
  S   S1496     1.0  0.90791  0.71944  0.79968  1.0000
  S   S1497     1.0  0.91836  0.72283  0.76452  1.0000
  H   H5917     1.0  0.72926  0.88922  0.89007  1.0000
  N   N371      1.0  0.74207  0.77309  0.84372  1.0000
  H   H5918     1.0  0.69693  0.69075  0.81422  1.0000
  Fe  Fe751     1.0  0.75862  0.82368  0.87683  1.0000
  S   S1498     1.0  0.74386  0.81111  0.89375  1.0000
  S   S1499     1.0  0.78167  0.81351  0.86914  1.0000
  Fe  Fe752     1.0  0.73588  0.85116  0.87571  1.0000
  S   S1500     1.0  0.71921  0.84073  0.89278  1.0000
  S   S1501     1.0  0.73289  0.87491  0.86572  1.0000
  Fe  Fe753     1.0  0.73743  0.83003  0.90449  1.0000
  S   S1502     1.0  0.73889  0.82474  0.92819  1.0000
  Fe  Fe754     1.0  0.72739  0.82282  0.88028  1.0000
  S   S1503     1.0  0.71486  0.80883  0.87569  1.0000
  S   S1504     1.0  0.75338  0.84180  0.88830  1.0000
  S   S1505     1.0  0.74282  0.83406  0.86254  1.0000
  S   S1506     1.0  0.71247  0.78060  0.80899  1.0000
  Fe  Fe755     1.0  0.69455  0.76857  0.81614  1.0000
  S   S1507     1.0  0.69596  0.74812  0.83320  1.0000
  Fe  Fe756     1.0  0.72320  0.93879  0.77536  1.0000
  S   S1508     1.0  0.73990  0.92105  0.78498  1.0000
  C   C3697     1.0  0.78705  0.66625  0.89394  1.0000
  Fe  Fe757     1.0  0.71870  0.91986  0.75689  1.0000
  S   S1509     1.0  0.73516  0.90122  0.76514  1.0000
  N   N372      1.0  0.65981  0.83997  0.77976  1.0000
  Fe  Fe758     1.0  0.72481  0.90674  0.78679  1.0000
  S   S1510     1.0  0.71912  0.88744  0.80368  1.0000
  Fe  Fe759     1.0  0.74834  0.91741  0.76230  1.0000
  H   H5919     1.0  0.83307  0.68409  0.89552  1.0000
  S   S1511     1.0  0.70734  0.92467  0.77872  1.0000
  S   S1512     1.0  0.73257  0.93590  0.75261  1.0000
  H   H5920     1.0  0.78447  0.71148  0.87953  1.0000
  H   H5921     1.0  0.76954  0.72291  0.89951  1.0000
  S   S1513     1.0  0.73978  0.87212  0.96111  1.0000
  C   C3698     1.0  0.67210  0.84285  0.78367  1.0000
  H   H5922     1.0  0.72022  0.77797  0.84105  1.0000
  H   H5923     1.0  0.84953  0.74936  0.95698  1.0000
  H   H5924     1.0  0.71025  0.66721  0.82601  1.0000
  H   H5925     1.0  0.67101  0.83863  0.75795  1.0000
  H   H5926     1.0  0.75300  0.75086  0.84859  1.0000
  H   H5927     1.0  0.69215  0.68543  0.73911  1.0000
  N   N373      1.0  0.85070  0.67897  0.87815  1.0000
  H   H5928     1.0  0.75952  0.73618  0.88742  1.0000
  H   H5929     1.0  0.83177  0.69951  0.77902  1.0000
  H   H5930     1.0  0.97798  0.75524  0.79390  1.0000
  S   S1514     1.0  0.69775  0.82002  0.81489  1.0000
  C   C3699     1.0  0.75179  0.76133  0.85164  1.0000
  H   H5931     1.0  0.87179  0.66920  0.88252  1.0000
  H   H5932     1.0  0.72988  0.88221  0.90885  1.0000
  C   C3700     1.0  0.66719  0.67601  0.78763  1.0000
  C   C3701     1.0  0.76198  0.69988  0.89587  1.0000
  H   H5933     1.0  0.71596  0.72578  0.81199  1.0000
  H   H5934     1.0  0.94841  0.78507  0.73154  1.0000
  H   H5935     1.0  0.75156  0.89067  0.87169  1.0000
  H   H5936     1.0  0.73624  0.78633  0.85957  1.0000
  C   C3702     1.0  0.70224  0.81706  0.83191  1.0000
  S   S1515     1.0  0.70841  0.65806  0.75560  1.0000
  H   H5937     1.0  0.92743  0.75453  0.82782  1.0000
  C   C3703     1.0  0.89686  0.77801  0.74295  1.0000
  C   C3704     1.0  0.84413  0.69043  0.86716  1.0000
  H   H5938     1.0  0.70626  0.85188  0.77090  1.0000
  H   H5939     1.0  0.97963  0.71736  0.79182  1.0000
  C   C3705     1.0  0.78399  0.94046  0.76495  1.0000
  C   C3706     1.0  0.77242  0.96390  0.77038  1.0000
  H   H5940     1.0  0.84641  0.70107  0.86666  1.0000
  H   H5941     1.0  0.69649  0.76299  0.74588  1.0000
  H   H5942     1.0  0.69852  0.85067  0.80348  1.0000
  C   C3707     1.0  0.72964  0.65582  0.83362  1.0000
  H   H5943     1.0  0.74974  0.70967  0.87297  1.0000
  H   H5944     1.0  0.73009  0.84858  0.80260  1.0000
  H   H5945     1.0  0.75174  0.78955  0.84565  1.0000
  S   S1516     1.0  0.71054  0.91756  0.73831  1.0000
  H   H5946     1.0  0.70673  0.86497  0.80310  1.0000
  C   C3708     1.0  0.69030  0.78798  0.75456  1.0000
  C   C3709     1.0  0.69849  0.89415  0.75400  1.0000
  S   S1517     1.0  0.72894  0.77540  0.76949  1.0000
  H   H5947     1.0  0.73406  0.79599  0.84177  1.0000
  H   H5948     1.0  0.93110  0.76151  0.80871  1.0000
  H   H5949     1.0  0.70476  0.69227  0.83554  1.0000
  C   C3710     1.0  0.74100  0.78681  0.84784  1.0000
  H   H5950     1.0  0.89618  0.77174  0.83385  1.0000
  C   C3711     1.0  0.80054  0.66920  0.79743  1.0000
  H   H5951     1.0  0.71515  0.80539  0.76077  1.0000
  C   C3712     1.0  0.73949  0.83803  0.93700  1.0000
  C   C3713     1.0  0.73402  0.85268  0.93201  1.0000
  C   C3714     1.0  0.73420  0.86295  0.93955  1.0000
  C   C3715     1.0  0.74007  0.85873  0.95198  1.0000
  C   C3716     1.0  0.74559  0.84408  0.95694  1.0000
  C   C3717     1.0  0.74515  0.83377  0.94957  1.0000
  H   H5952     1.0  0.72931  0.85599  0.92258  1.0000
  H   H5953     1.0  0.72965  0.87422  0.93582  1.0000
  H   H5954     1.0  0.75024  0.84068  0.96643  1.0000
  H   H5955     1.0  0.74936  0.82245  0.95352  1.0000
  C   C3718     1.0  0.72884  0.87864  0.84854  1.0000
  C   C3719     1.0  0.73104  0.89152  0.83866  1.0000
  C   C3720     1.0  0.72815  0.89436  0.82478  1.0000
  C   C3721     1.0  0.72291  0.88439  0.82086  1.0000
  C   C3722     1.0  0.72052  0.87165  0.83082  1.0000
  C   C3723     1.0  0.72350  0.86877  0.84461  1.0000
  H   H5956     1.0  0.73511  0.89921  0.84169  1.0000
  H   H5957     1.0  0.72992  0.90425  0.81716  1.0000
  H   H5958     1.0  0.71632  0.86397  0.82790  1.0000
  H   H5959     1.0  0.72143  0.85900  0.85227  1.0000
  C   C3724     1.0  0.70979  0.81250  0.85888  1.0000
  H   H5960     1.0  0.76276  0.76361  0.84925  1.0000
  H   H5961     1.0  0.80347  0.81928  0.97413  1.0000
  C   C3725     1.0  0.67406  0.68731  0.78576  1.0000
  C   C3726     1.0  0.70024  0.80459  0.84243  1.0000
  C   C3727     1.0  0.70384  0.80240  0.85590  1.0000
  H   H5962     1.0  0.90465  0.66006  0.78173  1.0000
  H   H5963     1.0  0.69565  0.79673  0.84029  1.0000
  H   H5964     1.0  0.70202  0.79284  0.86407  1.0000
  C   C3728     1.0  0.73572  0.88133  0.89764  1.0000
  H   H5965     1.0  0.84837  0.68804  0.85617  1.0000
  C   C3729     1.0  0.73782  0.78235  0.74024  1.0000
  H   H5966     1.0  0.73584  0.87041  0.89628  1.0000
  H   H5967     1.0  0.89319  0.77421  0.75440  1.0000
  C   C3730     1.0  0.89438  0.68216  0.77457  1.0000
  C   C3731     1.0  0.89730  0.66732  0.77520  1.0000
  H   H5968     1.0  0.69451  0.84955  0.97060  1.0000
  C   C3732     1.0  0.88130  0.67086  0.75898  1.0000
  C   C3733     1.0  0.87812  0.68576  0.75843  1.0000
  C   C3734     1.0  0.88477  0.69145  0.76614  1.0000
  H   H5969     1.0  0.67837  0.84940  0.77430  1.0000
  C   C3735     1.0  0.81170  0.66967  0.77212  1.0000
  H   H5970     1.0  0.87038  0.69277  0.75229  1.0000
  H   H5971     1.0  0.88226  0.70290  0.76586  1.0000
  C   C3736     1.0  0.96217  0.74795  0.78777  1.0000
  C   C3737     1.0  0.74210  0.72787  0.83830  1.0000
  C   C3738     1.0  0.73947  0.73827  0.82593  1.0000
  C   C3739     1.0  0.72532  0.74416  0.82410  1.0000
  C   C3740     1.0  0.71375  0.74005  0.83485  1.0000
  C   C3741     1.0  0.71641  0.72934  0.84704  1.0000
  C   C3742     1.0  0.73059  0.72314  0.84869  1.0000
  H   H5972     1.0  0.74837  0.74153  0.81760  1.0000
  H   H5973     1.0  0.72343  0.75162  0.81420  1.0000
  H   H5974     1.0  0.70750  0.72590  0.85525  1.0000
  H   H5975     1.0  0.73252  0.71485  0.85811  1.0000
  H   H5976     1.0  0.86550  0.75125  0.96117  1.0000
  C   C3743     1.0  0.79057  0.68180  0.79343  1.0000
  C   C3744     1.0  0.79105  0.68824  0.77879  1.0000
  C   C3745     1.0  0.80177  0.68232  0.76816  1.0000
  H   H5977     1.0  0.78269  0.68680  0.80156  1.0000
  H   H5978     1.0  0.78339  0.69808  0.77574  1.0000
  C   C3746     1.0  0.81914  0.74113  0.95175  1.0000
  C   C3747     1.0  0.82878  0.72801  0.95503  1.0000
  C   C3748     1.0  0.83373  0.72417  0.96807  1.0000
  H   H5979     1.0  0.95903  0.79398  0.73720  1.0000
  H   H5980     1.0  0.85705  0.66387  0.78154  1.0000
  C   C3749     1.0  0.81439  0.75023  0.96169  1.0000
  H   H5981     1.0  0.83252  0.72087  0.94749  1.0000
  H   H5982     1.0  0.84128  0.71405  0.97045  1.0000
  H   H5983     1.0  0.66406  0.79262  0.74868  1.0000
  H   H5984     1.0  0.80685  0.76034  0.95933  1.0000
  C   C3750     1.0  0.86220  0.72651  0.85940  1.0000
  C   C3751     1.0  0.85277  0.73884  0.85379  1.0000
  C   C3752     1.0  0.85604  0.74554  0.83909  1.0000
  C   C3753     1.0  0.86853  0.73975  0.82986  1.0000
  C   C3754     1.0  0.87779  0.72721  0.83541  1.0000
  C   C3755     1.0  0.87470  0.72071  0.85018  1.0000
  H   H5985     1.0  0.84312  0.74340  0.86081  1.0000
  H   H5986     1.0  0.84885  0.75526  0.83487  1.0000
  H   H5987     1.0  0.88741  0.72262  0.82841  1.0000
  H   H5988     1.0  0.88204  0.71117  0.85448  1.0000
  C   C3756     1.0  0.78547  0.76546  0.87474  1.0000
  C   C3757     1.0  0.79780  0.77096  0.87222  1.0000
  C   C3758     1.0  0.79674  0.78589  0.86949  1.0000
  C   C3759     1.0  0.78332  0.79528  0.86949  1.0000
  C   C3760     1.0  0.77111  0.78983  0.87117  1.0000
  C   C3761     1.0  0.77218  0.77490  0.87379  1.0000
  H   H5989     1.0  0.80815  0.76371  0.87246  1.0000
  H   H5990     1.0  0.80623  0.79012  0.86793  1.0000
  H   H5991     1.0  0.76079  0.79710  0.87076  1.0000
  H   H5992     1.0  0.76262  0.77069  0.87574  1.0000
  C   C3762     1.0  0.80108  0.67780  0.90836  1.0000
  H   H5993     1.0  0.83375  0.67544  0.81504  1.0000
  H   H5994     1.0  0.87122  0.67481  0.86363  1.0000
  H   H5995     1.0  0.83533  0.66583  0.88160  1.0000
  C   C3763     1.0  0.79385  0.67777  0.88644  1.0000
  C   C3764     1.0  0.80079  0.68361  0.89370  1.0000
  H   H5996     1.0  0.79498  0.66138  0.92683  1.0000
  C   C3765     1.0  0.71874  0.65764  0.82620  1.0000
  H   H5997     1.0  0.79360  0.68222  0.87517  1.0000
  H   H5998     1.0  0.80586  0.69256  0.88797  1.0000
  C   C3766     1.0  0.95183  0.73938  0.79213  1.0000
  H   H5999     1.0  0.69930  0.89706  0.76358  1.0000
  N   N374      1.0  0.75046  0.88384  0.89462  1.0000
  C   C3767     1.0  0.75765  0.88274  0.87956  1.0000
  C   C3768     1.0  0.95754  0.73188  0.81602  1.0000
  C   C3769     1.0  0.94946  0.73138  0.80635  1.0000
  C   C3770     1.0  0.96810  0.74027  0.81152  1.0000
  C   C3771     1.0  0.75873  0.87292  0.90467  1.0000
  H   H6000     1.0  0.95589  0.72546  0.82692  1.0000
  H   H6001     1.0  0.94179  0.72444  0.80974  1.0000
  H   H6002     1.0  0.75400  0.87388  0.91609  1.0000
  N   N375      1.0  0.84205  0.68020  0.79206  1.0000
  C   C3772     1.0  0.82917  0.73343  0.97788  1.0000
  Fe  Fe760     1.0  0.77203  0.66888  0.86402  1.0000
  H   H6003     1.0  0.79479  0.94247  0.76407  1.0000
  H   H6004     1.0  0.73639  0.95101  0.79870  1.0000
  H   H6005     1.0  0.71368  0.70624  0.83457  1.0000
  H   H6006     1.0  0.69699  0.72901  0.81315  1.0000
  H   H6007     1.0  0.78155  0.67110  0.74301  1.0000
  H   H6008     1.0  0.78280  0.96706  0.76899  1.0000
  H   H6009     1.0  0.75026  0.72548  0.90325  1.0000
  C   C3773     1.0  0.72231  0.69835  0.80924  1.0000
  S   S1518     1.0  0.84272  0.69633  0.74061  1.0000
  C   C3774     1.0  0.85353  0.68678  0.79296  1.0000
  Fe  Fe761     1.0  0.67723  0.78869  0.79472  1.0000
  H   H6010     1.0  0.69660  0.86702  0.78977  1.0000
  S   S1519     1.0  0.83899  0.66581  0.73495  1.0000
  C   C3775     1.0  0.70511  0.70382  0.83072  1.0000
  H   H6011     1.0  0.73765  0.83814  0.78881  1.0000
  H   H6012     1.0  0.70939  0.72498  0.79690  1.0000
  H   H6013     1.0  0.67755  0.76744  0.75349  1.0000
  H   H6014     1.0  0.68199  0.78525  0.76442  1.0000
  S   S1520     1.0  0.77199  0.91268  0.75200  1.0000
  H   H6015     1.0  0.75996  0.94314  0.75589  1.0000
  C   C3776     1.0  0.89089  0.66173  0.76741  1.0000
  C   C3777     1.0  0.69106  0.87862  0.74288  1.0000
  C   C3778     1.0  0.71363  0.84467  0.77795  1.0000
  C   C3779     1.0  0.72107  0.81040  0.73757  1.0000
  C   C3780     1.0  0.70422  0.85912  0.79613  1.0000
  H   H6016     1.0  0.82503  0.69777  0.79822  1.0000
  H   H6017     1.0  0.78538  0.93287  0.75782  1.0000
  H   H6018     1.0  0.77995  0.95366  0.73832  1.0000
  Fe  Fe762     1.0  0.70376  0.66243  0.77778  1.0000
  N   N376      1.0  0.76147  0.71426  0.88608  1.0000
  H   H6019     1.0  0.67306  0.80666  0.73765  1.0000
  C   C3781     1.0  0.72740  0.84286  0.79560  1.0000
  Fe  Fe763     1.0  0.85689  0.67532  0.73640  1.0000
  H   H6020     1.0  0.80718  0.67008  0.73269  1.0000
  H   H6021     1.0  0.70086  0.78114  0.75661  1.0000
  H   H6022     1.0  0.73092  0.70116  0.81269  1.0000
  N   N377      1.0  0.78282  0.78148  0.91693  1.0000
  C   C3782     1.0  0.78115  0.78085  0.93248  1.0000
  C   C3783     1.0  0.77240  0.79403  0.91092  1.0000
  C   C3784     1.0  0.78013  0.76807  0.91505  1.0000
  C   C3785     1.0  0.79760  0.78295  0.90924  1.0000
  H   H6023     1.0  0.78885  0.77146  0.93737  1.0000
  H   H6024     1.0  0.77010  0.77973  0.93857  1.0000
  H   H6025     1.0  0.78311  0.79080  0.93427  1.0000
  H   H6026     1.0  0.77417  0.80439  0.91196  1.0000
  H   H6027     1.0  0.77329  0.79476  0.89922  1.0000
  H   H6028     1.0  0.76111  0.79338  0.91654  1.0000
  H   H6029     1.0  0.78142  0.76814  0.90343  1.0000
  H   H6030     1.0  0.76904  0.76664  0.92058  1.0000
  H   H6031     1.0  0.78780  0.75839  0.91954  1.0000
  H   H6032     1.0  0.79917  0.78347  0.89748  1.0000
  H   H6033     1.0  0.80575  0.77360  0.91345  1.0000
  H   H6034     1.0  0.80002  0.79297  0.91035  1.0000
  C   C3786     1.0  0.74783  0.77454  0.82800  1.0000
  H   H6035     1.0  0.74879  0.76437  0.82453  1.0000
  H   H6036     1.0  0.75870  0.77714  0.82482  1.0000
  H   H6037     1.0  0.74069  0.78326  0.82169  1.0000
  H   H6038     1.0  0.96405  0.75420  0.77680  1.0000
  H   H6039     1.0  0.68587  0.70853  0.81418  1.0000
  H   H6040     1.0  0.93943  0.81630  0.73664  1.0000
  H   H6041     1.0  0.75853  0.65485  0.80693  1.0000
  C   C3787     1.0  0.70316  0.90243  0.74034  1.0000
  H   H6042     1.0  0.87853  0.73370  0.73516  1.0000
  S   S1521     1.0  0.97876  0.74000  0.82356  1.0000
  H   H6043     1.0  0.85629  0.69499  0.78298  1.0000
  H   H6044     1.0  0.90112  0.70529  0.74004  1.0000
  H   H6045     1.0  0.67959  0.83265  0.78740  1.0000
  H   H6046     1.0  0.81858  0.65314  0.78981  1.0000
  H   H6047     1.0  0.67799  0.67046  0.75997  1.0000
  H   H6048     1.0  0.83902  0.66709  0.77917  1.0000
  S   S1522     1.0  0.87307  0.66286  0.75011  1.0000
  H   H6049     1.0  0.84941  0.67424  0.90115  1.0000
  C   C3788     1.0  0.89916  0.76891  0.73341  1.0000
  H   H6050     1.0  0.69468  0.71050  0.83526  1.0000
  C   C3789     1.0  0.74971  0.89842  0.89660  1.0000
  H   H6051     1.0  0.74430  0.89964  0.90786  1.0000
  H   H6052     1.0  0.74355  0.90691  0.88915  1.0000
  H   H6053     1.0  0.76064  0.90070  0.89444  1.0000
  N   N378      1.0  0.90916  0.75956  0.81794  1.0000
  C   C3790     1.0  0.89843  0.76078  0.83156  1.0000
  C   C3791     1.0  0.92282  0.76242  0.81887  1.0000
  C   C3792     1.0  0.90359  0.77010  0.80578  1.0000
  H   H6054     1.0  0.88799  0.75872  0.83106  1.0000
  H   H6055     1.0  0.90460  0.72311  0.73322  1.0000
  H   H6056     1.0  0.76417  0.97397  0.76812  1.0000
  H   H6057     1.0  0.92131  0.77344  0.82075  1.0000
  H   H6058     1.0  0.91141  0.76944  0.79531  1.0000
  H   H6059     1.0  0.90133  0.78136  0.80729  1.0000
  H   H6060     1.0  0.89336  0.76808  0.80468  1.0000
  H   H6061     1.0  0.74841  0.72846  0.87145  1.0000
  H   H6062     1.0  0.76331  0.69130  0.88985  1.0000
  C   C3793     1.0  0.72444  0.86436  0.77686  1.0000
  H   H6063     1.0  0.71708  0.87234  0.77028  1.0000
  C   C3794     1.0  0.77801  0.92416  0.73561  1.0000
  H   H6064     1.0  0.75889  0.86175  0.90399  1.0000
  H   H6065     1.0  0.75840  0.87187  0.87767  1.0000
  C   C3795     1.0  0.72120  0.80135  0.75127  1.0000
  C   C3796     1.0  0.73649  0.96232  0.79427  1.0000
  H   H6066     1.0  0.83211  0.78857  0.95326  1.0000
  H   H6067     1.0  0.76876  0.88468  0.87680  1.0000
  H   H6068     1.0  0.67254  0.82175  0.77078  1.0000
  S   S1523     1.0  0.80267  0.69090  0.74999  1.0000
  H   H6069     1.0  0.82937  0.77433  0.96877  1.0000
  C   C3797     1.0  0.72763  0.76968  0.84738  1.0000
  H   H6070     1.0  0.74767  0.75987  0.86353  1.0000
  H   H6071     1.0  0.89684  0.79931  0.74501  1.0000
  Fe  Fe764     1.0  0.70990  0.78143  0.78681  1.0000
  C   C3798     1.0  0.72939  0.78725  0.75260  1.0000
  C   C3799     1.0  0.71185  0.82497  0.84834  1.0000
  C   C3800     1.0  0.75710  0.65403  0.79632  1.0000
  S   S1524     1.0  0.72655  0.65423  0.77998  1.0000
  H   H6072     1.0  0.83033  0.77152  0.95118  1.0000
  H   H6073     1.0  0.72810  0.75911  0.84498  1.0000
  C   C3801     1.0  0.66512  0.83219  0.76776  1.0000
  C   C3802     1.0  0.83493  0.77666  0.95720  1.0000
  S   S1525     1.0  0.69331  0.76785  0.79388  1.0000
  H   H6074     1.0  0.67202  0.69701  0.75586  1.0000
  H   H6075     1.0  0.85341  0.76749  0.93424  1.0000
  Fe  Fe765     1.0  0.69493  0.80043  0.80880  1.0000
  H   H6076     1.0  0.71628  0.83289  0.85055  1.0000
  Fe  Fe766     1.0  0.75044  0.67213  0.84534  1.0000
  H   H6077     1.0  0.67333  0.66509  0.78823  1.0000
  N   N379      1.0  0.85066  0.77128  0.95547  1.0000
  C   C3803     1.0  0.85375  0.75571  0.96213  1.0000
  H   H6078     1.0  0.86826  0.77541  0.96176  1.0000
  H   H6079     1.0  0.72336  0.83955  0.77080  1.0000
  C   C3804     1.0  0.70791  0.82732  0.83498  1.0000
  S   S1526     1.0  0.69284  0.68426  0.78275  1.0000
  C   C3805     1.0  0.85644  0.77927  0.96263  1.0000
  H   H6080     1.0  0.77474  0.72481  0.86719  1.0000
  N   N380      1.0  0.77362  0.95403  0.76091  1.0000
  C   C3806     1.0  0.85748  0.77349  0.93992  1.0000
  H   H6081     1.0  0.85134  0.77801  0.97432  1.0000
  H   H6082     1.0  0.85523  0.78511  0.93454  1.0000
  H   H6083     1.0  0.84867  0.75363  0.97386  1.0000
  H   H6084     1.0  0.67119  0.71017  0.78394  1.0000
  S   S1527     1.0  0.67690  0.78846  0.81783  1.0000
  H   H6085     1.0  0.86937  0.76962  0.93823  1.0000
  H   H6086     1.0  0.78026  0.93471  0.77623  1.0000
  H   H6087     1.0  0.90216  0.75279  0.84094  1.0000
  H   H6088     1.0  0.70925  0.83715  0.82708  1.0000
  H   H6089     1.0  0.75517  0.94573  0.77404  1.0000
  H   H6090     1.0  0.84995  0.67986  0.76951  1.0000
  H   H6091     1.0  0.85426  0.79107  0.95792  1.0000
  H   H6092     1.0  0.83223  0.69169  0.86961  1.0000
  S   S1528     1.0  0.69388  0.80235  0.78580  1.0000
  H   H6093     1.0  0.73866  0.71824  0.88735  1.0000
  S   S1529     1.0  0.72954  0.66971  0.84191  1.0000
  H   H6094     1.0  0.68833  0.87631  0.76584  1.0000
  C   C3807     1.0  0.69230  0.88239  0.75526  1.0000
  H   H6095     1.0  0.86361  0.67854  0.79426  1.0000
  H   H6096     1.0  0.87499  0.71599  0.74248  1.0000
  H   H6097     1.0  0.72484  0.70028  0.79723  1.0000
  C   C3808     1.0  0.97019  0.74847  0.79741  1.0000
  H   H6098     1.0  0.72299  0.68656  0.81345  1.0000
  S   S1530     1.0  0.71772  0.96216  0.77771  1.0000
  H   H6099     1.0  0.84753  0.69301  0.89268  1.0000
  C   C3809     1.0  0.91176  0.74484  0.81548  1.0000
  H   H6100     1.0  0.90159  0.74221  0.81520  1.0000
  H   H6101     1.0  0.91934  0.74367  0.80499  1.0000
  H   H6102     1.0  0.81989  0.66495  0.76393  1.0000
  C   C3810     1.0  0.79470  0.66603  0.91557  1.0000
  N   N381      1.0  0.70795  0.70673  0.81475  1.0000
  H   H6103     1.0  0.66843  0.84883  0.79260  1.0000
  H   H6104     1.0  0.66060  0.76689  0.78222  1.0000
  H   H6105     1.0  0.74221  0.90060  0.73276  1.0000
  C   C3811     1.0  0.84720  0.66513  0.87861  1.0000
  H   H6106     1.0  0.91637  0.73655  0.82418  1.0000
  C   C3812     1.0  0.81940  0.74644  0.97463  1.0000
  N   N382      1.0  0.71741  0.85275  0.78662  1.0000
  H   H6107     1.0  0.73423  0.85999  0.76928  1.0000
  H   H6108     1.0  0.70821  0.83590  0.78501  1.0000
  S   S1531     1.0  0.68324  0.86381  0.74477  1.0000
  H   H6109     1.0  0.72782  0.87038  0.78304  1.0000
  H   H6110     1.0  0.77110  0.69688  0.90151  1.0000
  H   H6111     1.0  0.78932  0.96367  0.74397  1.0000
  C   C3813     1.0  0.69686  0.70248  0.81013  1.0000
  C   C3814     1.0  0.70755  0.72230  0.80891  1.0000
  H   H6112     1.0  0.74429  0.77149  0.74124  1.0000
  C   C3815     1.0  0.76008  0.72519  0.89446  1.0000
  C   C3816     1.0  0.84495  0.68274  0.89249  1.0000
  C   C3817     1.0  0.74413  0.98412  0.79402  1.0000
  H   H6113     1.0  0.69083  0.79943  0.75330  1.0000
  H   H6114     1.0  0.77616  0.70604  0.86815  1.0000
  C   C3818     1.0  0.78768  0.66035  0.90844  1.0000
  H   H6115     1.0  0.72260  0.83374  0.80282  1.0000
  C   C3819     1.0  0.81095  0.66300  0.78675  1.0000
  H   H6116     1.0  0.82039  0.68710  0.78867  1.0000
  C   C3820     1.0  0.74898  0.71786  0.87921  1.0000
  H   H6117     1.0  0.65915  0.82074  0.79647  1.0000
  H   H6118     1.0  0.85200  0.65624  0.88678  1.0000
  C   C3821     1.0  0.86647  0.67764  0.87439  1.0000
  Fe  Fe767     1.0  0.78210  0.67077  0.83184  1.0000
  S   S1532     1.0  0.77035  0.65552  0.84936  1.0000
  C   C3822     1.0  0.77481  0.71411  0.87476  1.0000
  H   H6119     1.0  0.75695  0.93615  0.73269  1.0000
  C   C3823     1.0  0.77867  0.96094  0.74569  1.0000
  H   H6120     1.0  0.75195  0.69950  0.90434  1.0000
  H   H6121     1.0  0.86935  0.68800  0.87396  1.0000
  H   H6122     1.0  0.78249  0.65573  0.73583  1.0000
  C   C3824     1.0  0.75939  0.95078  0.76266  1.0000
  C   C3825     1.0  0.72851  0.97008  0.78376  1.0000
  C   C3826     1.0  0.78074  0.66772  0.73334  1.0000
  C   C3827     1.0  0.84724  0.67243  0.78008  1.0000
  C   C3828     1.0  0.74420  0.96935  0.79943  1.0000
  H   H6123     1.0  0.67485  0.66148  0.74781  1.0000
  S   S1533     1.0  0.89603  0.75131  0.73970  1.0000
  S   S1534     1.0  0.80055  0.66119  0.81563  1.0000
  C   C3829     1.0  0.67072  0.67111  0.75280  1.0000
  C   C3830     1.0  0.66476  0.69708  0.74889  1.0000
  H   H6124     1.0  0.78240  0.65930  0.78020  1.0000
  H   H6125     1.0  0.75127  0.96069  0.75953  1.0000
  H   H6126     1.0  0.85023  0.69228  0.80223  1.0000
  H   H6127     1.0  0.65997  0.67021  0.75984  1.0000
  H   H6128     1.0  0.76924  0.95874  0.78198  1.0000
  N   N383      1.0  0.67002  0.68467  0.74172  1.0000
  Fe  Fe768     1.0  0.82535  0.68765  0.73714  1.0000
  H   H6129     1.0  0.77093  0.97103  0.74217  1.0000
  H   H6130     1.0  0.85125  0.66195  0.86795  1.0000
  S   S1535     1.0  0.77718  0.65908  0.88603  1.0000
  C   C3831     1.0  0.89884  0.79225  0.73760  1.0000
  C   C3832     1.0  0.66596  0.70140  0.78525  1.0000
  C   C3833     1.0  0.98871  0.70939  0.78695  1.0000
  H   H6131     1.0  0.76539  0.65361  0.76821  1.0000
  H   H6132     1.0  0.84766  0.66131  0.80824  1.0000
  H   H6133     1.0  0.98922  0.69893  0.79493  1.0000
  H   H6134     1.0  0.66414  0.70750  0.74085  1.0000
  N   N384      1.0  0.68695  0.78566  0.74167  1.0000
  C   C3834     1.0  0.68614  0.77040  0.74396  1.0000
  C   C3835     1.0  0.67295  0.79504  0.73931  1.0000
  H   H6135     1.0  0.71067  0.83568  0.96987  1.0000
  C   C3836     1.0  0.83818  0.66993  0.80578  1.0000
  H   H6136     1.0  0.98588  0.70796  0.77724  1.0000
  H   H6137     1.0  0.82982  0.66449  0.80530  1.0000
  H   H6138     1.0  0.71179  0.85431  0.96519  1.0000
  C   C3837     1.0  0.66008  0.68514  0.73261  1.0000
  H   H6139     1.0  0.80040  0.91427  0.73512  1.0000
  H   H6140     1.0  0.68364  0.76825  0.73442  1.0000
  C   C3838     1.0  0.87750  0.72388  0.73224  1.0000
  H   H6141     1.0  0.92890  0.80679  0.73162  1.0000
  H   H6142     1.0  0.76948  0.67202  0.73179  1.0000
  C   C3839     1.0  0.68450  0.68536  0.73260  1.0000
  S   S1536     1.0  0.65781  0.79730  0.78436  1.0000
  C   C3840     1.0  0.72849  0.98481  0.77835  1.0000
  H   H6143     1.0  0.71487  0.98486  0.81159  1.0000
  H   H6144     1.0  0.75889  0.90588  0.73073  1.0000
