data_image0
_chemical_formula_structural       FeS2FeS2FeSFeS3FeS2FeS2FeSFeS3FeS2FeS2FeSFeS3FeS2FeS2FeSFeS3FeS2FeS2FeSFeS3FeS2FeS2FeSFeS3FeS2FeS2FeSFeS3FeS2FeS2FeSFeS3FeS2FeS2FeSFeS3FeS2FeS2FeSFeS3FeS2FeS2FeSFeS3FeS2FeS2FeSFeS3FeS2FeS2FeSFeS3FeS2FeS2FeSFeS3FeS2FeS2FeSFeS3FeS2FeS2FeSFeS3C6H4C6H4C6H4C6H4C6H4C6H4C6H4C6H4C6H4C6H4C6H4C6H4C6H4C6H4C6H4C6H4C6H4C6H4C6H4C6H4C6H4C6H4C6H4C6H4C6H4C6H4C6H4C6H4C6H4C6H4C6H4C6H4NC4H12NC4H12NC4H12NC4H12NC4H12NC4H12NC4H12NC4H12NC4H12NC4H12NC4H12NC4H12NC4H12NC4H12NC4H12NC4H12NC4H12NC4H12NC4H12NC4H12NC4H12NC4H12NC4H12NC4H12NC4H12NC4H12NC4H12NC4H12NC4H12NC4H12NC4H12NC4H12
_chemical_formula_sum              "Fe64 S128 C320 H512 N32"
_cell_length_a       44.26332899175723
_cell_length_b       43.95531014121337
_cell_length_c       39.45007109661104
_cell_angle_alpha    88.34292174759895
_cell_angle_beta     88.95412403725922
_cell_angle_gamma    120.87064950676339

_space_group_name_H-M_alt    "P 1"
_space_group_IT_number       1

loop_
  _space_group_symop_operation_xyz
  'x, y, z'

loop_
  _atom_site_type_symbol
  _atom_site_label
  _atom_site_symmetry_multiplicity
  _atom_site_fract_x
  _atom_site_fract_y
  _atom_site_fract_z
  _atom_site_occupancy
  Fe  Fe1       1.0  0.8112675968601492  0.6770082448376052  0.3441806326048632  1.0000
  S   S1        1.0  0.7796861131763699  0.6185824246692403  0.3592861195750944  1.0000
  S   S2        1.0  0.8012240748926466  0.7216122402595236  0.3569891500452954  1.0000
  Fe  Fe2       1.0  0.8754102276536302  0.6729429276088627  0.3186540496098178  1.0000
  S   S3        1.0  0.848881949778286  0.614269070731458  0.33075326287369655  1.0000
  S   S4        1.0  0.9291588079364188  0.7100145598521977  0.2925800634684394  1.0000
  Fe  Fe3       1.0  0.7999907590153946  0.6099851718304955  0.3095234564578522  1.0000
  S   S5        1.0  0.765027268541902  0.5713798922554326  0.2698010616012329  1.0000
  Fe  Fe4       1.0  0.8304206808368355  0.6265015978855258  0.3794505823721996  1.0000
  S   S6        1.0  0.839083532146596  0.606190498174628  0.4293695431499268  1.0000
  S   S7        1.0  0.8281465607813765  0.6682078249850633  0.2931767638142382  1.0000
  S   S8        1.0  0.8603792801616025  0.6851232476464979  0.36855955746745034  1.0000
  Fe  Fe5       1.0  0.6074113677324824  0.8131797261521035  0.6809067841643677  1.0000
  S   S9        1.0  0.6535680327455882  0.8211679454063175  0.7115649094029303  1.0000
  S   S10       1.0  0.5487195172159829  0.7939765962135654  0.6890173163382204  1.0000
  Fe  Fe6       1.0  0.6532805519660088  0.8420070788616264  0.6151645932618777  1.0000
  S   S11       1.0  0.7024858046902288  0.8519146930677429  0.6398953719012463  1.0000
  S   S12       1.0  0.6521646767129071  0.8615105213981357  0.5619258331176449  1.0000
  Fe  Fe7       1.0  0.6681884893422917  0.7988908333842106  0.6672645660518232  1.0000
  S   S13       1.0  0.6783307576313042  0.7527402089141598  0.667372000461164  1.0000
  Fe  Fe8       1.0  0.6852162728718595  0.873981318211997  0.681871897676856  1.0000
  S   S14       1.0  0.7278704276815205  0.9270231991588105  0.7010446803954321  1.0000
  S   S15       1.0  0.6198913008211983  0.7874655274920966  0.638727912727769  1.0000
  S   S16       1.0  0.6384209635065178  0.8676023253384977  0.6551575852303607  1.0000
  Fe  Fe9       1.0  0.1316972185044918  0.7909722742899368  0.3464239642015087  1.0000
  S   S17       1.0  0.17049099029817252  0.7729587388200416  0.35360955776060443  1.0000
  S   S18       1.0  0.074913883540447  0.7455413809654868  0.3563638121101931  1.0000
  Fe  Fe10      1.0  0.1917040668014084  0.8695486287553931  0.3390208091693968  1.0000
  S   S19       1.0  0.23444939940177364  0.8566684397264831  0.3456477910508166  1.0000
  S   S20       1.0  0.19783361001299365  0.924415246933982  0.33577434713401544  1.0000
  Fe  Fe11      1.0  0.20305439468533365  0.8116470257350393  0.31109056267691026  1.0000
  S   S21       1.0  0.2239444259456005  0.796323561263616  0.2650432707766805  1.0000
  Fe  Fe12      1.0  0.19828398855905402  0.8187024669053821  0.387551152766287  1.0000
  S   S22       1.0  0.2145669876535251  0.806676589464391  0.43784668427043866  1.0000
  S   S23       1.0  0.16228552746013983  0.8271483568229423  0.30134786675771047  1.0000
  S   S24       1.0  0.15759715183746462  0.8342239899476223  0.38339399426254056  1.0000
  Fe  Fe13      1.0  0.6750852990571097  0.7979805743428176  0.3205919310302181  1.0000
  S   S25       1.0  0.6173072397319689  0.7650886590896665  0.33568373650557587  1.0000
  S   S26       1.0  0.6977047709685436  0.7677545570338058  0.2946880996926673  1.0000
  Fe  Fe14      1.0  0.6817897328278024  0.8660976950700316  0.34763392469205756  1.0000
  S   S27       1.0  0.6247322102917882  0.8371541336190842  0.365195397764795  1.0000
  S   S28       1.0  0.7112122015065184  0.9230034345242975  0.36519486646486166  1.0000
  Fe  Fe15      1.0  0.6338691953889337  0.7942114176141075  0.38416461309586286  1.0000
  S   S29       1.0  0.6167722420208248  0.7648306783883752  0.4353972914557821  1.0000
  Fe  Fe16      1.0  0.6130860619425845  0.8109425259701301  0.31498546434013475  1.0000
  S   S30       1.0  0.5709461268159353  0.8132415087394466  0.28367085764045713  1.0000
  S   S31       1.0  0.6915918843148555  0.824302934323273  0.37033082265256084  1.0000
  S   S32       1.0  0.6700344398509774  0.8424010685259894  0.29611305383660746  1.0000
  Fe  Fe17      1.0  0.2133427383932331  0.327750054716451  0.3311724547168318  1.0000
  S   S33       1.0  0.22021573809135414  0.36774596007536087  0.3692484217144453  1.0000
  S   S34       1.0  0.26483111769522744  0.3279618288099812  0.3240342123205529  1.0000
  Fe  Fe18      1.0  0.13706576638917523  0.3095070555464897  0.31936793112987766  1.0000
  S   S35       1.0  0.14033087524010665  0.3494775392463242  0.35547525570862804  1.0000
  S   S36       1.0  0.08557895301996601  0.2703948349234374  0.29525092119520085  1.0000
  Fe  Fe19      1.0  0.19456462358354834  0.3858355593458791  0.3313622523267999  1.0000
  S   S37       1.0  0.22176871861740763  0.4461917864953149  0.32411050112993683  1.0000
  Fe  Fe20      1.0  0.16595130255421958  0.3279880986440615  0.3893458737489091  1.0000
  S   S38       1.0  0.1437572298293091  0.3062424747815493  0.44258992007878795  1.0000
  S   S39       1.0  0.18960202002854823  0.3473685489573399  0.29234172320386803  1.0000
  S   S40       1.0  0.1607350653880664  0.28642774048914366  0.3541975530966682  1.0000
  Fe  Fe21      1.0  0.34279889443835315  0.1264542659825605  0.3162416552110442  1.0000
  S   S41       1.0  0.3816501528954275  0.15304931651969383  0.3567099418829516  1.0000
  S   S42       1.0  0.3372931479016869  0.0742003410637712  0.3016112607293834  1.0000
  Fe  Fe22      1.0  0.32849244674190664  0.18813005456024823  0.31062498141648126  1.0000
  S   S43       1.0  0.3671851517522257  0.2190357865949504  0.35022026687622254  1.0000
  S   S44       1.0  0.28804455533334755  0.2002022586144236  0.2894205288730579  1.0000
  Fe  Fe23      1.0  0.40254052874741236  0.20302493654294176  0.32373185901802726  1.0000
  S   S45       1.0  0.4626977280263412  0.23358210359083173  0.31964309736798113  1.0000
  Fe  Fe24      1.0  0.34331802670171585  0.16644634567879388  0.37907221146192566  1.0000
  S   S46       1.0  0.3164077088287757  0.15271323761187305  0.4312542563367308  1.0000
  S   S47       1.0  0.3654272695734559  0.1756641842547065  0.28177933691549634  1.0000
  S   S48       1.0  0.3029123972522506  0.136199141975117  0.34086672316521077  1.0000
  Fe  Fe25      1.0  0.8167065418848122  0.1280828365304699  0.3186413180121139  1.0000
  S   S49       1.0  0.7769439340307452  0.14331730107519547  0.3329931873571827  1.0000
  S   S50       1.0  0.800626214447603  0.07700850102006318  0.2917061208631143  1.0000
  Fe  Fe26      1.0  0.8792384875866566  0.19702809095693768  0.34243276378161  1.0000
  S   S51       1.0  0.843297373662606  0.21590973470222283  0.35998129496886566  1.0000
  S   S52       1.0  0.936104111538979  0.2402385003458988  0.35111484495843176  1.0000
  Fe  Fe27      1.0  0.8071892076397067  0.1609559415849835  0.38085865005461983  1.0000
  S   S53       1.0  0.7755958319025855  0.14954811688454953  0.43016838466800383  1.0000
  Fe  Fe28      1.0  0.8160801957108887  0.197811679496957  0.31089158211132845  1.0000
  S   S54       1.0  0.8117783893385044  0.24274929364981476  0.28520980446580685  1.0000
  S   S55       1.0  0.8449113878350352  0.14266509565006447  0.3679792351618715  1.0000
  S   S56       1.0  0.8538785374124638  0.18148409043995464  0.29208988595425833  1.0000
  Fe  Fe29      1.0  0.8076458092543609  0.6480648176349654  0.6130564577203753  1.0000
  S   S57       1.0  0.8515390884919765  0.7019674764274183  0.6254306494163958  1.0000
  S   S58       1.0  0.778811983882052  0.6346515687294537  0.5641419784828243  1.0000
  Fe  Fe30      1.0  0.7979684077645371  0.6182334006048812  0.686289447306177  1.0000
  S   S59       1.0  0.841795413666025  0.670391397068384  0.7046944752746247  1.0000
  S   S60       1.0  0.7525027236293749  0.569419945113622  0.7144701982617228  1.0000
  Fe  Fe31      1.0  0.8191443980345382  0.6963575134314558  0.6720373253773685  1.0000
  S   S61       1.0  0.8161480732093872  0.7436544256008738  0.6896405977676295  1.0000
  Fe  Fe32      1.0  0.8717744905071674  0.6728575811729669  0.6565603195740888  1.0000
  S   S62       1.0  0.9296927522089716  0.6923595241147347  0.6442000661113162  1.0000
  S   S63       1.0  0.7737277862475789  0.6447200187781951  0.6573751665393923  1.0000
  S   S64       1.0  0.8294701209822377  0.6186473051228177  0.640540457816373  1.0000
  Fe  Fe33      1.0  0.7933969198404092  0.13280112730029428  0.6608651604865969  1.0000
  S   S65       1.0  0.7821220942933907  0.1762366570229831  0.6468745287971739  1.0000
  S   S66       1.0  0.744439746874656  0.0772601530935296  0.6631114663307545  1.0000
  Fe  Fe34      1.0  0.8724182911272508  0.18653440322796547  0.6695486478521052  1.0000
  S   S67       1.0  0.8657406765772779  0.2328802971091203  0.6581989864063139  1.0000
  S   S68       1.0  0.9253154584341029  0.18987963470026512  0.6750432171845687  1.0000
  Fe  Fe35      1.0  0.8156466897694463  0.20416097282568613  0.6907503832581509  1.0000
  S   S69       1.0  0.8033200013178826  0.23016176059440627  0.7341028659538331  1.0000
  Fe  Fe36      1.0  0.832766752703763  0.2006887423450602  0.6155024284428787  1.0000
  S   S70       1.0  0.8483059462188826  0.2288746583011413  0.563465334445169  1.0000
  S   S71       1.0  0.8251443199764555  0.15987195780702837  0.7059379335528734  1.0000
  S   S72       1.0  0.8411843468486844  0.155210067268519  0.6255959765911743  1.0000
  Fe  Fe37      1.0  0.1954978510534429  0.3670321749145134  0.6260802062555315  1.0000
  S   S73       1.0  0.15123763178651725  0.3112336755947573  0.6377990583492955  1.0000
  S   S74       1.0  0.21975341784867425  0.3890507457865287  0.5733982269711262  1.0000
  Fe  Fe38      1.0  0.20517671272934135  0.38592097493775646  0.7010027254178065  1.0000
  S   S75       1.0  0.16258862164971322  0.33038799461923923  0.7178679861136674  1.0000
  S   S76       1.0  0.2329239514651127  0.42416603447648477  0.7434125393651934  1.0000
  Fe  Fe39      1.0  0.18624023893870945  0.3113859639507968  0.6788288554828085  1.0000
  S   S77       1.0  0.19078910465272184  0.2620609324512895  0.6844988763018511  1.0000
  Fe  Fe40      1.0  0.13161500588234554  0.3351652015236643  0.6756147575450155  1.0000
  S   S78       1.0  0.07753183241971187  0.32839202714571847  0.6861430440036987  1.0000
  S   S79       1.0  0.23132215672367099  0.3661926722855367  0.6654402490323602  1.0000
  S   S80       1.0  0.17345816335719075  0.39157437286375885  0.6603058572477696  1.0000
  Fe  Fe41      1.0  0.3729823663922448  0.18091417241673305  0.6176870271884856  1.0000
  S   S81       1.0  0.3172486861585499  0.16781205920357314  0.6267184888516114  1.0000
  S   S82       1.0  0.40126509779453423  0.1900655443176191  0.5665983294139642  1.0000
  Fe  Fe42      1.0  0.387453476581016  0.18323138155237742  0.6934857602764422  1.0000
  S   S83       1.0  0.33190991024246047  0.16856646316774407  0.7081156117168113  1.0000
  S   S84       1.0  0.4243393532219487  0.19118206593070539  0.7367124256218364  1.0000
  Fe  Fe43      1.0  0.31495066996024906  0.12891381298499788  0.6670794141012749  1.0000
  S   S85       1.0  0.2650525618655189  0.07404034121291185  0.6701239430242869  1.0000
  Fe  Fe44      1.0  0.33864899343220833  0.20830369884963065  0.6669267230254639  1.0000
  S   S86       1.0  0.3316828714753419  0.25545766498759875  0.676846536806527  1.0000
  S   S87       1.0  0.36972888157627004  0.14007086834930474  0.6557880244888864  1.0000
  S   S88       1.0  0.39512639657681115  0.2247667868358816  0.6543762525939687  1.0000
  Fe  Fe45      1.0  0.17184698170720844  0.833503287245934  0.6248267972571266  1.0000
  S   S89       1.0  0.15491834477056848  0.8585433129698807  0.6640035993539123  1.0000
  S   S90       1.0  0.16735053089693785  0.8505268173785424  0.5712389733146476  1.0000
  Fe  Fe46      1.0  0.19431415630517443  0.7978591919551075  0.6790666032387526  1.0000
  S   S91       1.0  0.1785377842348291  0.8203272414531856  0.7215951764530819  1.0000
  S   S92       1.0  0.22408307300169047  0.7680057524826309  0.6841462817149411  1.0000
  Fe  Fe47      1.0  0.12986299220290537  0.8051976654741235  0.6916086596285289  1.0000
  S   S93       1.0  0.07555796461714787  0.7817323571766743  0.7178749039021667  1.0000
  Fe  Fe48      1.0  0.20459283231314002  0.8715675901994618  0.6898340663677971  1.0000
  S   S94       1.0  0.24873888471468025  0.9241651055647548  0.7083864330538034  1.0000
  S   S95       1.0  0.14390616611155801  0.7791688573537093  0.6508974494378189  1.0000
  S   S96       1.0  0.22313489139019366  0.8499605466129069  0.6488440319379318  1.0000
  Fe  Fe49      1.0  0.6257921595624149  0.31642761635883504  0.18334364890613203  1.0000
  S   S97       1.0  0.6653413900840871  0.3692416056745925  0.15735294786498594  1.0000
  S   S98       1.0  0.5687105336408348  0.3030692883199659  0.19056961910285838  1.0000
  Fe  Fe50      1.0  0.6811878866372083  0.29484795715934814  0.19341274705905664  1.0000
  S   S99       1.0  0.7241237516143401  0.3458724261982398  0.16821994162535978  1.0000
  S   S100      1.0  0.6841785702134942  0.24810639431211523  0.21709704729233076  1.0000
  Fe  Fe51      1.0  0.70148607776681  0.37289649780658685  0.19866096168146083  1.0000
  S   S101      1.0  0.7344663188438485  0.4168322888557474  0.23530438205031887  1.0000
  Fe  Fe52      1.0  0.684537224008032  0.3382384823226332  0.12828447818702324  1.0000
  S   S102      1.0  0.7042781647851523  0.3493876686232541  0.07169211954341333  1.0000
  S   S103      1.0  0.6606807845053569  0.3219667110205852  0.2259959961047251  1.0000
  S   S104      1.0  0.6428235910956234  0.2853039927830455  0.15198968641367844  1.0000
  Fe  Fe53      1.0  0.6217706975518658  0.32750580679775193  0.7955094544020386  1.0000
  S   S105      1.0  0.6719234377192324  0.3448569871975939  0.7649890364262466  1.0000
  S   S106      1.0  0.576821859741966  0.3236118757704728  0.7641630726880175  1.0000
  Fe  Fe54      1.0  0.6566779554875034  0.3273278355441433  0.8632534469677614  1.0000
  S   S107      1.0  0.7083467384693667  0.34270331015781363  0.8360708539504115  1.0000
  S   S108      1.0  0.6427036611123377  0.3211117513244874  0.9210338571523267  1.0000
  Fe  Fe55      1.0  0.6999669325402311  0.38241839267081884  0.8060685562009016  1.0000
  S   S109      1.0  0.7463206440056023  0.43948433561133016  0.7984996042676741  1.0000
  Fe  Fe56      1.0  0.6760705569744009  0.3037345776476758  0.7966199343260005  1.0000
  S   S110      1.0  0.6802433200988139  0.26268631587161506  0.7650105002037281  1.0000
  S   S111      1.0  0.6498288082919123  0.3685172347145087  0.834460055897474  1.0000
  S   S112      1.0  0.6245304527665705  0.2850192660818868  0.8258945901558726  1.0000
  Fe  Fe57      1.0  0.31486823706538103  0.6813807647321112  0.21344314095305641  1.0000
  S   S113      1.0  0.2849342236401021  0.644070564534069  0.17230773105643477  1.0000
  S   S114      1.0  0.2954822416959542  0.7015806098969298  0.25690933265874827  1.0000
  Fe  Fe58      1.0  0.3805517132362904  0.6757834603820696  0.2000511127261562  1.0000
  S   S115      1.0  0.3556243381480207  0.6382639224967318  0.15741180704714594  1.0000
  S   S116      1.0  0.4310308236620458  0.6846033455086528  0.22443806239602432  1.0000
  Fe  Fe59      1.0  0.33541458108267813  0.6736318074504367  0.14005985846923366  1.0000
  S   S117      1.0  0.33061682655788  0.6891661012845856  0.08472530030986436  1.0000
  Fe  Fe60      1.0  0.3065228001697303  0.6104373752833248  0.19137579194643684  1.0000
  S   S118      1.0  0.2725068555755013  0.5499336027135509  0.19137496437034804  1.0000
  S   S119      1.0  0.3642724741141042  0.7138070212541254  0.18037972822452614  1.0000
  S   S120      1.0  0.3325169418527449  0.6450426642937467  0.23468441433903012  1.0000
  Fe  Fe61      1.0  0.3742754112809362  0.6891311736727015  0.815294229190068  1.0000
  S   S121      1.0  0.3450404538337865  0.633054509673118  0.8376354637222799  1.0000
  S   S122      1.0  0.43418013889171614  0.7140068837540625  0.8108945172717408  1.0000
  Fe  Fe62      1.0  0.30790627216951005  0.694893713634639  0.8215661441425914  1.0000
  S   S123      1.0  0.2758113477950578  0.6399619288337013  0.8462819616966425  1.0000
  S   S124      1.0  0.27960247060867016  0.7261722872856143  0.8158737979102894  1.0000
  Fe  Fe63      1.0  0.32332637812782866  0.6538009980966045  0.8773333405850599  1.0000
  S   S125      1.0  0.3276401035964868  0.6377425594363089  0.9327424226220716  1.0000
  Fe  Fe64      1.0  0.3003009095620722  0.6241044502522094  0.8049686560895368  1.0000
  S   S126      1.0  0.263734413824033  0.580705001317402  0.7695306429216622  1.0000
  S   S127      1.0  0.3536277736911441  0.7099154028162348  0.8557308150757404  1.0000
  S   S128      1.0  0.33116298344469547  0.6789648460972392  0.7794342565956669  1.0000
  C   C1        1.0  0.3310662454006445  0.6751288299217891  0.042543135687821546  1.0000
  C   C2        1.0  0.33846817707905663  0.6485170873119088  0.03548912703852526  1.0000
  C   C3        1.0  0.3368850744835054  0.6372991044653743  0.0019407166427818368  1.0000
  C   C4        1.0  0.3285208051646327  0.6528485343062946  0.9746915265540568  1.0000
  C   C5        1.0  0.3218839288839785  0.6799971394766053  0.9816156095865312  1.0000
  C   C6        1.0  0.32297764711635985  0.6908542179208829  0.015255626863073036  1.0000
  H   H1        1.0  0.34571138444793315  0.6368019090862197  0.05584446346390219  1.0000
  H   H2        1.0  0.3425387538780762  0.6166004964143573  0.9969876143449656  1.0000
  H   H3        1.0  0.3155329528190093  0.6924233816774428  0.961132904884382  1.0000
  H   H4        1.0  0.31733990615287117  0.7115732554530588  0.020195279264072673  1.0000
  C   C7        1.0  0.6860340788970195  0.33967626805309115  0.03024748699070372  1.0000
  C   C8        1.0  0.7086390720401406  0.3464476658869825  0.0016706311769321134  1.0000
  C   C9        1.0  0.6958941274202978  0.340098604169479  0.9683570503228073  1.0000
  C   C10       1.0  0.6602520279921292  0.32751222389481965  0.9628044853382285  1.0000
  C   C11       1.0  0.6376559786409889  0.3207265595998812  0.9913601778376598  1.0000
  C   C12       1.0  0.6503077663966191  0.3265465142991694  0.024733882845729735  1.0000
  H   H5        1.0  0.7362422270206141  0.35629228898364135  0.005447278533369201  1.0000
  H   H6        1.0  0.7136742972201909  0.3447649693491474  0.9470823523662658  1.0000
  H   H7        1.0  0.6100357440379941  0.31089174199907865  0.987685449222922  1.0000
  H   H8        1.0  0.6324304947809528  0.32116518101940966  0.046186708558367436  1.0000
  C   C13       1.0  0.23949764198534662  0.7570422719926324  0.7211928079533588  1.0000
  C   C14       1.0  0.2262416909578176  0.7566960538339866  0.7537525482059116  1.0000
  C   C15       1.0  0.23884412423044601  0.7472039048724997  0.7823674441179931  1.0000
  C   C16       1.0  0.26452912975738424  0.7375648480843512  0.7788358094015634  1.0000
  C   C17       1.0  0.2777384320009142  0.737846897954388  0.7462688864689159  1.0000
  C   C18       1.0  0.2653353811784959  0.7476191275281224  0.7176731971145893  1.0000
  H   H9        1.0  0.20588610860870715  0.7631971717590361  0.7568572132770854  1.0000
  H   H10       1.0  0.2283627677663765  0.7469944390706337  0.8074373691542149  1.0000
  H   H11       1.0  0.2977317401322105  0.7308384917384175  0.7431243313382614  1.0000
  H   H12       1.0  0.2757957865790856  0.7477992925539428  0.6926042314213853  1.0000
  C   C19       1.0  0.5346350392917658  0.2862294847678288  0.7568455198776058  1.0000
  C   C20       1.0  0.5168059597334684  0.2868468903456546  0.7278878502158328  1.0000
  C   C21       1.0  0.48326768528322833  0.25788407542826475  0.7210659943528457  1.0000
  C   C22       1.0  0.4668860908543977  0.22811996081383745  0.7434897821728655  1.0000
  C   C23       1.0  0.48459362010377743  0.2275789373397789  0.7725686827885762  1.0000
  C   C24       1.0  0.5183240089930212  0.2563476456082091  0.7791657052520612  1.0000
  H   H13       1.0  0.5291065406644739  0.30986071184619757  0.7105006941507854  1.0000
  H   H14       1.0  0.4700746943452093  0.25866780910495996  0.6985199552219172  1.0000
  H   H15       1.0  0.472094900384872  0.2047577800062706  0.7901847557838613  1.0000
  H   H16       1.0  0.5314346179612423  0.255645609018572  0.8018087659293303  1.0000
  C   C25       1.0  0.2526309236792643  0.9659341071908248  0.699743330817226  1.0000
  C   C26       1.0  0.2234899288389557  0.9686721572263431  0.6915703989973309  1.0000
  C   C27       1.0  0.22782112505379704  0.00203070574704206  0.6829360498913307  1.0000
  C   C28       1.0  0.2612132465731693  0.03309243614353001  0.6826801930551094  1.0000
  C   C29       1.0  0.29030470222201005  0.030495832130613534  0.6915564822464327  1.0000
  C   C30       1.0  0.28595204840594346  0.9970670257221155  0.7002847311296981  1.0000
  H   H17       1.0  0.19755129092878826  0.9450722395909132  0.6919010336993308  1.0000
  H   H18       1.0  0.20511037869562113  0.003846223663834379  0.6765263047814851  1.0000
  H   H19       1.0  0.3161180032743643  0.05423615394997192  0.6916561250892664  1.0000
  H   H20       1.0  0.3086392299422009  0.9953448134496274  0.7069436367881907  1.0000
  C   C31       1.0  0.2423701517754232  0.46825195692467647  0.7492501383764171  1.0000
  C   C32       1.0  0.26211302292178085  0.48658019331356  0.7771030957760848  1.0000
  C   C33       1.0  0.2695130023402626  0.5211897491796388  0.7833838064672285  1.0000
  C   C34       1.0  0.25682815992935526  0.5377864729324433  0.7620660191362911  1.0000
  C   C35       1.0  0.23688133793583582  0.5193635579472586  0.7343121302940538  1.0000
  C   C36       1.0  0.22991323035356617  0.484956113070925  0.7277559795268421  1.0000
  H   H21       1.0  0.2719389138615819  0.47398993090881086  0.7938989296722389  1.0000
  H   H22       1.0  0.2848025236510672  0.5348847581035483  0.804859196036478  1.0000
  H   H23       1.0  0.22705278374403698  0.5319274334220472  0.717522740743105  1.0000
  H   H24       1.0  0.21495949920763757  0.47140784910047084  0.7060727924677038  1.0000
  C   C37       1.0  0.23029523352360112  0.2608710520047143  0.6819846455703287  1.0000
  C   C38       1.0  0.2634140203659613  0.291371356474558  0.6848522010513478  1.0000
  C   C39       1.0  0.29411859595735707  0.2892117741900758  0.6829949905500401  1.0000
  C   C40       1.0  0.29213116875159467  0.25662557958644533  0.6781857261947637  1.0000
  C   C41       1.0  0.2590448746404348  0.22618409144360185  0.675052264387271  1.0000
  C   C42       1.0  0.22832284226900507  0.22832167577225512  0.6770882484721898  1.0000
  H   H25       1.0  0.26531078196624414  0.31646226749683065  0.6892513504263724  1.0000
  H   H26       1.0  0.3195599474669455  0.31289219804888097  0.6856627868229521  1.0000
  H   H27       1.0  0.25705601426500674  0.20090572702191947  0.6714829998102576  1.0000
  H   H28       1.0  0.2028230481320025  0.20452444682303125  0.675043567654378  1.0000
  C   C43       1.0  0.7698402228500194  0.24074553634317156  0.7406998162658828  1.0000
  C   C44       1.0  0.7722521140377079  0.2616038394110802  0.7681242828347827  1.0000
  C   C45       1.0  0.7457207643659312  0.26953956146915314  0.7753398219077208  1.0000
  C   C46       1.0  0.715980735736054  0.25606895189367135  0.7555693134194548  1.0000
  C   C47       1.0  0.7134951157315782  0.23509651191672323  0.7281757653593747  1.0000
  C   C48       1.0  0.7404104875110141  0.22781861440636936  0.7205048486977798  1.0000
  H   H29       1.0  0.7948421937466807  0.27172635366020487  0.7839683016329712  1.0000
  H   H30       1.0  0.7479839339269528  0.2854870764408139  0.7966075054110124  1.0000
  H   H31       1.0  0.6906716109294211  0.22454253736897067  0.7126602759624485  1.0000
  H   H32       1.0  0.7382678255781565  0.21204828970534265  0.6991400729458966  1.0000
  C   C49       1.0  0.9673599676639423  0.22858709093436605  0.678899440530951  1.0000
  C   C50       1.0  0.9712744381742138  0.26142399898030566  0.6858643695378577  1.0000
  C   C51       1.0  0.00518353402124517  0.29165022448790173  0.6878092799410536  1.0000
  C   C52       1.0  0.03556653820865637  0.28947057653927694  0.6828524878474842  1.0000
  C   C53       1.0  0.03169359913365309  0.2566498596080811  0.6759218183641195  1.0000
  C   C54       1.0  0.9977500567663671  0.22635873518380897  0.6741584801060049  1.0000
  H   H33       1.0  0.9481744306195728  0.2634734782391804  0.6901157066646308  1.0000
  H   H34       1.0  0.007867815965559329  0.31686065483908676  0.6933824123538318  1.0000
  H   H35       1.0  0.05480697381864103  0.2544967240273584  0.6722954210690872  1.0000
  H   H36       1.0  0.9950293603477376  0.20103350469812226  0.6690244890001587  1.0000
  C   C55       1.0  0.7517218346478973  0.5328076601826047  0.7359718135684729  1.0000
  C   C56       1.0  0.7189628827645793  0.502153370990117  0.744509788825131  1.0000
  C   C57       1.0  0.7168756170036349  0.47289477842095323  0.7625765901617  1.0000
  C   C58       1.0  0.7475865141810762  0.4742194689808117  0.7729265896281224  1.0000
  C   C59       1.0  0.780352764962095  0.5048000866961563  0.7641740252924029  1.0000
  C   C60       1.0  0.7824800404230259  0.5337766437262313  0.7454785601529131  1.0000
  H   H37       1.0  0.6949481486308975  0.501068018237508  0.737423304886132  1.0000
  H   H38       1.0  0.6914709342081995  0.4496620462380081  0.7692254465478204  1.0000
  H   H39       1.0  0.8042836629048499  0.5061628410519503  0.772088121451303  1.0000
  H   H40       1.0  0.8078863235047434  0.5571551640865464  0.7392514037896484  1.0000
  C   C61       1.0  0.9696607169840097  0.7168306220377816  0.6657058280907306  1.0000
  C   C62       1.0  0.001719569053639125  0.7302866543726956  0.6470831129760414  1.0000
  C   C63       1.0  0.03425539226266016  0.7502860534251861  0.6626302563976664  1.0000
  C   C64       1.0  0.03513838301693163  0.7569624995361254  0.6971462813500561  1.0000
  C   C65       1.0  0.003061236314664463  0.7436382739763243  0.7158055799192539  1.0000
  C   C66       1.0  0.9704634326093227  0.7236266551485652  0.7002249927037545  1.0000
  H   H41       1.0  0.0014156582832545173  0.7251342644907892  0.6204017222792633  1.0000
  H   H42       1.0  0.058669718678139325  0.7603152640748667  0.6479670803822017  1.0000
  H   H43       1.0  0.003502578441119155  0.7484296696023041  0.7425899859991059  1.0000
  H   H44       1.0  0.9460886148063272  0.7128972859084595  0.7150631358422276  1.0000
  C   C67       1.0  0.775860248689945  0.24336154992091102  0.26621872272564145  1.0000
  C   C68       1.0  0.7429107458630472  0.21263061539242586  0.2633831160152309  1.0000
  C   C69       1.0  0.7152310383993115  0.21467355960610213  0.24839346372788573  1.0000
  C   C70       1.0  0.720067785743916  0.24732656644174  0.23596716898774142  1.0000
  C   C71       1.0  0.7529647921919097  0.27806502546398215  0.23906234972446005  1.0000
  C   C72       1.0  0.7806292280464571  0.276048645799492  0.2541080043504928  1.0000
  H   H45       1.0  0.7388123997013435  0.18721823712863608  0.2722131824965552  1.0000
  H   H46       1.0  0.6899492752100584  0.1907160816293834  0.24597727794655558  1.0000
  H   H47       1.0  0.7571080332477824  0.3033539604104323  0.22966046299431803  1.0000
  H   H48       1.0  0.805926829324683  0.3000428012682564  0.25619227446650805  1.0000
  C   C73       1.0  0.7972937803336132  0.17056205306940292  0.46713033042012164  1.0000
  C   C74       1.0  0.7807657093525964  0.1560543382656222  0.4990894462675479  1.0000
  C   C75       1.0  0.7966661578287482  0.1730889336479875  0.528923820532026  1.0000
  C   C76       1.0  0.8287635589879794  0.20529959186496932  0.5268690859197411  1.0000
  C   C77       1.0  0.8453029059329671  0.21982577116911248  0.49490506395870254  1.0000
  C   C78       1.0  0.8298629738665713  0.20230489951757746  0.4651423077806657  1.0000
  H   H49       1.0  0.7555287278281855  0.13155595842895682  0.5007899822805708  1.0000
  H   H50       1.0  0.7836505465038096  0.16176764589051748  0.5534192691927035  1.0000
  H   H51       1.0  0.8700253472619165  0.24483257206098563  0.4931120233682896  1.0000
  H   H52       1.0  0.8427660201191068  0.21376484809710194  0.44066442528912303  1.0000
  C   C79       1.0  0.5393684573700039  0.28262592240976114  0.22638827768228323  1.0000
  C   C80       1.0  0.5049971137944564  0.276672679776316  0.22501671764598094  1.0000
  C   C81       1.0  0.4810288709988242  0.2613425911238395  0.2531397149834797  1.0000
  C   C82       1.0  0.4913384523081557  0.2520633518387347  0.28310966944286786  1.0000
  C   C83       1.0  0.5257557749130124  0.25814892160737263  0.28453601684202157  1.0000
  C   C84       1.0  0.5495567350865687  0.27302812843019997  0.25626033025333766  1.0000
  H   H53       1.0  0.4969142225303941  0.28415500155895573  0.20205860642906479  1.0000
  H   H54       1.0  0.45479350602296614  0.2572130955464635  0.2517650275472098  1.0000
  H   H55       1.0  0.5340190744388607  0.2511396718066659  0.30764174824767165  1.0000
  H   H56       1.0  0.5757692284745787  0.27711135925453406  0.25758973417228004  1.0000
  C   C85       1.0  0.3406167569580719  0.16345307359057962  0.46842358081734553  1.0000
  C   C86       1.0  0.3223623175213035  0.15495936587124925  0.49996850790548036  1.0000
  C   C87       1.0  0.3406865625196771  0.16302560882236364  0.5302326923738331  1.0000
  C   C88       1.0  0.37740577553106225  0.1795875014859595  0.5291171661308668  1.0000
  C   C89       1.0  0.39561335645959017  0.18782390651189448  0.49750059725781154  1.0000
  C   C90       1.0  0.37729016803826626  0.17983443722418613  0.4671734452245496  1.0000
  H   H57       1.0  0.2939648708666492  0.1421843986212679  0.5011173163100275  1.0000
  H   H58       1.0  0.3264351875971719  0.15638030849600582  0.5544267947893763  1.0000
  H   H59       1.0  0.4240332376648849  0.2006035996912414  0.4965145710361024  1.0000
  H   H60       1.0  0.3915907233541656  0.1864515198227709  0.44295950898190584  1.0000
  C   C91       1.0  0.23492231149914777  0.47421277878879226  0.2866653963612376  1.0000
  C   C92       1.0  0.25433959761435204  0.5112017299593096  0.2898592180485688  1.0000
  C   C93       1.0  0.2662279587014189  0.5346594380466191  0.26100813133307027  1.0000
  C   C94       1.0  0.2586892545967282  0.5213828520192851  0.22850124015352227  1.0000
  C   C95       1.0  0.2393761344412935  0.48436217575369755  0.225249528332805  1.0000
  C   C96       1.0  0.22758544715882909  0.46086742684448484  0.2541366686026624  1.0000
  H   H61       1.0  0.2601851926169855  0.5218314524984302  0.31487477611332354  1.0000
  H   H62       1.0  0.28096512883384667  0.563021289807902  0.26397033412453896  1.0000
  H   H63       1.0  0.23331699952843324  0.47377812919967993  0.20024494388296973  1.0000
  H   H64       1.0  0.21251567738289726  0.4325051054199051  0.25122351549088295  1.0000
  C   C97       1.0  0.1651564973171498  0.33001681239446007  0.47848057841218344  1.0000
  C   C98       1.0  0.1971193885295935  0.3623300715320891  0.47550240345439077  1.0000
  C   C99       1.0  0.2134263264648117  0.3803688241193479  0.5047996301434927  1.0000
  C   C100      1.0  0.19783550153334536  0.3663205798179533  0.5371638725503506  1.0000
  C   C101      1.0  0.16590466194521483  0.3339768371064272  0.5400658502749489  1.0000
  C   C102      1.0  0.14969012692876874  0.31587030826277135  0.5108363727294379  1.0000
  H   H65       1.0  0.20919027170009025  0.3735008509416753  0.45066996767396617  1.0000
  H   H66       1.0  0.23811280460128553  0.4054126347738881  0.502357850200905  1.0000
  H   H67       1.0  0.1535403499333002  0.32297104950513944  0.5647619781073466  1.0000
  H   H68       1.0  0.124954316663783  0.29090702454232403  0.5133299786819929  1.0000
  C   C103      1.0  0.043945652257679074  0.2629753099918816  0.3095132619474984  1.0000
  C   C104      1.0  0.04112712311628869  0.2865042211959725  0.33058416373029276  1.0000
  C   C105      1.0  0.007795697995848672  0.27942567265676854  0.3422517708240676  1.0000
  C   C106      1.0  0.9768820814117537  0.248488236363125  0.333515921158484  1.0000
  C   C107      1.0  0.9795216568651997  0.22513747516593294  0.3120111864225909  1.0000
  C   C108      1.0  0.012946116014814536  0.23247533095681444  0.29997828434480944  1.0000
  H   H69       1.0  0.06462987317992298  0.31030592739786933  0.3377522151886658  1.0000
  H   H70       1.0  0.006028395034682665  0.29782306739035597  0.3586413074662053  1.0000
  H   H71       1.0  0.9559411221839249  0.20124334839932437  0.3050006736001297  1.0000
  H   H72       1.0  0.01483856002650116  0.2141634637351352  0.28355991478174  1.0000
  C   C109      1.0  0.27023603971030485  0.291617233321462  0.31525753381409466  1.0000
  C   C110      1.0  0.303605634883778  0.29548287137224327  0.318778693775463  1.0000
  C   C111      1.0  0.30936511558536123  0.26759754784716244  0.3114854831800283  1.0000
  C   C112      1.0  0.28187039572960043  0.23565846786522085  0.3001176803493905  1.0000
  C   C113      1.0  0.2485097400263713  0.23179434049468253  0.2965952677593853  1.0000
  C   C114      1.0  0.24258202348137714  0.25947072400673293  0.3044384169509744  1.0000
  H   H73       1.0  0.32524050144111155  0.3203259550046295  0.32689447678408073  1.0000
  H   H74       1.0  0.33530703478471874  0.2711658981979017  0.3137393633242764  1.0000
  H   H75       1.0  0.22715075584231642  0.20730908887900762  0.2874996311606464  1.0000
  H   H76       1.0  0.21685371086311894  0.25620778769693536  0.3013337692571188  1.0000
  C   C115      1.0  0.5322665028041035  0.7771419933341079  0.2672198120495047  1.0000
  C   C116      1.0  0.5231699979852257  0.7418520853197214  0.27301786536947636  1.0000
  C   C117      1.0  0.4922976301375147  0.7141029350856158  0.2594846176943471  1.0000
  C   C118      1.0  0.47001200972739154  0.7211076278247742  0.24002814191896799  1.0000
  C   C119      1.0  0.47911645749731363  0.7564489226166707  0.23417292872853138  1.0000
  C   C120      1.0  0.5099653949136521  0.7842199483123259  0.24780232568678445  1.0000
  H   H77       1.0  0.5400165313659357  0.7359032644965133  0.2877816268325777  1.0000
  H   H78       1.0  0.48568566198004265  0.6869406491703206  0.26408697480642385  1.0000
  H   H79       1.0  0.4627704124686097  0.76244790110695  0.21869185168779082  1.0000
  H   H80       1.0  0.5168416601072575  0.8114061343138875  0.24289292934369378  1.0000
  C   C121      1.0  0.7359167203721111  0.9653327256569971  0.3437823218490679  1.0000
  C   C122      1.0  0.7478267230859862  0.9696589055482985  0.30988480102448673  1.0000
  C   C123      1.0  0.7675761655160485  0.0039938878235637465  0.29425309005744754  1.0000
  C   C124      1.0  0.7756858760326991  0.03428750220599483  0.3123138609143176  1.0000
  C   C125      1.0  0.7637307641935879  0.02988545948200838  0.3461621983848217  1.0000
  C   C126      1.0  0.7440575595751798  0.9956243840705511  0.36176891981039033  1.0000
  H   H81       1.0  0.742410392248632  0.9466857503284944  0.2959224933756765  1.0000
  H   H82       1.0  0.7770283994499566  0.007193999394247085  0.2681544169400996  1.0000
  H   H83       1.0  0.7698035756149064  0.05290585080827852  0.36039899756774674  1.0000
  H   H84       1.0  0.7351532277702211  0.992605466897576  0.3880425009339623  1.0000
  C   C127      1.0  0.24435509510418502  0.770400754365658  0.2634070491764085  1.0000
  C   C128      1.0  0.25072423312955555  0.7561802766221697  0.29270623710207183  1.0000
  C   C129      1.0  0.2662573027585972  0.7351488100576808  0.29010244172951455  1.0000
  C   C130      1.0  0.2756065394169036  0.7279943893559125  0.2582700870467613  1.0000
  C   C131      1.0  0.2690800707420557  0.7420654804906822  0.2289598571129905  1.0000
  C   C132      1.0  0.25353911049053224  0.7631144055322315  0.23156660230873885  1.0000
  H   H85       1.0  0.2439135025246553  0.7615652343430144  0.3173861339833315  1.0000
  H   H86       1.0  0.27114300459543555  0.724413321765316  0.31296588105652146  1.0000
  H   H87       1.0  0.2761931310545594  0.7369359184374263  0.20430204287802378  1.0000
  H   H88       1.0  0.24882640138284692  0.7740269347222137  0.20871424308870237  1.0000
  C   C133      1.0  0.20369907642634535  0.8207638944698863  0.4750742080077535  1.0000
  C   C134      1.0  0.19188951228250106  0.8447516153393875  0.4734419033068275  1.0000
  C   C135      1.0  0.18158064199998955  0.8541822666090932  0.503308908682132  1.0000
  C   C136      1.0  0.1829768009341505  0.8396921045125701  0.5349800199810031  1.0000
  C   C137      1.0  0.1955199796273217  0.8163019299447027  0.5367944852658415  1.0000
  C   C138      1.0  0.20588436568681132  0.8068865864926003  0.506841086479307  1.0000
  H   H89       1.0  0.19065478636029118  0.8560205821898774  0.4491721584501291  1.0000
  H   H90       1.0  0.171950750217739  0.8723510394644118  0.5017845035363255  1.0000
  H   H91       1.0  0.19672367163460916  0.8050525921609524  0.5611475652441877  1.0000
  H   H92       1.0  0.21520217804328534  0.7884446501662473  0.5082483765197386  1.0000
  C   C139      1.0  0.2369002596160286  0.9654823162457177  0.3252379264188815  1.0000
  C   C140      1.0  0.23536238373175403  0.9966788825937027  0.3241307587407511  1.0000
  C   C141      1.0  0.26583049767455  0.030044365212052573  0.3167181215278355  1.0000
  C   C142      1.0  0.2982383522770224  0.032589283963136075  0.3103593516044179  1.0000
  C   C143      1.0  0.29979915956393405  0.0014136470667655459  0.3112166653880851  1.0000
  C   C144      1.0  0.2693210579795042  0.9680070458347266  0.3187650318836854  1.0000
  H   H93       1.0  0.2103440400249427  0.9949481196777094  0.32876637789402907  1.0000
  H   H94       1.0  0.2641087894779724  0.05372206830637071  0.3153834357787452  1.0000
  H   H95       1.0  0.3246976386575165  0.003047270082408828  0.30610108313488044  1.0000
  H   H96       1.0  0.27087550111631  0.944218746093719  0.3194289483106786  1.0000
  C   C145      1.0  0.4653150521957008  0.7353931797535459  0.776283613442322  1.0000
  C   C146      1.0  0.4560494035926364  0.7431754113353803  0.7448964756498364  1.0000
  C   C147      1.0  0.4819483105037392  0.7610150795165225  0.7185751803526074  1.0000
  C   C148      1.0  0.5173370644347601  0.7710891693885082  0.7231538223688373  1.0000
  C   C149      1.0  0.5265538019700287  0.7630700844271705  0.7544526476965598  1.0000
  C   C150      1.0  0.5006982651791719  0.7454566198291899  0.780858883501284  1.0000
  H   H97       1.0  0.4290188498679559  0.7357141859806443  0.7409979987589674  1.0000
  H   H98       1.0  0.47448735412506415  0.7671641405267383  0.6945535341356188  1.0000
  H   H99       1.0  0.5536121208431392  0.770643507047943  0.7583973671544769  1.0000
  H   H100      1.0  0.5082121352272179  0.7395804392179512  0.8049887148431576  1.0000
  C   C151      1.0  0.6453311552470063  0.8349069858760821  0.5269993372382501  1.0000
  C   C152      1.0  0.6463896730884139  0.8489823031578564  0.49436311783683384  1.0000
  C   C153      1.0  0.6386653426181145  0.8279011339215052  0.4660621846033445  1.0000
  C   C154      1.0  0.6290383901264341  0.7923333619910554  0.470325022251309  1.0000
  C   C155      1.0  0.6283945980804131  0.7782956472978123  0.5029411377338743  1.0000
  C   C156      1.0  0.6370782191205043  0.7997067423615637  0.5311976484166282  1.0000
  H   H101      1.0  0.6529054305024526  0.8762315426405974  0.4908830777690944  1.0000
  H   H102      1.0  0.6394479442070293  0.8390378780155319  0.44102571682912267  1.0000
  H   H103      1.0  0.6212143940993972  0.7508529714818416  0.5063615667258731  1.0000
  H   H104      1.0  0.6367492039664726  0.7887943754776829  0.5562325398898621  1.0000
  C   C157      1.0  0.7320540534248952  0.9686260502038228  0.6906026154687225  1.0000
  C   C158      1.0  0.7640728787443059  9.198350685579726e-05  0.6959323128239444  1.0000
  C   C159      1.0  0.7686227448061498  0.03360917021791572  0.6871978020506341  1.0000
  C   C160      1.0  0.7409175301450488  0.03595941439690351  0.6735164063222913  1.0000
  C   C161      1.0  0.7088288299466703  0.004520656164235231  0.6684988881059174  1.0000
  C   C162      1.0  0.7044614900379716  0.9710458686294959  0.6767648762728886  1.0000
  H   H105      1.0  0.7855666583563187  0.998514252664627  0.7067106768572211  1.0000
  H   H106      1.0  0.793423713441672  0.057557437605610204  0.6913663880483891  1.0000
  H   H107      1.0  0.6871344718726387  0.006053569040642965  0.6581968857325133  1.0000
  H   H108      1.0  0.679564301819099  0.9471357136930408  0.6729108707864877  1.0000
  C   C163      1.0  0.718409416649222  0.7529765242601123  0.6712661724179118  1.0000
  C   C164      1.0  0.7469460621296202  0.7790732575697652  0.68845517248267  1.0000
  C   C165      1.0  0.7769432477121334  0.7762338294675417  0.69353506009927  1.0000
  C   C166      1.0  0.7789727403044203  0.7476483773657218  0.6810398586424236  1.0000
  C   C167      1.0  0.7508982432586931  0.7221802043515997  0.662983072728491  1.0000
  C   C168      1.0  0.7206402370052182  0.724569889882216  0.6585841473244337  1.0000
  H   H109      1.0  0.7455201487466626  0.8009449241757332  0.698570318475512  1.0000
  H   H110      1.0  0.7985118432971902  0.7961695596019417  0.7074716076580455  1.0000
  H   H111      1.0  0.7524034278802074  0.7005638051930972  0.6524462128291046  1.0000
  H   H112      1.0  0.6988273636281092  0.7043780349735727  0.6450724445358414  1.0000
  C   C169      1.0  0.7560101041068591  0.5280072528962994  0.26115632546575185  1.0000
  C   C170      1.0  0.7685877684541985  0.510395400242368  0.2811685382619942  1.0000
  C   C171      1.0  0.7618381417514289  0.4765610569708235  0.2726355310644385  1.0000
  C   C172      1.0  0.7423475443152862  0.4597569037822928  0.2441440825913923  1.0000
  C   C173      1.0  0.7296461736707254  0.4773147898103729  0.22416097474628488  1.0000
  C   C174      1.0  0.7364378275471375  0.5112078886833228  0.2326826313596158  1.0000
  H   H113      1.0  0.7835156407007189  0.5227991746672969  0.30324528397413025  1.0000
  H   H114      1.0  0.7717135510340838  0.4632065410784178  0.28834287884226495  1.0000
  H   H115      1.0  0.7149000186783859  0.4649676262736378  0.20199127059121777  1.0000
  H   H116      1.0  0.7266568258725814  0.5246192432116568  0.21694253460674723  1.0000
  C   C175      1.0  0.9694902549563634  0.7207912010707761  0.3114023350058468  1.0000
  C   C176      1.0  0.970297501142711  0.7024191022798604  0.3405680068403203  1.0000
  C   C177      1.0  0.0028003896886649696  0.7106554882744799  0.3540461532308377  1.0000
  C   C178      1.0  0.03487241738076131  0.7377127672705104  0.3389427827190834  1.0000
  C   C179      1.0  0.034087359428263124  0.7565841295101464  0.31011713095038757  1.0000
  C   C180      1.0  0.0015403688148361017  0.7479694625750101  0.296314758503328  1.0000
  H   H117      1.0  0.9458978315256632  0.6814341798931612  0.35247776440263434  1.0000
  H   H118      1.0  0.0030150454906656687  0.6957762962508621  0.37627246515772195  1.0000
  H   H119      1.0  0.05851785441759639  0.7774524531067466  0.2981866482390013  1.0000
  H   H120      1.0  0.0012503652412447774  0.7623700496093908  0.2737364341896378  1.0000
  C   C181      1.0  0.8236570915538897  0.6160415111888544  0.46658155116322564  1.0000
  C   C182      1.0  0.7979944354949461  0.6255344000585513  0.4652800491138331  1.0000
  C   C183      1.0  0.7847053404463943  0.6314521429519832  0.4954047909606966  1.0000
  C   C184      1.0  0.7976385625625013  0.6288878567473924  0.5269065436639034  1.0000
  C   C185      1.0  0.8238928175216588  0.6201859627566003  0.52821750257932  1.0000
  C   C186      1.0  0.8365429314808421  0.6133500333735967  0.49812402227792474  1.0000
  H   H121      1.0  0.787844700441596  0.6275667332903978  0.44112707533569623  1.0000
  H   H122      1.0  0.764330619627483  0.6380758172331004  0.4942705262796566  1.0000
  H   H123      1.0  0.8340364675869983  0.6181636982812816  0.5523741162704852  1.0000
  H   H124      1.0  0.8564404928227141  0.6060657548639371  0.4992215084233242  1.0000
  C   C187      1.0  0.7726648171526911  0.7341670833797211  0.3386495637251896  1.0000
  C   C188      1.0  0.7502231848599296  0.7154839090746075  0.312732766331497  1.0000
  C   C189      1.0  0.7275916247305367  0.726230357113975  0.2994426497337099  1.0000
  C   C190      1.0  0.7268502311863945  0.7554523900565513  0.3121121281196019  1.0000
  C   C191      1.0  0.7494919033921023  0.7742771385041738  0.33786040240130477  1.0000
  C   C192      1.0  0.7723078340942411  0.7637210691542365  0.35098759897829196  1.0000
  H   H125      1.0  0.7502346163048075  0.6927528246832537  0.302928295359876  1.0000
  H   H126      1.0  0.7103923353247403  0.711686901255249  0.2793037851598156  1.0000
  H   H127      1.0  0.7498037800824069  0.7973225809504758  0.3472351661686605  1.0000
  H   H128      1.0  0.7896941018717318  0.7784908309693224  0.37090918033977727  1.0000
  N   N1        1.0  0.2912877076331693  0.8688542227374227  0.7549707346056028  1.0000
  C   C193      1.0  0.30698910682138153  0.8492043762726678  0.7701235606821462  1.0000
  C   C194      1.0  0.2565111850657754  0.8565601395701831  0.7716921682588983  1.0000
  C   C195      1.0  0.2869534478843758  0.8624061704619538  0.7183324343486408  1.0000
  C   C196      1.0  0.3146006850321791  0.9072602307732275  0.7596469004235776  1.0000
  H   H129      1.0  0.2903738783193686  0.8202292870772809  0.7663465491281646  1.0000
  H   H130      1.0  0.30990224661455906  0.8526897715300972  0.7979412011591379  1.0000
  H   H131      1.0  0.33347351380395407  0.8581422464166513  0.7584337080850698  1.0000
  H   H132      1.0  0.2440634604230183  0.8710591545772601  0.7609236221810002  1.0000
  H   H133      1.0  0.2380775755441754  0.8277723014620845  0.7683593916358172  1.0000
  H   H134      1.0  0.2586413877417846  0.8607833500380395  0.799422224682143  1.0000
  H   H135      1.0  0.2688518282759806  0.8338222980603531  0.71388499690795  1.0000
  H   H136      1.0  0.312487308055019  0.8706760051260493  0.7048823395919785  1.0000
  H   H137      1.0  0.27564659040802747  0.8772178476079076  0.705985202907954  1.0000
  H   H138      1.0  0.3409710442065671  0.917611538481923  0.7470319164130035  1.0000
  H   H139      1.0  0.31848757742987066  0.9131098677734255  0.7870131180695902  1.0000
  H   H140      1.0  0.30325638921563763  0.9227281390117515  0.7486233668279147  1.0000
  N   N2        1.0  0.24521128397428005  0.5674958098951471  0.09432633221273805  1.0000
  C   C197      1.0  0.24878040875927865  0.6010511411876428  0.08105884729687622  1.0000
  C   C198      1.0  0.22201553574404043  0.5547202692055213  0.12531548737898807  1.0000
  C   C199      1.0  0.28027306248670525  0.5736337240103624  0.10262193008994792  1.0000
  C   C200      1.0  0.2299010362311823  0.5405761938369786  0.06832664218639921  1.0000
  H   H141      1.0  0.2655780917753637  0.611078787191665  0.05731478801357055  1.0000
  H   H142      1.0  0.26131932952303993  0.6223779099413347  0.09958680174183884  1.0000
  H   H143      1.0  0.22280761807094715  0.5977656648519002  0.0752625224908945  1.0000
  H   H144      1.0  0.21910797720477013  0.5296387941798886  0.13623815536631076  1.0000
  H   H145      1.0  0.2330442303174237  0.5743120292031192  0.14554779402862217  1.0000
  H   H146      1.0  0.19528418215498125  0.5497997415725275  0.12022203076088459  1.0000
  H   H147      1.0  0.2785378009002596  0.5492807050709583  0.11404717356202582  1.0000
  H   H148      1.0  0.2929147116547498  0.5945396979203229  0.12140717201304053  1.0000
  H   H149      1.0  0.2982561393774548  0.5822973699866155  0.07976022768382825  1.0000
  H   H150      1.0  0.22709669407766642  0.5150133863323014  0.07749639021544937  1.0000
  H   H151      1.0  0.246843240648047  0.5495293003795756  0.04460702478568181  1.0000
  H   H152      1.0  0.20337261868719106  0.5352127496426097  0.06147920346305839  1.0000
  N   N3        1.0  0.1248838643105157  0.3832643622986282  0.7767176132572586  1.0000
  C   C201      1.0  0.13740795247220464  0.4010418405358077  0.7427488382347832  1.0000
  C   C202      1.0  0.11089396140007296  0.40177029386424473  0.7963773167639124  1.0000
  C   C203      1.0  0.15458611980314713  0.38446495855163415  0.7944990169122856  1.0000
  C   C204      1.0  0.09672973458184835  0.34592044028462376  0.7731166152981636  1.0000
  H   H153      1.0  0.15805138962541765  0.4295036168745103  0.7443902186542775  1.0000
  H   H154      1.0  0.11551253908322012  0.39928251061158065  0.7277742272094242  1.0000
  H   H155      1.0  0.1493225493124498  0.38853921184958884  0.7279020661602394  1.0000
  H   H156      1.0  0.13161574682306765  0.4299819159391438  0.7996212878296941  1.0000
  H   H157      1.0  0.08867097057019853  0.40158930880936544  0.7833920506642783  1.0000
  H   H158      1.0  0.1009980887831504  0.3889329426188914  0.8221211240356429  1.0000
  H   H159      1.0  0.14641080864077827  0.371715679810639  0.8204178289940524  1.0000
  H   H160      1.0  0.17670821554924135  0.4122856596664334  0.7968214936814755  1.0000
  H   H161      1.0  0.16566689605563936  0.370553174934285  0.7804031119437724  1.0000
  H   H162      1.0  0.1062314371652661  0.33131642351372004  0.7579079254040709  1.0000
  H   H163      1.0  0.073964345538763  0.34404524388207686  0.7596217131627472  1.0000
  H   H164      1.0  0.08675521871043777  0.3314435301618965  0.7981732791415078  1.0000
  N   N4        1.0  0.43707078832576485  0.7149413013613771  0.9163841148481265  1.0000
  C   C205      1.0  0.46593160216836876  0.7151506938223051  0.9348177918123843  1.0000
  C   C206      1.0  0.41253194953744743  0.7170459025193533  0.9407947142053326  1.0000
  C   C207      1.0  0.4178892482079721  0.6817626588303143  0.8980483861321348  1.0000
  C   C208      1.0  0.4518602352245443  0.7456847495471164  0.8918310524046665  1.0000
  H   H165      1.0  0.4809156764518828  0.7397761107765878  0.9490517363921847  1.0000
  H   H166      1.0  0.4848597098035196  0.7135740285870038  0.9170126902522965  1.0000
  H   H167      1.0  0.4555856679223421  0.6921466480477693  0.9534283774666791  1.0000
  H   H168      1.0  0.3898013615203388  0.7157989353699412  0.9277852629406244  1.0000
  H   H169      1.0  0.4013753106652394  0.6945197925146024  0.9599941875481289  1.0000
  H   H170      1.0  0.42572213299459793  0.7420491169152279  0.9546796611003332  1.0000
  H   H171      1.0  0.39607069255745375  0.680899638596712  0.8838538866512632  1.0000
  H   H172      1.0  0.40583372833130427  0.657894057931328  0.9157002664109475  1.0000
  H   H173      1.0  0.43536339543963093  0.6792696788055194  0.879073666990612  1.0000
  H   H174      1.0  0.46626860527451186  0.7712604257166911  0.9046640241441017  1.0000
  H   H175      1.0  0.43078678803451237  0.745942874887126  0.8770401534448699  1.0000
  H   H176      1.0  0.47047530414352345  0.7448850014444932  0.8729727046525325  1.0000
  N   N5        1.0  0.7101188049765073  0.6419469858713074  0.7399613226835366  1.0000
  C   C209      1.0  0.7487797601211673  0.6582136782672856  0.7399263253019773  1.0000
  C   C210      1.0  0.7009978316396254  0.6694455014404824  0.7457645928214278  1.0000
  C   C211      1.0  0.693720590058192  0.6138338983720881  0.7672249574799731  1.0000
  C   C212      1.0  0.6970766186122594  0.6262125415882783  0.7068688803441306  1.0000
  H   H177      1.0  0.7566513591223503  0.6381685257749898  0.7360105639773252  1.0000
  H   H178      1.0  0.7597249230957842  0.6709953152225302  0.7642202894912322  1.0000
  H   H179      1.0  0.7619127214615272  0.6791058144218969  0.7193124566608614  1.0000
  H   H180      1.0  0.6720594837391932  0.6583637900488174  0.7452927476761227  1.0000
  H   H181      1.0  0.7101494575581228  0.6817264528082  0.7706286607476046  1.0000
  H   H182      1.0  0.713493296842705  0.6913401008567637  0.7258761758981268  1.0000
  H   H183      1.0  0.7031172336591562  0.6247011375063827  0.7925613849208738  1.0000
  H   H184      1.0  0.7002234783436524  0.5927372422557458  0.7633739447183102  1.0000
  H   H185      1.0  0.6645085005028071  0.6009112654067919  0.7680518449444664  1.0000
  H   H186      1.0  0.6679449265191234  0.6134200317896028  0.7060608754644916  1.0000
  H   H187      1.0  0.703989253318825  0.6056981076833141  0.7014822825200364  1.0000
  H   H188      1.0  0.7086548570395845  0.646732358006742  0.6857122994863416  1.0000
  N   N6        1.0  0.7432430145423666  0.2189948179634689  0.37781852322842074  1.0000
  C   C213      1.0  0.7809749822720755  0.23875139005454307  0.38561334288340554  1.0000
  C   C214      1.0  0.721725088733216  0.20808933559157697  0.40983846398274476  1.0000
  C   C215      1.0  0.7353259261327438  0.18710362872614006  0.3593976043216903  1.0000
  C   C216      1.0  0.7351027300649403  0.2418544962966279  0.3563841577718304  1.0000
  H   H189      1.0  0.7979617203566035  0.24761021890604265  0.36193925560623913  1.0000
  H   H190      1.0  0.7880688818353196  0.22198707374176013  0.4013640568257475  1.0000
  H   H191      1.0  0.7879201228483539  0.26279188785293933  0.39991487171545104  1.0000
  H   H192      1.0  0.6930743964202465  0.19279659196227975  0.40496752002891495  1.0000
  H   H193      1.0  0.7275888267572044  0.19085297327708098  0.4264151378580287  1.0000
  H   H194      1.0  0.7270292682968501  0.23145759829127105  0.4245366527958611  1.0000
  H   H195      1.0  0.74044819906554  0.16889124995290095  0.3751905166898172  1.0000
  H   H196      1.0  0.751823754937171  0.19434632884190614  0.3355386244384742  1.0000
  H   H197      1.0  0.7072907518358902  0.17187384236843004  0.35229094769862057  1.0000
  H   H198      1.0  0.7069517066503761  0.22763295272779277  0.34950396081187185  1.0000
  H   H199      1.0  0.7511896900842813  0.2505390734694174  0.33211781660183226  1.0000
  H   H200      1.0  0.7406291992118961  0.2661923512569183  0.36944028605147716  1.0000
  N   N7        1.0  0.7402013172646413  0.9598007999601372  0.5796098985292107  1.0000
  C   C217      1.0  0.7039081624932256  0.9484943049793877  0.5913703880447729  1.0000
  C   C218      1.0  0.7535368949723715  0.9908902173319161  0.5556642274774203  1.0000
  C   C219      1.0  0.740214026474111  0.9303708806234215  0.5623901388485673  1.0000
  C   C220      1.0  0.7630296728720452  0.9694188392213653  0.6090921904943161  1.0000
  H   H201      1.0  0.7027181236193619  0.9702862702465441  0.6037758179149507  1.0000
  H   H202      1.0  0.6934232764040649  0.9256433431280007  0.610134996825579  1.0000
  H   H203      1.0  0.6856277252822559  0.9398946959577632  0.569966202966458  1.0000
  H   H204      1.0  0.78088196788208  0.00015530816304631934  0.5462218296931511  1.0000
  H   H205      1.0  0.7367581607873158  0.9845032735019695  0.5331837041314406  1.0000
  H   H206      1.0  0.7538485172863585  0.013574333715417941  0.5679432395779948  1.0000
  H   H207      1.0  0.7298153522743637  0.9063483121643987  0.5796895292611539  1.0000
  H   H208      1.0  0.7671657106370448  0.9377384499782006  0.5533554618172704  1.0000
  H   H209      1.0  0.7231368233835679  0.9223414353004562  0.5400303241401844  1.0000
  H   H210      1.0  0.7905732342125767  0.9776846347131318  0.601393479607045  1.0000
  H   H211      1.0  0.7533355573233071  0.9466671259781628  0.6279815156843691  1.0000
  H   H212      1.0  0.7638202374897283  0.9917602711546203  0.6224880932309065  1.0000
  N   N8        1.0  0.6450961491374971  0.9223519994853  0.26746610976781976  1.0000
  C   C221      1.0  0.648433468992827  0.9108467762973798  0.302019615526804  1.0000
  C   C222      1.0  0.6094993653425642  0.9170648942423111  0.2643900801325108  1.0000
  C   C223      1.0  0.6504523846847734  0.9009810966103239  0.24243134566427846  1.0000
  C   C224      1.0  0.6719572010878061  0.9602949849364047  0.2611637690334189  1.0000
  H   H213      1.0  0.6743318728303233  0.9128953195043993  0.30476398644517244  1.0000
  H   H214      1.0  0.6276667481472271  0.8827502074021728  0.30807752138895034  1.0000
  H   H215      1.0  0.6462853642873728  0.9273091122344566  0.3217546529304766  1.0000
  H   H216      1.0  0.6059288146001003  0.9254348549671924  0.2386202410432544  1.0000
  H   H217      1.0  0.5887626729016182  0.8885521554563858  0.2689355610200952  1.0000
  H   H218      1.0  0.604472298675115  0.9324885566808314  0.2832190070899454  1.0000
  H   H219      1.0  0.6479755284424329  0.9087403286770086  0.21600843924916685  1.0000
  H   H220      1.0  0.6307158337260611  0.8721504875663144  0.24666367074016304  1.0000
  H   H221      1.0  0.6770024109308826  0.9041512110535944  0.2442273842974445  1.0000
  H   H222      1.0  0.6990798930272137  0.9649193360108678  0.26261691175712965  1.0000
  H   H223      1.0  0.6695063848414397  0.9771073293258373  0.28032665870018175  1.0000
  H   H224      1.0  0.6698053958037155  0.9701965939917038  0.23558311800170867  1.0000
  N   N9        1.0  0.743498343043149  0.518468026678071  0.6218901636223878  1.0000
  C   C225      1.0  0.7473062796428719  0.5529194279583293  0.6116191520031139  1.0000
  C   C226      1.0  0.711627409547333  0.4979030369834245  0.6442672769999388  1.0000
  C   C227      1.0  0.7747706056413356  0.5245720592977954  0.6403838431918413  1.0000
  C   C228      1.0  0.7403523059471306  0.4985535608074982  0.5912863927663157  1.0000
  H   H225      1.0  0.7711891234500668  0.5692612813265188  0.5947897578181361  1.0000
  H   H226      1.0  0.749554355502215  0.5686632075843677  0.6340386160582363  1.0000
  H   H227      1.0  0.7244121123193341  0.5495267032630011  0.5972977749747952  1.0000
  H   H228      1.0  0.7081637930079457  0.47193004664742505  0.652960927823535  1.0000
  H   H229      1.0  0.7132096981554887  0.5124852860546264  0.667438698062609  1.0000
  H   H230      1.0  0.687450597476669  0.49260143874106627  0.6311612298889012  1.0000
  H   H231      1.0  0.7780737389472816  0.5397551026637459  0.6635223549690513  1.0000
  H   H232      1.0  0.7993679014690548  0.5399531342363385  0.6242870709031278  1.0000
  H   H233      1.0  0.772639750463237  0.4991414847024201  0.6488705903916006  1.0000
  H   H234      1.0  0.7376081599419073  0.472449473359026  0.5979911599240935  1.0000
  H   H235      1.0  0.7639806990725823  0.5136185467225615  0.5738221870703373  1.0000
  H   H236      1.0  0.7170190301688775  0.4934969627567428  0.576711980593044  1.0000
  N   N10       1.0  0.9217764881579179  0.28868496295074436  0.2607123580727066  1.0000
  C   C229      1.0  0.9450301281385913  0.32620331898948535  0.24919323833292167  1.0000
  C   C230      1.0  0.9420879567404099  0.27046924664734046  0.26064899585792894  1.0000
  C   C231      1.0  0.8921456024169628  0.2711761248381936  0.2376497372923749  1.0000
  C   C232      1.0  0.9078483995165718  0.2869731153505009  0.29548353888503665  1.0000
  H   H237      1.0  0.9304557992554712  0.340661609967461  0.24896716750968384  1.0000
  H   H238      1.0  0.9561148864316581  0.32848282790063904  0.22305333436243352  1.0000
  H   H239      1.0  0.9675643948729414  0.3401860252406987  0.26618669857987776  1.0000
  H   H240      1.0  0.9524468360541275  0.270466646483491  0.23474760241352108  1.0000
  H   H241      1.0  0.9649259412351193  0.28339331654531036  0.27744980703513106  1.0000
  H   H242      1.0  0.9256386289817408  0.24233874471767525  0.2701985792475243  1.0000
  H   H243      1.0  0.8760087995115742  0.2840212255463305  0.23742893651479818  1.0000
  H   H244      1.0  0.8738918630957496  0.2428688591779276  0.24571049873061362  1.0000
  H   H245      1.0  0.9015085209670349  0.27186781204563787  0.2111261014144911  1.0000
  H   H246      1.0  0.8903588853105388  0.2590507773364456  0.3048519776493455  1.0000
  H   H247      1.0  0.8919297351159291  0.29999320802503665  0.2965839514312021  1.0000
  H   H248      1.0  0.9293529997282793  0.2996099777469795  0.31377139297754575  1.0000
  N   N11       1.0  0.6265358583285158  0.3913634192705743  0.2652196557507795  1.0000
  C   C233      1.0  0.6351340282283863  0.3667035340812267  0.28268859007847374  1.0000
  C   C234      1.0  0.6359475978321087  0.3942746518092405  0.22867464932701254  1.0000
  C   C235      1.0  0.6467764599304375  0.4267104859748976  0.27973488681787073  1.0000
  C   C236      1.0  0.5883571648916696  0.3776347090504241  0.26962157699029493  1.0000
  H   H249      1.0  0.6196851545258398  0.3395926565796582  0.27283745684353794  1.0000
  H   H250      1.0  0.629191936689157  0.36442773802233364  0.3104725226265637  1.0000
  H   H251      1.0  0.6636182055736864  0.3757038585147632  0.27889786998917093  1.0000
  H   H252      1.0  0.6301123563670873  0.41280809694085946  0.21452427318092435  1.0000
  H   H253      1.0  0.664443419648771  0.4040197755684934  0.2243551956112456  1.0000
  H   H254      1.0  0.6209996451456564  0.3680918783040814  0.21693792708035964  1.0000
  H   H255      1.0  0.6756364878288277  0.4371594965409864  0.277569396991584  1.0000
  H   H256      1.0  0.6397507545876729  0.42572747686546075  0.307127718647901  1.0000
  H   H257      1.0  0.6419861774642307  0.44641378157144335  0.2663695742631238  1.0000
  H   H258      1.0  0.5809873078408874  0.3957348104621953  0.2569565128063919  1.0000
  H   H259      1.0  0.5800069892567868  0.3742964144302217  0.29691596268597775  1.0000
  H   H260      1.0  0.5725269142451309  0.3512299437455234  0.25829195083903256  1.0000
  N   N12       1.0  0.2567763366609907  0.3184977588406546  0.5814285433650126  1.0000
  C   C237      1.0  0.21955794185959168  0.3023421041142456  0.5930615057472721  1.0000
  C   C238      1.0  0.26056948734086016  0.32997246507108857  0.545223596167217  1.0000
  C   C239      1.0  0.26783191569593867  0.292131292108327  0.5859193383443498  1.0000
  C   C240      1.0  0.2790320010664815  0.34962367629182767  0.6016187587903324  1.0000
  H   H261      1.0  0.2102475113778517  0.3213514845769727  0.5898157164661281  1.0000
  H   H262      1.0  0.21583738155597937  0.2940206261359475  0.620402193378097  1.0000
  H   H263      1.0  0.20187070430742465  0.27849652894102883  0.5788002406128738  1.0000
  H   H264      1.0  0.2882008851391416  0.3417376190067286  0.5353485192669144  1.0000
  H   H265      1.0  0.24321614467960972  0.3074533345328401  0.5292998451957024  1.0000
  H   H266      1.0  0.2531772879383362  0.3505245615231965  0.5413787414420943  1.0000
  H   H267      1.0  0.2960098804905206  0.3035059818608639  0.5780763114494007  1.0000
  H   H268      1.0  0.2517277639814727  0.26836031889669065  0.5709157052210281  1.0000
  H   H269      1.0  0.26470486121850517  0.28263962852634167  0.6129704011873611  1.0000
  H   H270      1.0  0.27669759345607686  0.34197680838346245  0.629099771758132  1.0000
  H   H271      1.0  0.2712325710164842  0.36998100679698964  0.5989199041335644  1.0000
  H   H272      1.0  0.30732358758853684  0.362579095053919  0.5935663427224027  1.0000
  N   N13       1.0  0.5352266791692138  0.7866310379833026  0.5857326748640574  1.0000
  C   C241      1.0  0.5585163422574557  0.8204234924994364  0.6019118283574434  1.0000
  C   C242      1.0  0.5184254531095852  0.7574958302968708  0.6120367107709002  1.0000
  C   C243      1.0  0.5563086581596576  0.7793007250684022  0.5614849656184857  1.0000
  C   C244      1.0  0.5078078237286489  0.7894052433776025  0.567529618654903  1.0000
  H   H273      1.0  0.5792860866325277  0.8190355413891205  0.6159624065909908  1.0000
  H   H274      1.0  0.5437186623931067  0.8267926932882284  0.6207292879010151  1.0000
  H   H275      1.0  0.5721940752146718  0.8430195442040676  0.5828801853415625  1.0000
  H   H276      1.0  0.5006536405033244  0.731522035850228  0.6008764675035715  1.0000
  H   H277      1.0  0.5384767905026704  0.7548355773585912  0.6263876827962362  1.0000
  H   H278      1.0  0.5026759802412282  0.7623723474467371  0.631116002927939  1.0000
  H   H279      1.0  0.5397730856069329  0.7541492342529545  0.5484822685629116  1.0000
  H   H280      1.0  0.5770898305815284  0.7769215184345494  0.5746134993716014  1.0000
  H   H281      1.0  0.5699073752323411  0.8010455976858726  0.5415721520939141  1.0000
  H   H282      1.0  0.48974664336773294  0.7643365147358833  0.5550126564826201  1.0000
  H   H283      1.0  0.5197344059785044  0.8111663896304082  0.5475018379231901  1.0000
  H   H284      1.0  0.49155730156103317  0.7950465305137523  0.5852216267153421  1.0000
  N   N14       1.0  0.8623604964335678  0.6084937228531838  0.2188190717575564  1.0000
  C   C245      1.0  0.8766509510573123  0.6022286519162172  0.18738677225891276  1.0000
  C   C246      1.0  0.846586986861491  0.5761664473837641  0.2413848652800645  1.0000
  C   C247      1.0  0.8351049672247447  0.6170806967566332  0.21024992948119506  1.0000
  C   C248      1.0  0.89099818433206  0.6384282253648645  0.23630312010977042  1.0000
  H   H285      1.0  0.8970180700098713  0.5953017060336603  0.1929981277352162  1.0000
  H   H286      1.0  0.8890274798069058  0.6261657001862307  0.16983068468429385  1.0000
  H   H287      1.0  0.855492548500803  0.579928639323332  0.1735691305608015  1.0000
  H   H288      1.0  0.825040262102354  0.5528999441818878  0.22893528420364628  1.0000
  H   H289      1.0  0.8664092726099963  0.5691510457569174  0.24900246110762278  1.0000
  H   H290      1.0  0.8348552213947492  0.5796775770242127  0.26503313768887216  1.0000
  H   H291      1.0  0.8117625600987554  0.5941199398666667  0.19934623453370703  1.0000
  H   H292      1.0  0.8454490955539982  0.6401267129190042  0.19176356115782117  1.0000
  H   H293      1.0  0.8252693713171231  0.6240128981540688  0.23317345458366887  1.0000
  H   H294      1.0  0.8809772095543145  0.6436311181493173  0.26018758575441747  1.0000
  H   H295      1.0  0.9033560641515052  0.6634911715556372  0.22032469740613667  1.0000
  H   H296      1.0  0.9121175691934468  0.6330714492752351  0.24334616830278727  1.0000
  N   N15       1.0  0.3929200041303051  0.7344027247278194  0.2995513111895899  1.0000
  C   C249      1.0  0.42828890229053257  0.745060326466692  0.31169261431974066  1.0000
  C   C250      1.0  0.3690123114413587  0.6959050303024418  0.3065975346118499  1.0000
  C   C251      1.0  0.3953740880723454  0.7424046884206351  0.2626390637887559  1.0000
  C   C252      1.0  0.3788815085026046  0.754105214641811  0.31707891795111026  1.0000
  H   H297      1.0  0.44749506005524264  0.7736892555469486  0.3057184953255135  1.0000
  H   H298      1.0  0.43899255373071294  0.7298157059142106  0.29946496957402263  1.0000
  H   H299      1.0  0.4276592178631017  0.740200732322518  0.3395916220677789  1.0000
  H   H300      1.0  0.3664482177259039  0.6888112036540575  0.33420875484663237  1.0000
  H   H301      1.0  0.34207688662440117  0.6869118139086435  0.2976354833339141  1.0000
  H   H302      1.0  0.37878766336759145  0.6802597662034934  0.29351106753455425  1.0000
  H   H303      1.0  0.3695005591071975  0.7362117282444691  0.25289327330649053  1.0000
  H   H304      1.0  0.40387228860192925  0.7264483687558111  0.2484266783125832  1.0000
  H   H305      1.0  0.41451910012435683  0.7708759435946418  0.25604281578000787  1.0000
  H   H306      1.0  0.3961423578387161  0.7832371005295642  0.3120594918565713  1.0000
  H   H307      1.0  0.37648126699585477  0.7486836840765403  0.34501668252099454  1.0000
  H   H308      1.0  0.35213852856979544  0.7464158146008072  0.3082627347139689  1.0000
  N   N16       1.0  0.12769929833548174  0.7047464898530386  0.2694671426174071  1.0000
  C   C253      1.0  0.14604131684840913  0.7081700204510369  0.23660017555987406  1.0000
  C   C254      1.0  0.14876321805059342  0.7032616113318113  0.2974242293111892  1.0000
  C   C255      1.0  0.09268402386271203  0.671931327566356  0.27093612845093695  1.0000
  C   C256      1.0  0.1233142905461612  0.7356728154043861  0.2729915543569432  1.0000
  H   H309      1.0  0.13101524980438053  0.7094587232836213  0.21486933671741312  1.0000
  H   H310      1.0  0.15028610731626235  0.6855673763804777  0.23320121991714765  1.0000
  H   H311      1.0  0.1724959234505634  0.732841807677595  0.23473199493329155  1.0000
  H   H312      1.0  0.13548345517098942  0.7000859844858267  0.3226154441904836  1.0000
  H   H313      1.0  0.15356085564908242  0.6808992517694942  0.2950833422280068  1.0000
  H   H314      1.0  0.1750196092749614  0.7280186120431204  0.29755195618580027  1.0000
  H   H315      1.0  0.07617177715464486  0.6720689158665678  0.2500543798320681  1.0000
  H   H316      1.0  0.07811941315644576  0.6689720308273991  0.29533997372027415  1.0000
  H   H317      1.0  0.09498448945178664  0.6479962557923159  0.26876080605480995  1.0000
  H   H318      1.0  0.1103005500184382  0.7344846820008104  0.2978378961309671  1.0000
  H   H319      1.0  0.1071113170847864  0.737426993044488  0.25267124462029994  1.0000
  H   H320      1.0  0.14920671098171392  0.7609101013189866  0.2713248675061128  1.0000
  N   N17       1.0  0.2700533417151465  0.21122912530341023  0.4073704576091227  1.0000
  C   C257      1.0  0.2617405697329598  0.19912198583265878  0.4434941932088872  1.0000
  C   C258      1.0  0.2566502580339317  0.1801188385121656  0.38598642166046526  1.0000
  C   C259      1.0  0.3086422096351154  0.2338528532944625  0.4018702206631114  1.0000
  C   C260      1.0  0.25326438317178224  0.2318139524715744  0.3980672021877813  1.0000
  H   H321      1.0  0.2716888683448066  0.22194193026051282  0.4603494596257325  1.0000
  H   H322      1.0  0.27415700544831406  0.1835453695664478  0.4512167508900299  1.0000
  H   H323      1.0  0.23285440365998378  0.1818498584624568  0.44861755570292183  1.0000
  H   H324      1.0  0.26267474308587735  0.18828086985554868  0.35858022983033044  1.0000
  H   H325      1.0  0.2688320936867332  0.16403424908661043  0.39216596455226027  1.0000
  H   H326      1.0  0.22760328082649972  0.16248034578741047  0.38926446919692326  1.0000
  H   H327      1.0  0.31963976952197704  0.2581064648401905  0.4168477217866123  1.0000
  H   H328      1.0  0.3159441045229605  0.24253471912211064  0.3746901395490344  1.0000
  H   H329      1.0  0.3222143286556241  0.21941508064162843  0.4094668076464114  1.0000
  H   H330      1.0  0.2589096273785977  0.24103480860936077  0.37089848943147335  1.0000
  H   H331      1.0  0.26303999134705947  0.2558343135907876  0.4132585590894754  1.0000
  H   H332      1.0  0.22411737282442154  0.21564385388873603  0.4018597267616071  1.0000
  N   N18       1.0  0.2878196543447657  0.04711105197105844  0.41895068054945567  1.0000
  C   C261      1.0  0.2604327269269157  0.05419329703838405  0.40705924858679293  1.0000
  C   C262      1.0  0.3217706422320263  0.072023487418553  0.40109508382394277  1.0000
  C   C263      1.0  0.27765542842637175  0.01028335407840627  0.41172815406245084  1.0000
  C   C264      1.0  0.2915470346981905  0.05217339702720416  0.4558529353953  1.0000
  H   H333      1.0  0.2343610034219489  0.035738079663814155  0.4198024994408141  1.0000
  H   H334      1.0  0.2571787098651812  0.051018376038095746  0.3792824393303311  1.0000
  H   H335      1.0  0.26731323302331  0.08178160862755293  0.41203925990486767  1.0000
  H   H336      1.0  0.3196824380634477  0.07000043322969852  0.37310045242265427  1.0000
  H   H337      1.0  0.3307522712252388  0.09995093382562731  0.406920138057485  1.0000
  H   H338      1.0  0.3428859119309937  0.06680177872166902  0.4084882198164965  1.0000
  H   H339      1.0  0.2974149067903394  0.0037605302855170473  0.42080026972456486  1.0000
  H   H340      1.0  0.2755925641702327  0.006050580930612916  0.3839805373696077  1.0000
  H   H341      1.0  0.2516016244403552  0.9906282351568674  0.4238511189957411  1.0000
  H   H342      1.0  0.29914417971056534  0.07981018339041651  0.46193519867912736  1.0000
  H   H343      1.0  0.3123749180912919  0.04757409628733932  0.4656138071637176  1.0000
  H   H344      1.0  0.266459613229431  0.03381152399448527  0.47022135151866595  1.0000
  N   N19       1.0  0.5829907245921417  0.22722222164345016  0.7230319938898022  1.0000
  C   C265      1.0  0.5475069878366121  0.21595136561283945  0.7108128188472667  1.0000
  C   C266      1.0  0.6064898852719341  0.23034869369306987  0.6943230539344286  1.0000
  C   C267      1.0  0.5805733360818446  0.20086392131219521  0.7487827336151227  1.0000
  C   C268      1.0  0.5976207726160176  0.2619874629295035  0.7384313231462859  1.0000
  H   H345      1.0  0.5291123764030381  0.21284267526538264  0.7320644660317305  1.0000
  H   H346      1.0  0.5357853677957166  0.19008979685723107  0.6984068277407608  1.0000
  H   H347      1.0  0.5481938596348876  0.23584821758704938  0.6921746584819325  1.0000
  H   H348      1.0  0.6092415198874548  0.2504244883645178  0.6747041615195228  1.0000
  H   H349      1.0  0.6334758631016383  0.23886546489537547  0.7029841141577972  1.0000
  H   H350      1.0  0.5963876865193776  0.20463188160789111  0.6819582525676213  1.0000
  H   H351      1.0  0.6069498620001942  0.208870730401645  0.7587122751855978  1.0000
  H   H352      1.0  0.569770622264218  0.17424485025380262  0.7381227519725488  1.0000
  H   H353      1.0  0.563276056787544  0.19814863068329105  0.7709538585075181  1.0000
  H   H354      1.0  0.5981815438560822  0.2823619312021477  0.7205553749420605  1.0000
  H   H355      1.0  0.6249847216744738  0.27212102931004234  0.7463119023834884  1.0000
  H   H356      1.0  0.5819638058713984  0.2602343776040018  0.7614964481028349  1.0000
  N   N20       1.0  0.7277981271017581  0.11639900441037199  0.7584763476254154  1.0000
  C   C269      1.0  0.7367293494211312  0.08867809271511984  0.7532316746236581  1.0000
  C   C270      1.0  0.6932521536583492  0.10055876219284077  0.7767930417378596  1.0000
  C   C271      1.0  0.7260500405062622  0.1316349046277887  0.7252272484058803  1.0000
  C   C272      1.0  0.755080393561914  0.14481885321472232  0.7785357784187797  1.0000
  H   H357      1.0  0.7167715069813854  0.06694719183932563  0.7379520910780577  1.0000
  H   H358      1.0  0.7385403514471061  0.07663907589801133  0.7777244854953672  1.0000
  H   H359      1.0  0.7624177161811861  0.09957229201142548  0.7390473183705187  1.0000
  H   H360      1.0  0.6858705312907818  0.12087970532546377  0.7812484975879609  1.0000
  H   H361      1.0  0.6720649183988054  0.07926314274071111  0.762136293734801  1.0000
  H   H362      1.0  0.6935558256532466  0.08862905178199099  0.8019688460974668  1.0000
  H   H363      1.0  0.7185620500086151  0.15206094782814072  0.7280713523391804  1.0000
  H   H364      1.0  0.7069047316452928  0.11086962763979002  0.7086290458735992  1.0000
  H   H365      1.0  0.7520283360638385  0.1448621488721229  0.711463796714463  1.0000
  H   H366      1.0  0.7496014529684571  0.1666354470925675  0.7821494101360177  1.0000
  H   H367      1.0  0.7815722215279487  0.15729220069189176  0.7655556510290964  1.0000
  H   H368      1.0  0.756994945273014  0.13458545130901856  0.8040196921259872  1.0000
  N   N21       1.0  0.20380592331704503  0.6270182683025468  0.7442458166987227  1.0000
  C   C273      1.0  0.16743054916282948  0.608612446516162  0.7589148064503405  1.0000
  C   C274      1.0  0.20966768608997424  0.6572176469264481  0.7217979772719542  1.0000
  C   C275      1.0  0.20926461631670068  0.6020458146285405  0.7244690834539307  1.0000
  C   C276      1.0  0.228907449729811  0.6402146482664093  0.771931740664039  1.0000
  H   H369      1.0  0.16233958627970876  0.5859132489697814  0.7763023173660749  1.0000
  H   H370      1.0  0.14773268780041743  0.5980674028485639  0.7387644748868221  1.0000
  H   H371      1.0  0.16252587260790563  0.6268840464803755  0.7738701389967462  1.0000
  H   H372      1.0  0.20603318202287327  0.6767142354413235  0.7360332039879142  1.0000
  H   H373      1.0  0.23688158934021092  0.6716218763012954  0.7102537576593454  1.0000
  H   H374      1.0  0.19106772048650109  0.6484142302562391  0.7006867539965266  1.0000
  H   H375      1.0  0.23708578771073233  0.6145584802689688  0.7146809176591074  1.0000
  H   H376      1.0  0.19191560329517035  0.5926421103846454  0.7024222222122704  1.0000
  H   H377      1.0  0.20373714256815498  0.5782697733206599  0.7404000582098103  1.0000
  H   H378      1.0  0.25666668741238824  0.6548861688974081  0.7618448196451238  1.0000
  H   H379      1.0  0.22582951713029145  0.6179988254608766  0.7888394279602451  1.0000
  H   H380      1.0  0.2252267979998816  0.6586129638613355  0.7879324267433749  1.0000
  N   N22       1.0  0.6716165013991356  0.7156009756805949  0.4130123682814458  1.0000
  C   C277      1.0  0.6912608947103059  0.6978271492084318  0.4042825971480686  1.0000
  C   C278      1.0  0.6514795478809638  0.7157079076888082  0.3835683913145264  1.0000
  C   C279      1.0  0.6965884907373581  0.7525411343129592  0.4218996245663532  1.0000
  C   C280      1.0  0.6470759674510228  0.6963579194216855  0.44230403644463334  1.0000
  H   H381      1.0  0.7079296578684345  0.6984206403919954  0.4253484371736853  1.0000
  H   H382      1.0  0.7089669849220753  0.7108798309798992  0.381481814368127  1.0000
  H   H383      1.0  0.6731771784412094  0.6696045480862963  0.39839894484636973  1.0000
  H   H384      1.0  0.6330011684085756  0.6883917635638603  0.3754827850218626  1.0000
  H   H385      1.0  0.6356458867975523  0.7280922720381873  0.3895292416752178  1.0000
  H   H386      1.0  0.6692125748791704  0.7309883107503822  0.36129675155727775  1.0000
  H   H387      1.0  0.712360969410915  0.7535662344718613  0.44393740526027997  1.0000
  H   H388      1.0  0.6825612189715858  0.7666626844680643  0.4286776353193513  1.0000
  H   H389      1.0  0.7152759104202127  0.7679952098724782  0.4003270906060214  1.0000
  H   H390      1.0  0.6613990444156261  0.695676596231526  0.4649409961324578  1.0000
  H   H391      1.0  0.6275127109341577  0.6685195706877973  0.43641521653754195  1.0000
  H   H392      1.0  0.6320526281593042  0.7093341175984627  0.449636940926619  1.0000
  N   N23       1.0  0.3098096281482003  0.43745874797608425  0.29154095544961484  1.0000
  C   C281      1.0  0.30295482583940125  0.43206560263505567  0.32868165892186824  1.0000
  C   C282      1.0  0.27711132381220593  0.41357383754465304  0.27424127690621825  1.0000
  C   C283      1.0  0.3372085048890015  0.429261313509345  0.28190262608538674  1.0000
  C   C284      1.0  0.32173320599684574  0.4747084900169352  0.28140129468706665  1.0000
  H   H393      1.0  0.32696523486001733  0.44975029081083756  0.34265230383040507  1.0000
  H   H394      1.0  0.29386743055737774  0.404186027354931  0.33718022938645154  1.0000
  H   H395      1.0  0.2821167542539929  0.4376997482246995  0.33680078653879725  1.0000
  H   H396      1.0  0.2555947188521053  0.4183486422153179  0.28168554461523915  1.0000
  H   H397      1.0  0.2808990563018012  0.4174397608639786  0.24616310785473466  1.0000
  H   H398      1.0  0.2677705209855591  0.3852156241296694  0.28081643806305084  1.0000
  H   H399      1.0  0.3622786642563267  0.44663117536165575  0.29458928619521024  1.0000
  H   H400      1.0  0.3429039732072589  0.43287918265905656  0.25400188373065646  1.0000
  H   H401      1.0  0.328658449372705  0.40118040995902876  0.2892808504485944  1.0000
  H   H402      1.0  0.30172200326050347  0.4816597449868392  0.2890128583967509  1.0000
  H   H403      1.0  0.3262259560840611  0.4796024483824638  0.2534121526070067  1.0000
  H   H404      1.0  0.34665328753549296  0.49354805295600357  0.2935584564360487  1.0000
  N   N24       1.0  0.245144501293184  0.9542292329719625  0.5920017545617754  1.0000
  C   C285      1.0  0.27204494572036836  0.9881567300033681  0.6058394429413505  1.0000
  C   C286      1.0  0.23446032074178386  0.9610227301817743  0.5587119027843711  1.0000
  C   C287      1.0  0.21403303093911485  0.9366240756438557  0.6156008871088803  1.0000
  C   C288      1.0  0.25984526905044114  0.9309243327137399  0.5880009818080462  1.0000
  H   H405      1.0  0.28094090312529585  0.9836791456060792  0.6306987603140484  1.0000
  H   H406      1.0  0.2616042065377628  0.006093789819779483  0.6102577427550148  1.0000
  H   H407      1.0  0.29574365889818033  0.002661584499493941  0.5885104244781469  1.0000
  H   H408      1.0  0.2142596918900279  0.9357010298599295  0.5477275943728088  1.0000
  H   H409      1.0  0.22282029623591734  0.9781407681856192  0.5610729081601095  1.0000
  H   H410      1.0  0.2572833311191603  0.9744314441476838  0.5402404611626094  1.0000
  H   H411      1.0  0.20399561410965547  0.9545086909420635  0.6217159249479357  1.0000
  H   H412      1.0  0.22029992538765927  0.9278627021783658  0.6397974156473275  1.0000
  H   H413      1.0  0.19196817993531975  0.9126296885609532  0.6047919970698835  1.0000
  H   H414      1.0  0.24001583991523776  0.904855061034466  0.5781110626430357  1.0000
  H   H415      1.0  0.2682034807570821  0.9253477109911269  0.6127360457303558  1.0000
  H   H416      1.0  0.2831779761576982  0.9431215545668714  0.5700925259184842  1.0000
  N   N25       1.0  0.38339138048316634  0.25855716415984487  0.769387327377299  1.0000
  C   C289      1.0  0.3844447276872347  0.2288649910931872  0.7867781638733162  1.0000
  C   C290      1.0  0.40102596052858175  0.2903030744516643  0.7899160887311925  1.0000
  C   C291      1.0  0.34635753624730437  0.2485550928599815  0.7648178179461931  1.0000
  C   C292      1.0  0.4018640071421125  0.2665318246829425  0.7358632707035446  1.0000
  H   H417      1.0  0.37114060483876793  0.22221967602333115  0.8123709728156903  1.0000
  H   H418      1.0  0.4120495269614622  0.2352022205923744  0.7898179844088422  1.0000
  H   H419      1.0  0.3711841274405378  0.20440352471699597  0.771995730565298  1.0000
  H   H420      1.0  0.3876677918195967  0.28531282179813927  0.8153718479139915  1.0000
  H   H421      1.0  0.42900362404559644  0.29840420434827813  0.7938538425868548  1.0000
  H   H422      1.0  0.4009431137004913  0.3132344230810777  0.7772423307622885  1.0000
  H   H423      1.0  0.3446066044753844  0.27031195885047693  0.7515624582984751  1.0000
  H   H424      1.0  0.33135603229525123  0.2420033874223132  0.7895063131816448  1.0000
  H   H425      1.0  0.3324506493324304  0.22502237594877333  0.7489250786709624  1.0000
  H   H426      1.0  0.4002321571066419  0.2876067212941332  0.7211088069215829  1.0000
  H   H427      1.0  0.3899623546080306  0.24267729636662624  0.7204666333545298  1.0000
  H   H428      1.0  0.43014174902895447  0.27514805699339917  0.73820642419839  1.0000
  N   N26       1.0  0.044026049240196166  0.22612278209436038  0.4153118014685228  1.0000
  C   C293      1.0  0.03518641168583365  0.18879322977154178  0.41602592640246977  1.0000
  C   C294      1.0  0.054482736103036146  0.2405148854921317  0.4493218240275051  1.0000
  C   C295      1.0  0.013015142963985296  0.2279889798362187  0.40523671875395756  1.0000
  C   C296      1.0  0.0735640626935107  0.24724673313707157  0.3905349138706334  1.0000
  H   H429      1.0  0.027201212035568995  0.17731155688712996  0.39062453157915333  1.0000
  H   H430      1.0  0.013022845451142556  0.17200544935917408  0.4345095660059258  1.0000
  H   H431      1.0  0.058176519649907846  0.18652425536793318  0.42326514820087074  1.0000
  H   H432      1.0  0.06256835119106641  0.2690867580780104  0.4492145096999811  1.0000
  H   H433      1.0  0.032674002188430376  0.225843960424722  0.46865576350195487  1.0000
  H   H434      1.0  0.07757158798610844  0.2390309504203754  0.45786200728253135  1.0000
  H   H435      1.0  0.018722584480136514  0.25578975961528594  0.40467814339755337  1.0000
  H   H436      1.0  0.989939907227852  0.2119775269089903  0.42299870573799153  1.0000
  H   H437      1.0  0.004846663165292133  0.21782835267667802  0.3794336707477298  1.0000
  H   H438      1.0  0.09758302305948167  0.24701237363389364  0.3978828778304491  1.0000
  H   H439      1.0  0.08071584291521317  0.2755276372528331  0.38879814606939594  1.0000
  H   H440      1.0  0.06708930013698425  0.23687329126354267  0.36461017262054657  1.0000
  N   N27       1.0  0.44225670849658055  0.1452633463651258  0.24694989007691193  1.0000
  C   C297      1.0  0.4429220523207329  0.15234794587823572  0.2834120943362459  1.0000
  C   C298      1.0  0.406044815549393  0.11816665765435742  0.2383584692564137  1.0000
  C   C299      1.0  0.4664257555689362  0.1322289042741873  0.23956820021996708  1.0000
  C   C300      1.0  0.4536766290522756  0.17836168836207436  0.22650985520838093  1.0000
  H   H441      1.0  0.4698380031685469  0.17267097838749854  0.29094116230004075  1.0000
  H   H442      1.0  0.4338456334091159  0.127859836636187  0.2996852910137986  1.0000
  H   H443      1.0  0.4253542294686703  0.16268151387295354  0.28974126060492855  1.0000
  H   H444      1.0  0.404323857202861  0.11231283825780379  0.21098067262093076  1.0000
  H   H445      1.0  0.39658435158825406  0.09275152482855854  0.25325461809977146  1.0000
  H   H446      1.0  0.3870184958116238  0.12694726041623539  0.24412083583455457  1.0000
  H   H447      1.0  0.4666483373436029  0.12670285711048151  0.2122230155850244  1.0000
  H   H448      1.0  0.4585970402355546  0.10727951003748556  0.2546098563173165  1.0000
  H   H449      1.0  0.4939907709716289  0.1521523320033003  0.24578979335982234  1.0000
  H   H450      1.0  0.48115987074885125  0.19916760345213122  0.23195159452353847  1.0000
  H   H451      1.0  0.4364756752865522  0.18939596818571625  0.2320136540230343  1.0000
  H   H452      1.0  0.4530010304666076  0.1740206230801723  0.1988151463992387  1.0000
  N   N28       1.0  0.0910535891388574  0.7448277499676206  0.4672009376107422  1.0000
  C   C301      1.0  0.10409082850557357  0.7745476996847256  0.4902962087716756  1.0000
  C   C302      1.0  0.06497786957161009  0.7455276110363824  0.4448016750530234  1.0000
  C   C303      1.0  0.07432771336864999  0.7108791483943643  0.48737752446078986  1.0000
  C   C304      1.0  0.12088172365248519  0.7484008560998474  0.4463248163911634  1.0000
  H   H453      1.0  0.12442450177055452  0.7753025641543716  0.5070583604567281  1.0000
  H   H454      1.0  0.082513104978003  0.772457335120873  0.5070058255117198  1.0000
  H   H455      1.0  0.11632099006971605  0.8005327492394086  0.4758496294407729  1.0000
  H   H456      1.0  0.07708476259827636  0.7703472006581753  0.42838903960197483  1.0000
  H   H457      1.0  0.05401811130859517  0.7230089720541486  0.4274779415562043  1.0000
  H   H458      1.0  0.04247679477938116  0.7438044914641826  0.45961402906640814  1.0000
  H   H459      1.0  0.06444671341985787  0.6878927266787308  0.4707122793583862  1.0000
  H   H460      1.0  0.0515524962898785  0.7072114765950119  0.5032945011347832  1.0000
  H   H461      1.0  0.09331599462707256  0.7097088676038739  0.5047432424302155  1.0000
  H   H462      1.0  0.1119576173394173  0.7272425128367368  0.42762222325634136  1.0000
  H   H463      1.0  0.140825448038093  0.7472224711609813  0.4622470655131769  1.0000
  H   H464      1.0  0.13486408774727682  0.7742519711598231  0.43168168018492853  1.0000
  N   N29       1.0  0.9078285291165824  0.7913366606585044  0.33222277099711345  1.0000
  C   C305      1.0  0.8894339980062673  0.7875418357379785  0.36515097761664156  1.0000
  C   C306      1.0  0.923948067442916  0.8282512392150613  0.3184563296555663  1.0000
  C   C307      1.0  0.882257933863578  0.7670145592447468  0.30812886473387513  1.0000
  C   C308      1.0  0.9355683780525991  0.7825029235696992  0.337076159806731  1.0000
  H   H465      1.0  0.8769788098219135  0.7599660291893076  0.3763000210151339  1.0000
  H   H466      1.0  0.8677888354754437  0.7932489268407801  0.3622824939558062  1.0000
  H   H467      1.0  0.907727352040071  0.8056480139040542  0.3839888802168434  1.0000
  H   H468      1.0  0.9036236082185247  0.8356492773545594  0.3144915230219157  1.0000
  H   H469      1.0  0.9434114262348657  0.8473908907001949  0.33597212557366213  1.0000
  H   H470      1.0  0.9379409728595318  0.8319431551081894  0.2935544769136053  1.0000
  H   H471      1.0  0.8951610059561427  0.7685595381278422  0.2831357429341069  1.0000
  H   H472      1.0  0.8607857983394969  0.7727285320812953  0.3038984372688374  1.0000
  H   H473      1.0  0.8693444904380099  0.7390892023545395  0.31800497985492193  1.0000
  H   H474      1.0  0.9496676179672191  0.7845457260231958  0.3126521036995289  1.0000
  H   H475      1.0  0.9242889967943981  0.7547882155035107  0.34744337984020657  1.0000
  H   H476      1.0  0.9554697814396579  0.8003427669338848  0.355000738380475  1.0000
  N   N30       1.0  0.9501362180095517  0.2521005535729524  0.576387909767177  1.0000
  C   C309      1.0  0.9251887317203705  0.21334390602000777  0.5778282604644872  1.0000
  C   C310      1.0  0.9392640379391344  0.26865443493273605  0.6021878898042586  1.0000
  C   C311      1.0  0.9500330732830602  0.2670254347221452  0.5423612412267866  1.0000
  C   C312      1.0  0.9859002258342661  0.2593444398698887  0.5833448489003652  1.0000
  H   H477      1.0  0.8978978879726265  0.2069341381868616  0.5729194906011661  1.0000
  H   H478      1.0  0.924401151030049  0.201194041014965  0.6032457005848193  1.0000
  H   H479      1.0  0.9324446046942155  0.1998721906481587  0.5587149880238768  1.0000
  H   H480      1.0  0.9585233383116137  0.29756696120173953  0.603372858600564  1.0000
  H   H481      1.0  0.9132278174621548  0.26543770179071885  0.5967407015873732  1.0000
  H   H482      1.0  0.9367850018487431  0.2563135690709539  0.6278400819822472  1.0000
  H   H483      1.0  0.9682835068445174  0.29628833401557775  0.5405020581413443  1.0000
  H   H484      1.0  0.9232027341123619  0.26175225208814196  0.5365925855813898  1.0000
  H   H485      1.0  0.9580098219218882  0.2551299334339623  0.5221636155455786  1.0000
  H   H486      1.0  0.005412246442228152  0.28834862903031144  0.5829636792210816  1.0000
  H   H487      1.0  0.9950956327354815  0.24728423782236658  0.5644479813727888  1.0000
  H   H488      1.0  0.9865477677310516  0.24824850372695398  0.6088801779397035  1.0000
  N   N31       1.0  0.9344698103091185  0.793539454653011  0.6756794575073368  1.0000
  C   C313      1.0  0.9139013947110621  0.759142759235793  0.6948070278953886  1.0000
  C   C314      1.0  0.9177183268611783  0.7917763309549806  0.6431325121553758  1.0000
  C   C315      1.0  0.9707941923527724  0.8012873035156631  0.6689492357722419  1.0000
  C   C316      1.0  0.9352236511486395  0.8217190393198348  0.6958544624965788  1.0000
  H   H489      1.0  0.9260077140506244  0.7591558901795177  0.719286322896502  1.0000
  H   H490      1.0  0.9123355851869656  0.7372326829133943  0.6800680095039375  1.0000
  H   H491      1.0  0.8864380701396172  0.7526146606118054  0.700613150241372  1.0000
  H   H492      1.0  0.9176440575033524  0.7713809101369337  0.6269357030260184  1.0000
  H   H493      1.0  0.889776428673346  0.7846415105980803  0.6472623449011494  1.0000
  H   H494      1.0  0.9318606742987144  0.8175783545420184  0.6283768284711239  1.0000
  H   H495      1.0  0.987392267955605  0.8274114684165822  0.6551831402350587  1.0000
  H   H496      1.0  0.9710069242125645  0.7807956834934547  0.6531163223454076  1.0000
  H   H497      1.0  0.983923108829619  0.8016104182572534  0.6928892055222401  1.0000
  H   H498      1.0  0.9504755352012954  0.8481298680335612  0.6822334444483839  1.0000
  H   H499      1.0  0.947558696821465  0.823611595321574  0.7206582796701518  1.0000
  H   H500      1.0  0.9080627407710873  0.8164184233940897  0.7012604569471649  1.0000
  N   N32       1.0  0.7284137323942003  0.4348265702348343  0.9095653160314211  1.0000
  C   C317      1.0  0.699791129152889  0.43532376118626026  0.891329304018144  1.0000
  C   C318      1.0  0.7187007386179562  0.42758655822299024  0.9462271690727901  1.0000
  C   C319      1.0  0.7613473394936128  0.46948724888383764  0.9040346499455116  1.0000
  C   C320      1.0  0.7337226096719229  0.4067290971437928  0.8964111392882115  1.0000
  H   H501      1.0  0.7058469568457829  0.43979945342896204  0.863422824053817  1.0000
  H   H502      1.0  0.6954096257793837  0.4566268841800369  0.9000690629681966  1.0000
  H   H503      1.0  0.6744361091390488  0.40963828235585803  0.8955324187400917  1.0000
  H   H504      1.0  0.7388623294743011  0.4253265213883862  0.9607433446165071  1.0000
  H   H505      1.0  0.7154876637641627  0.4487764011477716  0.9573163806860983  1.0000
  H   H506      1.0  0.6932514731502893  0.4021020272035257  0.9508930461943821  1.0000
  H   H507      1.0  0.7835238082898852  0.4698663817044467  0.9172787330232334  1.0000
  H   H508      1.0  0.7584094402407671  0.49145561758482226  0.9135177681491747  1.0000
  H   H509      1.0  0.7691101433690796  0.4754168433608647  0.8764609374953526  1.0000
  H   H510      1.0  0.7543826861291631  0.4047034058546248  0.9101662356662622  1.0000
  H   H511      1.0  0.7418899935664351  0.4118499959305884  0.8689752103500598  1.0000
  H   H512      1.0  0.709086100046665  0.38035227977063407  0.8991657630591855  1.0000
