data_image0
_chemical_formula_structural       FeS2FeS2FeSFeS3FeS2FeS2FeSFeS3FeS2FeS2FeSFeS3FeS2FeS2FeSFeS3FeS2FeS2FeSFeS3FeS2FeS2FeSFeS3FeS2FeS2FeSFeS3FeS2FeS2FeSFeS3FeS2FeS2FeSFeS3FeS2FeS2FeSFeS3FeS2FeS2FeSFeS3FeS2FeS2FeSFeS3C6H4C6H4C6H4C6H4C6H4C6H4C6H4C6H4C6H4C6H4C6H4C6H4C6H4C6H4C6H4C6H4C6H4C6H4C6H4C6H4C6H4C6H4C6H4C6H4FeS2FeS2FeSFeS3FeS2FeS2FeSFeS3FeS2FeS2FeSFeS3FeS2FeS2FeSFeS3FeS2FeS2FeSFeS3FeS2FeS2FeSFeS3FeS2FeS2FeSFeS3FeS2FeS2FeSFeS3FeS2FeS2FeSFeS3FeS2FeS2FeSFeS3FeS2FeS2FeSFeS3FeS2FeS2FeSFeS3C6H4C6H4C6H4C6H4C6H4C6H4C6H4C6H4C6H4C6H4C6H4C6H4C6H4C6H4C6H4C6H4C6H4C6H4C6H4C6H4C6H4C6H4C6H4C6H4NC4H12NC4H12NC4H12NC4H12NC4H12NC4H12NC4H12NC4H12NC4H12NC4H12NC4H12NC4H12NC4H12NC4H12NC4H12NC4H12NC4H12NC4H12NC4H12NC4H12NC4H12NC4H12NC4H12NC4H12NC4H12NC4H12NC4H12NC4H12NC4H12NC4H12NC4H12NC4H12NC4H12NC4H12NC4H12NC4H12NC4H12NC4H12NC4H12NC4H12NC4H12NC4H12NC4H12NC4H12NC4H12NC4H12NC4H12NC4H12
_chemical_formula_sum              "Fe96 S192 C480 H768 N48"
_cell_length_a       48.170009196292675
_cell_length_b       48.20045469958404
_cell_length_c       46.085612658233266
_cell_angle_alpha    90.39701399574429
_cell_angle_beta     88.92351524539748
_cell_angle_gamma    119.90613271778409

_space_group_name_H-M_alt    "P 1"
_space_group_IT_number       1

loop_
  _space_group_symop_operation_xyz
  'x, y, z'

loop_
  _atom_site_type_symbol
  _atom_site_label
  _atom_site_symmetry_multiplicity
  _atom_site_fract_x
  _atom_site_fract_y
  _atom_site_fract_z
  _atom_site_occupancy
  Fe  Fe1       1.0  0.907837624282853  0.7070822014169292  0.24869365581195552  1.0000
  S   S1        1.0  0.8737782877453217  0.6545676903781995  0.2578532411610306  1.0000
  S   S2        1.0  0.959591117378537  0.7198727448780554  0.25811119562276713  1.0000
  Fe  Fe2       1.0  0.8516906297334889  0.7186508137251819  0.23560341132389004  1.0000
  S   S3        1.0  0.8150433427629429  0.6675827141910888  0.2454496817614322  1.0000
  S   S4        1.0  0.8329346834823406  0.7488193407575972  0.21435047430867216  1.0000
  Fe  Fe3       1.0  0.8450671639370124  0.6712836913953545  0.2836839709527644  1.0000
  S   S5        1.0  0.8242805862678035  0.6560614113833487  0.32975977738896867  1.0000
  Fe  Fe4       1.0  0.846876572959751  0.6551769113339742  0.2186479390757307  1.0000
  S   S6        1.0  0.8206975038256238  0.6123555565612633  0.1883534127277798  1.0000
  S   S7        1.0  0.8796971796510599  0.7238591789322744  0.27602431124796295  1.0000
  S   S8        1.0  0.8828811958518278  0.7060790051672523  0.20725854911390282  1.0000
  Fe  Fe5       1.0  0.1479467480823291  0.32157508338062263  0.25780181904811067  1.0000
  S   S9        1.0  0.16657931926346362  0.3748120689099981  0.2559046614181709  1.0000
  S   S10       1.0  0.09862971961705047  0.28396254578150854  0.2754974808415723  1.0000
  Fe  Fe6       1.0  0.21242027743019018  0.32889147619941717  0.23693736019154243  1.0000
  S   S11       1.0  0.23499125119797287  0.38233487516718995  0.2336670929783106  1.0000
  S   S12       1.0  0.24449934303324544  0.31027019115182625  0.2188508537655827  1.0000
  Fe  Fe7       1.0  0.21076734684952786  0.37960948573020786  0.276887968276674  1.0000
  S   S13       1.0  0.24420809938854035  0.41548181509241616  0.31051592404443246  1.0000
  Fe  Fe8       1.0  0.18957917488423065  0.37317297054731857  0.21302500228587415  1.0000
  S   S14       1.0  0.1861044139360097  0.3961075893397833  0.17089101800497938  1.0000
  S   S15       1.0  0.1912064223852918  0.3265546144807533  0.28129199441120417  1.0000
  S   S16       1.0  0.1678205491055579  0.31959336163257435  0.21378592987956918  1.0000
  Fe  Fe9       1.0  0.9104444892022973  0.20202218342630152  0.2411874598976406  1.0000
  S   S17       1.0  0.8837610588737068  0.22825650087251978  0.2501164563759292  1.0000
  S   S18       1.0  0.9603835816728269  0.2351509452579494  0.2217665315383078  1.0000
  Fe  Fe10      1.0  0.8511502224508855  0.13768582314796277  0.25841120328248013  1.0000
  S   S19       1.0  0.8208084526560525  0.1605387077946166  0.26821908029397923  1.0000
  S   S20       1.0  0.8353496365897851  0.0861619273345131  0.27235410198340665  1.0000
  Fe  Fe11      1.0  0.842748441403652  0.1884674751933242  0.2266144649811656  1.0000
  S   S21       1.0  0.818506873043018  0.20779047724669186  0.19706508524967156  1.0000
  Fe  Fe12      1.0  0.8642640498719686  0.19881515946465342  0.29065876310374344  1.0000
  S   S22       1.0  0.8713583473071421  0.2263203999887043  0.3330823182590707  1.0000
  S   S23       1.0  0.8702365699929868  0.16317844077770324  0.21528779514633734  1.0000
  S   S24       1.0  0.8938174824361075  0.17500746373603315  0.28323403829434085  1.0000
  Fe  Fe13      1.0  0.6754539500130797  0.8296532125857479  0.2177487389761601  1.0000
  S   S25       1.0  0.7289708188763024  0.8561184164162103  0.2104360828079521  1.0000
  S   S26       1.0  0.6384089589863547  0.7961525122099069  0.1851880973997087  1.0000
  Fe  Fe14      1.0  0.6808446748813807  0.8532049090979936  0.28109456080535333  1.0000
  S   S27       1.0  0.7347209639063611  0.8815306800929917  0.27788652124755864  1.0000
  S   S28       1.0  0.6537943055603217  0.859719811676798  0.31960621308579007  1.0000
  Fe  Fe15      1.0  0.7283758418939265  0.8971512289614557  0.2339952275657894  1.0000
  S   S29       1.0  0.7539228885914632  0.9477789402686996  0.21489174162526198  1.0000
  Fe  Fe16      1.0  0.7312849301882159  0.8382530151656459  0.2549449870737878  1.0000
  S   S30       1.0  0.7659322539252903  0.8225402733881675  0.27156353483297935  1.0000
  S   S31       1.0  0.6746825764478678  0.8716349256963427  0.23821378550240402  1.0000
  S   S32       1.0  0.6776359577111931  0.8089989807777828  0.26114089330989887  1.0000
  Fe  Fe17      1.0  0.5493347609852753  0.25522403181338005  0.4760912206537765  1.0000
  S   S33       1.0  0.5558576960787149  0.2867543410281792  0.01874671083051852  1.0000
  S   S34       1.0  0.5906340617348597  0.25088583752551563  0.45670143635786764  1.0000
  Fe  Fe18      1.0  0.4900634595640047  0.2593530968665794  0.4615448217849405  1.0000
  S   S35       1.0  0.4868122401891115  0.2764666643474791  0.506808821357453  1.0000
  S   S36       1.0  0.45110755872082947  0.25352594686012253  0.4302202125600055  1.0000
  Fe  Fe19      1.0  0.540350725621808  0.30773486705180936  0.5032224470037372  1.0000
  S   S37       1.0  0.5698561489106791  0.3548574739528984  0.5264166705327205  1.0000
  Fe  Fe20      1.0  0.5034254837832913  0.25154856431902084  0.027582327039098253  1.0000
  S   S38       1.0  0.48285106444816067  0.22360620928567623  0.07000968040834038  1.0000
  S   S39       1.0  0.5430231840256873  0.2945236268593975  0.4569422703852808  1.0000
  S   S40       1.0  0.49649672005306994  0.21887941146458104  0.4778788649827214  1.0000
  Fe  Fe21      1.0  0.7790601724626002  0.24312059114744927  0.4715904194798399  1.0000
  S   S41       1.0  0.7535904754425174  0.22064981640728742  0.005569462762957016  1.0000
  S   S42       1.0  0.7688524510780638  0.21344412230417834  0.430178898301076  1.0000
  Fe  Fe22      1.0  0.8136962126536246  0.3115645320872443  0.0035194851949362526  1.0000
  S   S43       1.0  0.7893419018791247  0.28666824774549826  0.04521512716907936  1.0000
  S   S44       1.0  0.8523845959600392  0.36304691794920246  0.9967002388720895  1.0000
  Fe  Fe23      1.0  0.7989861252029813  0.24751127945750614  0.031071062990160866  1.0000
  S   S45       1.0  0.8131858092097823  0.2178281894774728  0.05936985230238086  1.0000
  Fe  Fe24      1.0  0.7452719931497629  0.2611041506423768  0.017817531645978442  1.0000
  S   S46       1.0  0.6987591334072327  0.2521861478861233  0.03908353802269055  1.0000
  S   S47       1.0  0.8279165018044252  0.27479613066021047  0.9916307647426204  1.0000
  S   S48       1.0  0.7593079897280538  0.27666260533773673  0.47638785126684113  1.0000
  Fe  Fe25      1.0  0.8007486285451971  0.5573021368481822  0.02102111966166982  1.0000
  S   S49       1.0  0.8263866101293554  0.5577383012791352  0.9793738229464297  1.0000
  S   S50       1.0  0.8291594642224777  0.6005293499453279  0.05055567818908064  1.0000
  Fe  Fe26      1.0  0.7281643132606453  0.501334778073822  0.48033689737189567  1.0000
  S   S51       1.0  0.7642743815189947  0.4884056822774328  0.4642009486371295  1.0000
  S   S52       1.0  0.6801587302318789  0.47427699684529906  0.4586635012916333  1.0000
  Fe  Fe27      1.0  0.8114716555376926  0.5066402807211129  0.9902654367127877  1.0000
  S   S53       1.0  0.8510118001745549  0.494178757736711  0.9886210631240809  1.0000
  Fe  Fe28      1.0  0.798662689901131  0.541600000444821  0.4637761421952352  1.0000
  S   S54       1.0  0.829722797004628  0.5611645352572899  0.4226649558001519  1.0000
  S   S55       1.0  0.7890813217137691  0.5076715779267419  0.03286215822740048  1.0000
  S   S56       1.0  0.7614983266866259  0.5544805389858417  0.4771333689205512  1.0000
  Fe  Fe29      1.0  0.14827662866950214  0.8489454846974704  0.2410866745858977  1.0000
  S   S57       1.0  0.15878590328766282  0.8093280836188086  0.24978418053183563  1.0000
  S   S58       1.0  0.09813538733618947  0.8433327401943111  0.23857622805021048  1.0000
  Fe  Fe30      1.0  0.21985636733961225  0.9009265637192702  0.24241654139075508  1.0000
  S   S59       1.0  0.23429092679013722  0.8641192244526436  0.2524992314157135  1.0000
  S   S60       1.0  0.2636246607621509  0.9510200022417001  0.23633975588328154  1.0000
  Fe  Fe31      1.0  0.1998447136987798  0.8345907139157903  0.217671342196655  1.0000
  S   S61       1.0  0.21726095271352344  0.8080070015202491  0.18786039618421563  1.0000
  Fe  Fe32      1.0  0.19255797693931465  0.8422031557479894  0.2837016357810696  1.0000
  S   S62       1.0  0.18624262098898509  0.8214788804981668  0.3295198367095442  1.0000
  S   S63       1.0  0.186961913391048  0.8720625864983852  0.20620443334975475  1.0000
  S   S64       1.0  0.18045934005919548  0.8810918405184139  0.27634728538036935  1.0000
  Fe  Fe33      1.0  0.32384046227175917  0.2048100628998332  0.2580956563386814  1.0000
  S   S65       1.0  0.3767151489666268  0.23385183544610727  0.24866560977907404  1.0000
  S   S66       1.0  0.2901032386326355  0.22060839486339312  0.2780744039344009  1.0000
  Fe  Fe34      1.0  0.3206791565121348  0.1414537620089063  0.2418555203400875  1.0000
  S   S67       1.0  0.3734631279158259  0.1653671751045436  0.23050899140888567  1.0000
  S   S68       1.0  0.277813511566694  0.0904008101205141  0.24039304475382778  1.0000
  Fe  Fe35      1.0  0.38101501788840075  0.19497805508507746  0.27115592777204833  1.0000
  S   S69       1.0  0.42554686173874184  0.20772702278619395  0.29759267958860197  1.0000
  Fe  Fe36      1.0  0.3671336932706385  0.20343300571840656  0.20859938480408727  1.0000
  S   S70       1.0  0.39069025119219697  0.23183850978011983  0.16701284865790067  1.0000
  S   S71       1.0  0.3289339858636285  0.1681060778883738  0.2840870100832599  1.0000
  S   S72       1.0  0.3136908891251326  0.17738791439665544  0.21646553070595  1.0000
  Fe  Fe37      1.0  0.32519486926091673  0.5389248162059663  0.9809025440063481  1.0000
  S   S73       1.0  0.3182212079147051  0.5432853306961489  0.028344070728402462  1.0000
  S   S74       1.0  0.36815963272208263  0.5713808273713377  0.9527612901321477  1.0000
  Fe  Fe38      1.0  0.2548232075376875  0.4845999950544683  0.4724384870197511  1.0000
  S   S75       1.0  0.2353319906098443  0.4852197108252463  0.5174491560881251  1.0000
  S   S76       1.0  0.2192639616405544  0.449150292889713  0.43977641887194324  1.0000
  Fe  Fe39      1.0  0.26132833135753925  0.5388373831701436  0.5118454427187404  1.0000
  S   S77       1.0  0.2400084350150501  0.5689190411083477  0.5276150468781795  1.0000
  Fe  Fe40      1.0  0.2848714692889719  0.48998035474738955  0.0288495510232084  1.0000
  S   S78       1.0  0.28894575447746146  0.4633714388146387  0.0680080865841441  1.0000
  S   S79       1.0  0.27744765658758735  0.537804286389721  0.4661501843554922  1.0000
  S   S80       1.0  0.2964462947164234  0.4849854951988176  0.9817692005034019  1.0000
  Fe  Fe41      1.0  0.2582712770534754  0.7900505601096436  0.02017281698519869  1.0000
  S   S81       1.0  0.28687360915313004  0.8161018810720492  0.9799172234456467  1.0000
  S   S82       1.0  0.24580691318849351  0.8195993932946835  0.05117711893522677  1.0000
  Fe  Fe42      1.0  0.2645155359578924  0.7359493143785312  0.4824423524485353  1.0000
  S   S83       1.0  0.31060786648841787  0.7752866046420688  0.46364938027155367  1.0000
  S   S84       1.0  0.25204962809430403  0.6890420516770918  0.4602618107718588  1.0000
  Fe  Fe43      1.0  0.32107742925665994  0.7943262928301147  0.5088013663501524  1.0000
  S   S85       1.0  0.3610297286974469  0.8040901325303466  0.96805666110813  1.0000
  Fe  Fe44      1.0  0.2839420191225046  0.8021698392130524  0.4584837951115765  1.0000
  S   S86       1.0  0.2921605840829738  0.8286573798220098  0.4155498856147729  1.0000
  S   S87       1.0  0.2845968278364943  0.762626124911599  0.026969876444669066  1.0000
  S   S88       1.0  0.2371435708659341  0.7618963961997138  0.47491843482260193  1.0000
  Fe  Fe45      1.0  0.5670481887455356  0.7901564211384081  0.027611175923005632  1.0000
  S   S89       1.0  0.5703592385344677  0.7621168833608227  0.989543324551423  1.0000
  S   S90       1.0  0.60827431381831  0.8228375180906283  0.057041483131142816  1.0000
  Fe  Fe46      1.0  0.5173425616447562  0.7943885066318177  0.4898648057400975  1.0000
  S   S91       1.0  0.5117795166474545  0.7493157250363056  0.46971228230880824  1.0000
  S   S92       1.0  0.48569340599583194  0.8109951375150087  0.46943685097991983  1.0000
  Fe  Fe47      1.0  0.520114800275256  0.7245938465130377  0.002637448927656161  1.0000
  S   S93       1.0  0.501431724006511  0.67157718222894  0.006172584440462802  1.0000
  Fe  Fe48      1.0  0.5656592514250963  0.7744607449533096  0.4694971859656166  1.0000
  S   S94       1.0  0.5987650602733801  0.7730317062160594  0.434003828142205  1.0000
  S   S95       1.0  0.5191156072729703  0.7506512574182483  0.04268146348133766  1.0000
  S   S96       1.0  0.5711866683367092  0.8205849244608635  0.4863595596988897  1.0000
  C   C1        1.0  0.38606367279972875  0.7932664128840188  0.9864823165620364  1.0000
  C   C2        1.0  0.4252642409462377  0.8127229224241952  0.5315205985215707  1.0000
  C   C3        1.0  0.45140199705813844  0.8121572719096087  0.5179206273862447  1.0000
  C   C4        1.0  0.45287370461073645  0.8104415872160475  0.487661329413139  1.0000
  C   C5        1.0  0.399373345751803  0.7732194447239481  0.02913865902953765  1.0000
  C   C6        1.0  0.3781578629527547  0.7800094212439278  0.01436579048557307  1.0000
  H   H1        1.0  0.4245138365217096  0.8145849157336974  0.5548950449149171  1.0000
  H   H2        1.0  0.47076119633259633  0.8138335835715255  0.5307561428567502  1.0000
  H   H3        1.0  0.39347943142928576  0.7638073791930782  0.051017387055509074  1.0000
  H   H4        1.0  0.3561289433809194  0.7758415530749128  0.02486616149163098  1.0000
  C   C7        1.0  0.4036500290434308  0.6003154725825844  0.9693150348701578  1.0000
  C   C8        1.0  0.41265218418341465  0.5947618468474775  0.9963590510637389  1.0000
  C   C9        1.0  0.44249116276030614  0.6170649359357641  0.0077992836535406285  1.0000
  C   C10       1.0  0.4629368337976208  0.6454962511265405  0.992776154125744  1.0000
  C   C11       1.0  0.4199105446282246  0.6334142385253807  0.5314731823682055  1.0000
  C   C12       1.0  0.39542993698691736  0.6081348171013585  0.5159832932497657  1.0000
  H   H5        1.0  0.3972967856997721  0.5726565820281521  0.007878454827510862  1.0000
  H   H6        1.0  0.44997186552432944  0.6120403263579596  0.028163001205069267  1.0000
  H   H7        1.0  0.41738384551085533  0.634931549188426  0.5547261008883293  1.0000
  H   H8        1.0  0.3742491445435559  0.5903254723500669  0.5272979202990355  1.0000
  C   C13       1.0  0.2466209630797871  0.6037646288580918  0.5091202651461404  1.0000
  C   C14       1.0  0.25479052186264084  0.6083264770607706  0.4795519390584308  1.0000
  C   C15       1.0  0.25681883473611444  0.6348227531686034  0.4648752682780865  1.0000
  C   C16       1.0  0.25173294919729833  0.6574695612482702  0.4798304821255346  1.0000
  C   C17       1.0  0.26181260947745055  0.6617196784314718  0.02738499703667519  1.0000
  C   C18       1.0  0.2737583974672855  0.6424063167947733  0.03775853520072179  1.0000
  H   H9        1.0  0.25879903809042515  0.5910936298999793  0.4678889316429179  1.0000
  H   H10       1.0  0.26228432758982306  0.6377698807281221  0.4418539362904224  1.0000
  H   H11       1.0  0.2700585020564679  0.6852919768065941  0.03641024762438452  1.0000
  H   H12       1.0  0.29126110466094157  0.6512771078827173  0.054778939183883144  1.0000
  C   C19       1.0  0.21621454527349135  0.8238172371141069  0.3529712282036669  1.0000
  C   C20       1.0  0.20686102573011067  0.8084321025423113  0.3801639307910161  1.0000
  C   C21       1.0  0.22975531963921755  0.8098296995034037  0.3996466282671162  1.0000
  C   C22       1.0  0.2623444634838695  0.8266879742592991  0.39211993978896714  1.0000
  C   C23       1.0  0.2716961777452143  0.841950256346358  0.36488654130512804  1.0000
  C   C24       1.0  0.24878762569791005  0.8405109795793776  0.34537391783644367  1.0000
  H   H13       1.0  0.18174880309261554  0.795514069097991  0.3862988511118865  1.0000
  H   H14       1.0  0.22220037458867603  0.7980945313164871  0.42055838379181343  1.0000
  H   H15       1.0  0.29685431794359135  0.8551727274960284  0.35889305272686833  1.0000
  H   H16       1.0  0.2563584008010973  0.8525659629046879  0.32459794653202134  1.0000
  C   C25       1.0  0.22273692216486396  0.8097589545929224  0.14948723485505636  1.0000
  C   C26       1.0  0.2364189201169655  0.7927629909304419  0.13647931377270694  1.0000
  C   C27       1.0  0.2429216151678378  0.7948099604219924  0.1063381704747412  1.0000
  C   C28       1.0  0.23614519662656697  0.8142509085432008  0.08889138643842483  1.0000
  C   C29       1.0  0.22232428660720843  0.8311276298298551  0.10187870682620857  1.0000
  C   C30       1.0  0.215259868768847  0.8285993491727118  0.13190547455568677  1.0000
  H   H17       1.0  0.24221335239290287  0.7780400849708141  0.149836931575743  1.0000
  H   H18       1.0  0.2536202823832217  0.7817552842490981  0.09669268471092003  1.0000
  H   H19       1.0  0.2167561013838355  0.8460279199448073  0.0885290299874877  1.0000
  H   H20       1.0  0.20396378713344182  0.8411663338379158  0.14135418577220207  1.0000
  C   C31       1.0  0.26698610586437044  0.9895154558896443  0.2384655324421817  1.0000
  C   C32       1.0  0.24017474684588724  0.9934843758903803  0.24081601134531083  1.0000
  C   C33       1.0  0.2440491608607205  0.02451853470642031  0.2414584650470343  1.0000
  C   C34       1.0  0.2747038520909857  0.051971538586833135  0.23999155728170346  1.0000
  C   C35       1.0  0.30153325459685243  0.04801137817524511  0.23791371168007186  1.0000
  C   C36       1.0  0.29764278510409126  0.016966456633296583  0.23702186867887423  1.0000
  H   H21       1.0  0.2164539548911824  0.9726658378725421  0.2417996359547887  1.0000
  H   H22       1.0  0.22309955632553657  0.027230937084495557  0.24291855837784734  1.0000
  H   H23       1.0  0.3252482042176592  0.06882824416622407  0.23679034378764  1.0000
  H   H24       1.0  0.3185715122687843  0.014232939464929428  0.23526710061562944  1.0000
  C   C37       1.0  0.8489927613558739  0.3979559416805441  0.9948550196509143  1.0000
  C   C38       1.0  0.877392780208364  0.42697483823918775  0.9904899546952812  1.0000
  C   C39       1.0  0.7746028842747001  0.391317153964936  0.5330530620826488  1.0000
  C   C40       1.0  0.8483293861890153  0.4562198689122029  0.9909069662205154  1.0000
  C   C41       1.0  0.8195000016779189  0.4272022185420216  0.9951714766640029  1.0000
  C   C42       1.0  0.819826411160014  0.3979665280929615  0.9971068366797482  1.0000
  H   H25       1.0  0.7775033718756691  0.34799398498618106  0.5325246802421294  1.0000
  H   H26       1.0  0.7547471220458979  0.38194613306655023  0.5484425610522444  1.0000
  H   H27       1.0  0.7971485864700961  0.42733313218065  0.9970884874752911  1.0000
  H   H28       1.0  0.797719047169706  0.37564644415045023  0.0005150517936007848  1.0000
  C   C43       1.0  0.45695931204513107  0.22616962344838043  0.09649504765780283  1.0000
  C   C44       1.0  0.4482480003420734  0.2498003027160261  0.09549980492609399  1.0000
  C   C45       1.0  0.4276983216871643  0.2508885426223429  0.11712372398571586  1.0000
  C   C46       1.0  0.41543729251467465  0.2283100493129059  0.13984531723962348  1.0000
  C   C47       1.0  0.42383185655158584  0.2044088199025486  0.14062462225146918  1.0000
  C   C48       1.0  0.4446111419023938  0.20349369926514654  0.11914338105323512  1.0000
  H   H29       1.0  0.4576158551760829  0.26746365399152305  0.07827409706311207  1.0000
  H   H30       1.0  0.4214040724712724  0.26951345955430417  0.11632439450653194  1.0000
  H   H31       1.0  0.4142821081545908  0.18658569126708296  0.1576855286367363  1.0000
  H   H32       1.0  0.4511223821980829  0.1850347002408941  0.12003853656942745  1.0000
  C   C49       1.0  0.4318184935528414  0.21969756086489298  0.3347200080288987  1.0000
  C   C50       1.0  0.45943565760511795  0.22368878026912584  0.34849745384717973  1.0000
  C   C51       1.0  0.46560901230297147  0.23366743393229306  0.3777310865046146  1.0000
  C   C52       1.0  0.44430676094809707  0.24004734048565676  0.39351774541088747  1.0000
  C   C53       1.0  0.4167348129384665  0.23610547510109348  0.37968734538774895  1.0000
  C   C54       1.0  0.41043464777124145  0.22589847529085194  0.35054408531117626  1.0000
  H   H33       1.0  0.47614599165275134  0.21893719230945516  0.3365477009187914  1.0000
  H   H34       1.0  0.4869018173843791  0.23657426179280627  0.388006571024314  1.0000
  H   H35       1.0  0.40011865950215475  0.24100004890677204  0.3916415006032296  1.0000
  H   H36       1.0  0.38915175065235674  0.22304968884338644  0.3403109692692176  1.0000
  C   C55       1.0  0.6006178086102325  0.38738661405276725  0.5070389734871119  1.0000
  C   C56       1.0  0.6002724121277863  0.3893653575930008  0.47679470629642035  1.0000
  C   C57       1.0  0.624731769531428  0.41617375840422205  0.4621118532474865  1.0000
  C   C58       1.0  0.6499572104403981  0.4407627045838775  0.4775231800634583  1.0000
  C   C59       1.0  0.6506026284586928  0.4383831480418944  0.5076955711671696  1.0000
  C   C60       1.0  0.6258485803738955  0.4119338410110466  0.5224154808838508  1.0000
  H   H37       1.0  0.5807577340804  0.3706475533727514  0.46478150870613505  1.0000
  H   H38       1.0  0.6240052251454971  0.4178883466224833  0.4387736584584402  1.0000
  H   H39       1.0  0.6695431562844837  0.45882314443457173  0.981847729764801  1.0000
  H   H40       1.0  0.613692804713778  0.4256772153729508  0.9644045215115044  1.0000
  C   C61       1.0  0.6181183561308968  0.2480097080260666  0.47940490000843367  1.0000
  C   C62       1.0  0.6116133324352974  0.24091173312246278  0.5089641309014994  1.0000
  C   C63       1.0  0.6340028919236136  0.2384200172988556  0.5263102497585196  1.0000
  C   C64       1.0  0.6681698072732598  0.2502676106878213  0.017250413760676032  1.0000
  C   C65       1.0  0.6417825025670796  0.25049706907739655  0.030482996121388387  1.0000
  C   C66       1.0  0.6170983900792739  0.24913477069800896  0.013598363294745406  1.0000
  H   H41       1.0  0.5890168371921863  0.2365340315776042  0.518317037758877  1.0000
  H   H42       1.0  0.6285230420908852  0.23216280008799212  0.5490313773673697  1.0000
  H   H43       1.0  0.6405054624359177  0.25193886796981574  0.05386343243847801  1.0000
  H   H44       1.0  0.5969873628258022  0.24960470017471625  0.023946051047216445  1.0000
  C   C67       1.0  0.6375611791901171  0.8343420325382315  0.3506049428834211  1.0000
  C   C68       1.0  0.6440948091128107  0.8097044542564568  0.35627609898641854  1.0000
  C   C69       1.0  0.6316055397712863  0.790894326478256  0.3816356032643817  1.0000
  C   C70       1.0  0.6121723881258504  0.7961879711636644  0.40149044741855494  1.0000
  C   C71       1.0  0.6054477854294439  0.8206914299578218  0.3957276743968438  1.0000
  C   C72       1.0  0.6182337921295585  0.8397383506392087  0.3705336355091914  1.0000
  H   H45       1.0  0.6589115399774204  0.8052205632841634  0.3412155400715261  1.0000
  H   H46       1.0  0.637017808156055  0.7720521369737449  0.38584883737033304  1.0000
  H   H47       1.0  0.5904772188926888  0.8250414788807977  0.41070802417480995  1.0000
  H   H48       1.0  0.6129007186917232  0.8586292549511623  0.3663669999175525  1.0000
  C   C73       1.0  0.6312386247509991  0.8041477272349458  0.14931647661459707  1.0000
  C   C74       1.0  0.6083415594267554  0.7787219613684234  0.13261447147899894  1.0000
  C   C75       1.0  0.6014652328855925  0.7838553050931817  0.10418643239528186  1.0000
  C   C76       1.0  0.6172030070268989  0.814652603417815  0.09219622254121808  1.0000
  C   C77       1.0  0.6401549446875434  0.8400882977307745  0.10884734055883653  1.0000
  C   C78       1.0  0.6471607375138271  0.834915469524162  0.13724297392028806  1.0000
  H   H49       1.0  0.5960140803445276  0.7548093889237883  0.14169934931720893  1.0000
  H   H50       1.0  0.5840158223893707  0.7639555233781297  0.09159001216387094  1.0000
  H   H51       1.0  0.652634160330239  0.8639815239670577  0.09974409173816066  1.0000
  H   H52       1.0  0.664883643722169  0.8546909761961267  0.14977665111961844  1.0000
  C   C79       1.0  0.8176663627369136  0.2103494236367496  0.15872312999708585  1.0000
  C   C80       1.0  0.8206499368077446  0.18882309153034577  0.14021514686139272  1.0000
  C   C81       1.0  0.8194812326954257  0.19168498527419986  0.10988704085410099  1.0000
  C   C82       1.0  0.8152615953749117  0.21598581357732644  0.09768756729361028  1.0000
  C   C83       1.0  0.8125416478950489  0.2376666852742248  0.1161937177825278  1.0000
  C   C84       1.0  0.8133061533617055  0.2345668790506916  0.1465280506243824  1.0000
  H   H53       1.0  0.8233199835076683  0.16964318081930424  0.14926556679741226  1.0000
  H   H54       1.0  0.8215149834857871  0.17471875824107055  0.09576566075565544  1.0000
  H   H55       1.0  0.8100987006994267  0.2569782554369166  0.1071644865263495  1.0000
  H   H56       1.0  0.810965190433015  0.25134334714899226  0.16066443976403724  1.0000
  C   C85       1.0  0.842262789599774  0.22221657367107292  0.35967123168664883  1.0000
  C   C86       1.0  0.8523677286663669  0.2422443690654095  0.38418521420031526  1.0000
  C   C87       1.0  0.8302678882203417  0.2399100232090602  0.4059149258155982  1.0000
  C   C88       1.0  0.797720922331635  0.21743962893999794  0.4033807623643447  1.0000
  C   C89       1.0  0.7875969297391452  0.19739747937193633  0.3788692689903083  1.0000
  C   C90       1.0  0.8097103236323405  0.19974589796096553  0.35711381853844254  1.0000
  H   H57       1.0  0.8774473760327632  0.2597228096142916  0.3864140752250452  1.0000
  H   H58       1.0  0.8384179269004716  0.2554893548257747  0.4246076112759304  1.0000
  H   H59       1.0  0.7625026898037686  0.17994147852039738  0.3766556165106657  1.0000
  H   H60       1.0  0.8015783288305373  0.18418878628825114  0.33840262516127345  1.0000
  C   C91       1.0  0.8126842836849703  0.04804830468078358  0.2557302283464388  1.0000
  C   C92       1.0  0.8073281175964077  0.020587648844236375  0.2710908675775762  1.0000
  C   C93       1.0  0.7896150008800323  0.9897754191573218  0.2589331059060485  1.0000
  C   C94       1.0  0.776817174273802  0.9860201042692276  0.23123732480197656  1.0000
  C   C95       1.0  0.7822893316432107  0.01344872674438388  0.2158134375288557  1.0000
  C   C96       1.0  0.7999990841066922  0.04428195337626709  0.22799101927007465  1.0000
  H   H61       1.0  0.8172494918446844  0.023292306723431022  0.292482884153152  1.0000
  H   H62       1.0  0.7862384458935822  0.9690589633719235  0.27086748463535104  1.0000
  H   H63       1.0  0.7727063591186688  0.010870579394889335  0.19428229926422977  1.0000
  H   H64       1.0  0.8039877573624493  0.06513553868128985  0.21586566193723222  1.0000
  C   C97       1.0  0.2365283161726003  0.4242905817171588  0.34642969249963274  1.0000
  C   C98       1.0  0.2621873154446212  0.44776342223048726  0.36250022755698214  1.0000
  C   C99       1.0  0.2574304295669108  0.4555813415020994  0.3910668869745987  1.0000
  C   C100      1.0  0.22685362107270965  0.43995717341054547  0.40397622750867035  1.0000
  C   C101      1.0  0.2011922574828222  0.41646144765562965  0.38791987157949437  1.0000
  C   C102      1.0  0.20595912795412671  0.4086048792020875  0.3593583416279669  1.0000
  H   H65       1.0  0.28593245949644125  0.4601542773532712  0.35274315325959243  1.0000
  H   H66       1.0  0.27741812981962316  0.4737440061104626  0.4030395996429393  1.0000
  H   H67       1.0  0.17744175476414614  0.40413902647878064  0.3976627020434999  1.0000
  H   H68       1.0  0.1859734006717542  0.3904781979177401  0.34735705988591203  1.0000
  C   C103      1.0  0.21520301259584898  0.41463770193723065  0.1426506741623424  1.0000
  C   C104      1.0  0.24767199459145528  0.425011513658615  0.14657150110121667  1.0000
  C   C105      1.0  0.2699731607557105  0.44020720970957705  0.12360990673807182  1.0000
  C   C106      1.0  0.26010927954118257  0.44508721040826044  0.0964907422221227  1.0000
  C   C107      1.0  0.227659844844699  0.434686643962839  0.09258879598395982  1.0000
  C   C108      1.0  0.20541035554524228  0.41973194753735443  0.11558856685718565  1.0000
  H   H69       1.0  0.25564564806220824  0.4216659071051463  0.16737963433028166  1.0000
  H   H70       1.0  0.2950566494441661  0.4482537413443152  0.12687652749153108  1.0000
  H   H71       1.0  0.21960301373781807  0.43772948840074943  0.07170849720291674  1.0000
  H   H72       1.0  0.18034197455587367  0.41175952208966604  0.11231334332758314  1.0000
  C   C109      1.0  0.060622862003550805  0.270089954271963  0.25949193077905114  1.0000
  C   C110      1.0  0.05658099575163062  0.2852678748328024  0.23549829329302538  1.0000
  C   C111      1.0  0.025776726969115815  0.2741312069085289  0.22419196786110593  1.0000
  C   C112      1.0  0.9986478378559472  0.24777966333046686  0.2367169655519445  1.0000
  C   C113      1.0  0.0026972287241440185  0.23234548308864347  0.260488455481091  1.0000
  C   C114      1.0  0.03350627910691363  0.24350495923960286  0.2718236268461093  1.0000
  H   H73       1.0  0.07718253048386586  0.30569882168767876  0.22575859705401036  1.0000
  H   H74       1.0  0.02301052106948953  0.28613974490037875  0.20567017918743907  1.0000
  H   H75       1.0  0.9822112848791993  0.2115193435221046  0.2698294829594925  1.0000
  H   H76       1.0  0.036416923099017805  0.23138257035629925  0.29019353988531915  1.0000
  C   C115      1.0  0.2565922925656551  0.2851080725741896  0.23580342310193345  1.0000
  C   C116      1.0  0.24507093814387135  0.2716519664103051  0.26327314862201306  1.0000
  C   C117      1.0  0.25561597304567585  0.25200662246936956  0.2759019132487445  1.0000
  C   C118      1.0  0.2776269784397139  0.24549985308586628  0.2611997431945283  1.0000
  C   C119      1.0  0.2890437567775747  0.25889739339198864  0.23371738940849582  1.0000
  C   C120      1.0  0.2785895236794588  0.2786097497493579  0.22113637237239456  1.0000
  H   H77       1.0  0.22784231596050794  0.276109477871508  0.27465369055027733  1.0000
  H   H78       1.0  0.24653135412792193  0.24161964381208514  0.2971139616251324  1.0000
  H   H79       1.0  0.30598103077970823  0.25411393679311794  0.22216718755088902  1.0000
  H   H80       1.0  0.2876774141535695  0.2888748288816453  0.19989100379797348  1.0000
  C   C121      1.0  0.9975112670004226  0.7541408114459611  0.2500877230022804  1.0000
  C   C122      1.0  0.0011496591400097511  0.7843598771020024  0.2449185601024161  1.0000
  C   C123      1.0  0.03205239208936786  0.8112267326438599  0.24092193866796305  1.0000
  C   C124      1.0  0.059658148981013216  0.8082183188007913  0.24159456049856756  1.0000
  C   C125      1.0  0.05591084642164636  0.777837512977833  0.24607207687448865  1.0000
  C   C126      1.0  0.025109469565831155  0.7511353933435329  0.2507467363300631  1.0000
  H   H81       1.0  0.980231368311422  0.7871567072294738  0.24442597712501984  1.0000
  H   H82       1.0  0.034585003289218035  0.8345512973021919  0.23734204915984253  1.0000
  H   H83       1.0  0.07672141603662531  0.7748498457477513  0.24586654638401456  1.0000
  H   H84       1.0  0.022610340809393614  0.7278528456214797  0.2544723363649418  1.0000
  C   C127      1.0  0.8243122260555871  0.6279764598618313  0.35456099874875757  1.0000
  C   C128      1.0  0.8137159517220564  0.6275271755418388  0.3833097656446541  1.0000
  C   C129      1.0  0.8147532887273062  0.6068929086433512  0.40426338029136066  1.0000
  C   C130      1.0  0.826607529901538  0.5865379179488684  0.3967450930211462  1.0000
  C   C131      1.0  0.8369360703755722  0.5867431842553128  0.3679439560873057  1.0000
  C   C132      1.0  0.8354092882342186  0.6070056032239447  0.34685703779681715  1.0000
  H   H85       1.0  0.8050993063848562  0.6436411185702395  0.38955290036024914  1.0000
  H   H86       1.0  0.8071222852920737  0.6073250325647594  0.42641980752556496  1.0000
  H   H87       1.0  0.8459737978438224  0.5709348619660082  0.3618674097832429  1.0000
  H   H88       1.0  0.8428479986430418  0.6063619346241838  0.32468827617632884  1.0000
  C   C133      1.0  0.8257775443246631  0.6035058345843701  0.08880205608940461  1.0000
  C   C134      1.0  0.8030906150609807  0.5779295313998701  0.10566860814771321  1.0000
  C   C135      1.0  0.8020659009530914  0.5810689652838926  0.1360757422187488  1.0000
  C   C136      1.0  0.8235874883089349  0.6097500532591992  0.1500064653380898  1.0000
  C   C137      1.0  0.8462694828869511  0.6353359019668154  0.13314664049001299  1.0000
  C   C138      1.0  0.8473035409223243  0.632196860019704  0.1027320139771245  1.0000
  H   H89       1.0  0.7863362556014513  0.5557144290974253  0.0953057620878565  1.0000
  H   H90       1.0  0.784401196450125  0.5611064786146504  0.1488928956239949  1.0000
  H   H91       1.0  0.8631706830787396  0.6574551665407745  0.14353409698500635  1.0000
  H   H92       1.0  0.865068896536269  0.6520801203991449  0.08990930173057966  1.0000
  C   C139      1.0  0.8126341191315462  0.7673719447815993  0.23094993138184608  1.0000
  C   C140      1.0  0.796401855555517  0.7782589210343053  0.21332027906922563  1.0000
  C   C141      1.0  0.7809299535659292  0.7941087898604233  0.22541693505824806  1.0000
  C   C142      1.0  0.7821566296931296  0.7999296875558126  0.2552983082720953  1.0000
  C   C143      1.0  0.7983941340020806  0.7890494064764949  0.27288207364488726  1.0000
  C   C144      1.0  0.813230608170814  0.7725649805559934  0.2608801703638901  1.0000
  H   H93       1.0  0.7958527984682928  0.7744935600191414  0.1901299579967394  1.0000
  H   H94       1.0  0.7684765655161638  0.8021941974353514  0.21157263315696717  1.0000
  H   H95       1.0  0.7995345517153541  0.793412841991813  0.29600888982536944  1.0000
  H   H96       1.0  0.8256666177348116  0.7644616480390771  0.27473620231413237  1.0000
  Fe  Fe49      1.0  0.9075883704611132  0.7310339705425287  0.7385397184303222  1.0000
  S   S97       1.0  0.8987326460820745  0.6809763669641918  0.7418965270594022  1.0000
  S   S98       1.0  0.9570239779859251  0.7761516540037828  0.7397953519995133  1.0000
  Fe  Fe50      1.0  0.835193662141283  0.7085053175892165  0.743380074288885  1.0000
  S   S99       1.0  0.8220344676653  0.656396703422823  0.746620182604029  1.0000
  S   S100      1.0  0.7940641573668297  0.7184207557753192  0.7534960205519498  1.0000
  Fe  Fe51      1.0  0.8629392658109613  0.6733264157459866  0.7775737369024783  1.0000
  S   S101      1.0  0.8680629015644156  0.6588086611271525  0.8236608429039182  1.0000
  Fe  Fe52      1.0  0.8586154136037883  0.6682776168777474  0.7104539861627326  1.0000
  S   S102      1.0  0.8578699114650565  0.6356765742074119  0.673658486581974  1.0000
  S   S103      1.0  0.8741889643907752  0.7244468153074642  0.7759651514315311  1.0000
  S   S104      1.0  0.8693724966123156  0.7193276830994554  0.7052124355750978  1.0000
  Fe  Fe53      1.0  0.15435520513028253  0.3198425128369279  0.7627822018766687  1.0000
  S   S105      1.0  0.17661124324107094  0.3734808268585604  0.7649181115005806  1.0000
  S   S106      1.0  0.10430876127673393  0.2855523846919089  0.7813472649345901  1.0000
  Fe  Fe54      1.0  0.21787828156175026  0.3241529972079012  0.7417399757792513  1.0000
  S   S107      1.0  0.2441724748673888  0.37806953442681585  0.742821047447358  1.0000
  S   S108      1.0  0.2445497429415055  0.30083374675719105  0.7206015227251742  1.0000
  Fe  Fe55      1.0  0.21828274172196008  0.3729213789709702  0.7856724567549302  1.0000
  S   S109      1.0  0.24576933129709913  0.3979585740334206  0.8267206758771585  1.0000
  Fe  Fe56      1.0  0.20056558986139036  0.3740414028695223  0.7219159978493628  1.0000
  S   S110      1.0  0.19807369404835765  0.4012107818003671  0.6824246484538865  1.0000
  S   S111      1.0  0.19507596333522276  0.3191753822000862  0.7857729381859697  1.0000
  S   S112      1.0  0.17518503893959556  0.32028915342220643  0.7186564536526389  1.0000
  Fe  Fe57      1.0  0.9184257728778709  0.21432610668399704  0.741874087855908  1.0000
  S   S113      1.0  0.8865370766917876  0.23431919900129472  0.7550790100684199  1.0000
  S   S114      1.0  0.9694588895591018  0.24489238202550453  0.7237360406506114  1.0000
  Fe  Fe58      1.0  0.8638264898909276  0.1442550942302672  0.7499295516305468  1.0000
  S   S115      1.0  0.8283744946424317  0.1591498066479171  0.7644150192830497  1.0000
  S   S116      1.0  0.8573213005182306  0.09429728457242728  0.742358424921988  1.0000
  Fe  Fe59      1.0  0.8490381148518914  0.19511823348105028  0.7275186684036705  1.0000
  S   S117      1.0  0.8131571982554832  0.1991763135710229  0.6985186102600912  1.0000
  Fe  Fe60      1.0  0.8684059055725056  0.19729065299815438  0.7908113055077561  1.0000
  S   S118      1.0  0.869289160362983  0.20901279451457988  0.8390595191961837  1.0000
  S   S119      1.0  0.8820622140634702  0.17788129193387872  0.7116459084931822  1.0000
  S   S120      1.0  0.9026639633972018  0.17960028313056564  0.7789335626488995  1.0000
  Fe  Fe61      1.0  0.6761619791502121  0.8396780177874598  0.7230805452656763  1.0000
  S   S121      1.0  0.726328254491391  0.8782515746349637  0.711904977046432  1.0000
  S   S122      1.0  0.6388877714154584  0.8073149640210969  0.6900560119490927  1.0000
  Fe  Fe62      1.0  0.6899766263806405  0.8444430490828474  0.7889821213189936  1.0000
  S   S123      1.0  0.7416431026615106  0.8820968860796186  0.7811910980526422  1.0000
  S   S124      1.0  0.6777149156683439  0.8300659886099712  0.8368257066300995  1.0000
  Fe  Fe63      1.0  0.7224909864554266  0.9048037165557832  0.7510360111545794  1.0000
  S   S125      1.0  0.7321276439669494  0.9561640883741638  0.7580105384038092  1.0000
  Fe  Fe64      1.0  0.7409301736374869  0.8520146596935898  0.7432544278148485  1.0000
  S   S126      1.0  0.7807046582545037  0.8418752902472266  0.7286846940840513  1.0000
  S   S127      1.0  0.6705550976595916  0.8677236462609819  0.7599340768165292  1.0000
  S   S128      1.0  0.6910261153504699  0.8128508547768456  0.7532953037555528  1.0000
  Fe  Fe65      1.0  0.5508635683049886  0.2572078300690316  0.9792839154070445  1.0000
  S   S129      1.0  0.5498479425527596  0.2706650264811244  0.5218898291352498  1.0000
  S   S130      1.0  0.5892103921233076  0.247396075832295  0.9611690175349736  1.0000
  Fe  Fe66      1.0  0.48509034022704356  0.24902429701205417  0.9635151230908088  1.0000
  S   S131      1.0  0.4856497691120545  0.2788774639205652  0.0017169986955858363  1.0000
  S   S132      1.0  0.439309236018335  0.221128837869503  0.9373014588413308  1.0000
  Fe  Fe67      1.0  0.537743820922594  0.3114525727124848  0.9897785083045237  1.0000
  S   S133      1.0  0.5610972433170089  0.36506011819239803  0.9835515333796503  1.0000
  Fe  Fe68      1.0  0.49643305439567936  0.2382872328435327  0.5227605508625042  1.0000
  S   S134      1.0  0.4764725436697735  0.20927403484748638  0.564757663934394  1.0000
  S   S135      1.0  0.5356223868589152  0.2838179135470556  0.9496060848997073  1.0000
  S   S136      1.0  0.5001927977668258  0.219906956994849  0.9900119579598012  1.0000
  Fe  Fe69      1.0  0.7819032393676234  0.25114312690849555  0.9672828803809027  1.0000
  S   S137      1.0  0.756306126991615  0.2165148217570042  0.51336011360058  1.0000
  S   S138      1.0  0.7759852732136656  0.23616059564105252  0.9196842027704797  1.0000
  Fe  Fe70      1.0  0.80355845959765  0.30818770422490205  0.5013895709285351  1.0000
  S   S139      1.0  0.7824653997237245  0.2864286014536627  0.5447214610102491  1.0000
  S   S140      1.0  0.832685946089946  0.36187118782950806  0.4957503223200249  1.0000
  Fe  Fe71      1.0  0.8013612523817214  0.2530471792820539  0.5352996261709696  1.0000
  S   S141      1.0  0.8340634412341622  0.24633138003722937  0.566370966427394  1.0000
  Fe  Fe72      1.0  0.7395254456864657  0.2522819769907482  0.5191388889222658  1.0000
  S   S142      1.0  0.6900625657447573  0.2387261034363146  0.5363479584576013  1.0000
  S   S143      1.0  0.8253788324803811  0.27700127113795153  0.49281384812997675  1.0000
  S   S144      1.0  0.7690759018544772  0.2893012285327218  0.9774102385322744  1.0000
  Fe  Fe73      1.0  0.7755122760739114  0.5513186535421183  0.5231163897671224  1.0000
  S   S145      1.0  0.8151191339055819  0.5416207492588098  0.5097266600299706  1.0000
  S   S146      1.0  0.7745112838784646  0.5836780893277685  0.5591822506989181  1.0000
  Fe  Fe74      1.0  0.744031323062091  0.4908375174642766  0.007472986832151252  1.0000
  S   S147      1.0  0.7658984291948914  0.4863309798655796  0.9654097323419973  1.0000
  S   S148      1.0  0.7023058548591525  0.4489028684719995  0.030322261371412917  1.0000
  Fe  Fe75      1.0  0.7768330298969104  0.4893555408027131  0.5108235381645665  1.0000
  S   S149      1.0  0.7719023610028652  0.4466841302646308  0.5358860900615522  1.0000
  Fe  Fe76      1.0  0.7789758337549613  0.5378721581080129  0.9577739484024888  1.0000
  S   S150      1.0  0.7701911927326546  0.5521301625937878  0.9129006759930307  1.0000
  S   S151      1.0  0.7384159965091269  0.49925988979495706  0.5269732003183757  1.0000
  S   S152      1.0  0.753725729455803  0.5409511175575509  0.9986976163060717  1.0000
  Fe  Fe77      1.0  0.14536870779127076  0.8307033967645179  0.7391914194213983  1.0000
  S   S153      1.0  0.18197616561395477  0.8165685537291706  0.7505429088676261  1.0000
  S   S154      1.0  0.09502087601035207  0.7873126860352042  0.7359734214213526  1.0000
  Fe  Fe78      1.0  0.19771819422880288  0.9011474029039297  0.7307550250212258  1.0000
  S   S155      1.0  0.237515725520192  0.8912121197558661  0.7403249336069921  1.0000
  S   S156      1.0  0.20309124920501076  0.9505586080998062  0.723834602336746  1.0000
  Fe  Fe79      1.0  0.2104491588653425  0.8472702401245622  0.7124982246790853  1.0000
  S   S157      1.0  0.23345972947923077  0.8246798822882497  0.6844646196643133  1.0000
  Fe  Fe80      1.0  0.2057384345269148  0.8611545657183667  0.777380693919208  1.0000
  S   S158      1.0  0.2272620808042423  0.8710485603702738  0.8226329797933978  1.0000
  S   S159      1.0  0.1728811949984249  0.8594051913684312  0.6997979624242865  1.0000
  S   S160      1.0  0.16694935801678829  0.8731136692360159  0.7691617689078968  1.0000
  Fe  Fe81      1.0  0.3216178117023754  0.1914142851532469  0.7531045932410344  1.0000
  S   S161      1.0  0.37147497999808726  0.23033822997689252  0.7424023144643512  1.0000
  S   S162      1.0  0.28674931121273994  0.2053323027844229  0.7736286395362251  1.0000
  Fe  Fe82      1.0  0.33846492280013796  0.13851763411406068  0.7407782743924434  1.0000
  S   S163      1.0  0.39012782466008955  0.17499903494258207  0.7303723253327606  1.0000
  S   S164      1.0  0.3291741640140749  0.08725740106592746  0.7361615550956675  1.0000
  Fe  Fe83      1.0  0.3871449021192977  0.20196624277095362  0.7693394946513838  1.0000
  S   S165      1.0  0.42850419482040836  0.23104182961392739  0.7999302321440513  1.0000
  Fe  Fe84      1.0  0.3697615852209798  0.1997172967464363  0.7046409004852223  1.0000
  S   S166      1.0  0.38403631857720716  0.22084809162160504  0.6590310640410764  1.0000
  S   S167      1.0  0.33730477069594134  0.1638955650958636  0.7817473763683757  1.0000
  S   S168      1.0  0.3181365336318524  0.16234668238768282  0.7132317952044768  1.0000
  Fe  Fe85      1.0  0.3206830691536704  0.5407917076692496  0.48684830131468926  1.0000
  S   S169      1.0  0.30623929772878894  0.5457531431123326  0.532177691988889  1.0000
  S   S170      1.0  0.36929411894399133  0.5732121358514572  0.46627516081644105  1.0000
  Fe  Fe86      1.0  0.25465687177422874  0.49162109265630927  0.9717499244991592  1.0000
  S   S171      1.0  0.2411577609516475  0.4933318123034935  0.01899840336586056  1.0000
  S   S172      1.0  0.21963066240003185  0.4657332203259055  0.9351069369194699  1.0000
  Fe  Fe87      1.0  0.2751895865509577  0.5465189926047067  0.01605967641388073  1.0000
  S   S173      1.0  0.27624015414693853  0.587121402778085  0.041881184573085095  1.0000
  Fe  Fe88      1.0  0.28171865832992055  0.4919345503063658  0.5343712598671101  1.0000
  S   S174      1.0  0.29163673902494436  0.4686085735038067  0.5730649823641397  1.0000
  S   S175      1.0  0.2840474086000159  0.5452870056244594  0.9684220624569196  1.0000
  S   S176      1.0  0.2995236093878627  0.4873608625114278  0.48978343711687483  1.0000
  Fe  Fe89      1.0  0.25370381833410655  0.7832318658521055  0.5195253279807719  1.0000
  S   S177      1.0  0.2990673267219356  0.8253992243844526  0.5022820450716352  1.0000
  S   S178      1.0  0.22211003313504057  0.7951661313837811  0.5487423424551382  1.0000
  Fe  Fe90      1.0  0.24692959235245  0.7256176983418835  0.9978761859670265  1.0000
  S   S179      1.0  0.2748582569431347  0.7472140226413996  0.9571407243064232  1.0000
  S   S180      1.0  0.21939635162349377  0.671573108592373  0.9957502112730386  1.0000
  Fe  Fe91      1.0  0.31045523683839543  0.7862077686846087  0.9850502227579065  1.0000
  S   S181      1.0  0.36751677838655655  0.8111539973726498  0.5327797313627336  1.0000
  Fe  Fe92      1.0  0.24924306501254057  0.7750641351708976  0.9545327841658896  1.0000
  S   S182      1.0  0.22783002537854388  0.7688921246978965  0.9095762117022954  1.0000
  S   S183      1.0  0.2765284824733386  0.7531596063140149  0.5285643168817853  1.0000
  S   S184      1.0  0.21885158974946514  0.7511443849168872  0.9940628604441875  1.0000
  Fe  Fe93      1.0  0.5702032924984256  0.8008475985078903  0.5310427741823615  1.0000
  S   S185      1.0  0.5669211446809691  0.7555909678899303  0.5139963009760753  1.0000
  S   S186      1.0  0.6112412477263701  0.8341567176354932  0.5607136032689405  1.0000
  Fe  Fe94      1.0  0.4978926306256445  0.7724042071008804  0.013984486960757048  1.0000
  S   S187      1.0  0.49584393172379576  0.7435994278072922  0.9749245469419816  1.0000
  S   S188      1.0  0.4545689417177085  0.7709607642161881  0.03562388408789219  1.0000
  Fe  Fe95      1.0  0.5135236390294067  0.7353521850140907  0.515649559299063  1.0000
  S   S189      1.0  0.4768344066987446  0.6889668008174415  0.5372899828843938  1.0000
  Fe  Fe96      1.0  0.5460192634633388  0.7834858125863292  0.9643058542495906  1.0000
  S   S190      1.0  0.5554408827640483  0.7984069738447886  0.916568908460059  1.0000
  S   S191      1.0  0.5166357350894297  0.7794363292170453  0.5359980220215331  1.0000
  S   S192      1.0  0.5457920564079733  0.8142661775331512  0.0013907192892952391  1.0000
  C   C145      1.0  0.400114438985647  0.8107753820455242  0.5150172865438067  1.0000
  C   C146      1.0  0.41484930122273544  0.7987518706839327  0.9731643436792631  1.0000
  C   C147      1.0  0.4358130718498029  0.7914101154176295  0.9877438250819733  1.0000
  C   C148      1.0  0.4283257771216518  0.779077533036115  0.015959071757180254  1.0000
  C   C149      1.0  0.427842967330718  0.8087387290173004  0.4712072342762549  1.0000
  C   C150      1.0  0.40138041487791304  0.8085379551768732  0.4848212040491134  1.0000
  H   H97       1.0  0.4211453152314164  0.8090476264909662  0.9516130212337713  1.0000
  H   H98       1.0  0.4580959198229149  0.7960510938469144  0.9774219315994305  1.0000
  H   H99       1.0  0.4290105601554037  0.8077034092751081  0.4477791147037219  1.0000
  H   H100      1.0  0.38238364252084683  0.8074402257636247  0.4718779506778674  1.0000
  C   C151      1.0  0.3987433418416933  0.6057201676961704  0.48602250079567827  1.0000
  C   C152      1.0  0.4264165258802226  0.6291528106213391  0.47158585508467565  1.0000
  C   C153      1.0  0.45050690683814215  0.655046384262785  0.48696230106637306  1.0000
  C   C154      1.0  0.4473787265224815  0.6571018091570655  0.5170060206045565  1.0000
  C   C155      1.0  0.45328456984229987  0.6516631930655975  0.9663066037439167  1.0000
  C   C156      1.0  0.4239449665070969  0.628899944517568  0.9544107578564742  1.0000
  H   H101      1.0  0.42921153114209637  0.6273502510674089  0.4484054998302548  1.0000
  H   H102      1.0  0.47171359139982716  0.6730636164561961  0.47564824343441087  1.0000
  H   H103      1.0  0.46895636531792656  0.6733906813047139  0.9545000614542632  1.0000
  H   H104      1.0  0.4171246553341191  0.6332746648612648  0.9334430002647931  1.0000
  C   C157      1.0  0.2626417668202396  0.6115120642642127  0.02664489421044891  1.0000
  C   C158      1.0  0.23975995652461143  0.6000756314913859  0.004892436389003718  1.0000
  C   C159      1.0  0.22705047106482115  0.6189860470640628  0.9952095405900112  1.0000
  C   C160      1.0  0.23789023124279227  0.6497529206808053  0.006538503151515496  1.0000
  C   C161      1.0  0.24474704967716543  0.653525202706472  0.5095950150954766  1.0000
  C   C162      1.0  0.24172401655924008  0.6265046401440365  0.5240595023532472  1.0000
  H   H105      1.0  0.23091601095787642  0.576208708119959  0.9963583388894741  1.0000
  H   H106      1.0  0.20844896513475522  0.6095648980958598  0.9791710895469553  1.0000
  H   H107      1.0  0.2405269018987958  0.6706638285851451  0.5212726001232441  1.0000
  H   H108      1.0  0.23526657911233176  0.6230496674879763  0.5469039027550155  1.0000
  C   C163      1.0  0.22710731562557485  0.8422743208039825  0.846546779312002  1.0000
  C   C164      1.0  0.24069153549618735  0.8520888942931772  0.874126994561932  1.0000
  C   C165      1.0  0.24093044992315016  0.8299747123919334  0.8938540407073501  1.0000
  C   C166      1.0  0.22766454916568044  0.7977931378506037  0.8860755968383529  1.0000
  C   C167      1.0  0.21428937920674868  0.7880303393548759  0.8584465482130018  1.0000
  C   C168      1.0  0.2139605393566887  0.8101139755243892  0.8387729951809725  1.0000
  H   H109      1.0  0.25081685304658585  0.8769025288511458  0.8803790818268131  1.0000
  H   H110      1.0  0.2510297256238566  0.8377992189949841  0.9151316033682236  1.0000
  H   H111      1.0  0.20404537321291152  0.7632126352052848  0.8521689310754405  1.0000
  H   H112      1.0  0.20347981176062538  0.8022552952833012  0.8176231413202448  1.0000
  C   C169      1.0  0.2296930953087999  0.8168228106780214  0.646719485999941  1.0000
  C   C170      1.0  0.23665024759888187  0.7937150408013196  0.6355517754028455  1.0000
  C   C171      1.0  0.2343929022630083  0.7868399055976789  0.6056600122501384  1.0000
  C   C172      1.0  0.22582199397352312  0.8035208274586996  0.5864631688101913  1.0000
  C   C173      1.0  0.21858317238429975  0.8264606266747061  0.5976555451414053  1.0000
  C   C174      1.0  0.22069092438323995  0.8332544665509115  0.6276291063164787  1.0000
  H   H113      1.0  0.24348933154884397  0.7807689790833849  0.6501821721873632  1.0000
  H   H114      1.0  0.23895497786590159  0.7683624681781562  0.5974687530260171  1.0000
  H   H115      1.0  0.21154243181066423  0.8392274599012121  0.583004839515339  1.0000
  H   H116      1.0  0.21552314240987722  0.8512954372445726  0.6359074492646787  1.0000
  C   C175      1.0  0.23851792866667582  0.9885031493996222  0.7259970901236834  1.0000
  C   C176      1.0  0.23594939081451552  0.016324511720691545  0.727591659494697  1.0000
  C   C177      1.0  0.26334057575738984  0.04679009329712089  0.7308637074590245  1.0000
  C   C178      1.0  0.293659985685138  0.049721466339176915  0.7323635834961596  1.0000
  C   C179      1.0  0.2962578887811238  0.021964310753977898  0.7302989886151672  1.0000
  C   C180      1.0  0.2688957911630735  0.9915415541462224  0.7270936462832015  1.0000
  H   H117      1.0  0.2125514900405844  0.014251235095745995  0.7266412354067247  1.0000
  H   H118      1.0  0.2609566918322819  0.06792814709572334  0.7322952630133757  1.0000
  H   H119      1.0  0.31964868127721285  0.024014493574546346  0.7311755594928525  1.0000
  H   H120      1.0  0.2713255501756205  0.9704465922637047  0.7254564944330268  1.0000
  C   C181      1.0  0.8140005397732188  0.38437339882876886  0.5051030577097297  1.0000
  C   C182      1.0  0.7875192011943433  0.372059638134094  0.5241178826640983  1.0000
  C   C183      1.0  0.8770712420116699  0.4557496107790952  0.9885794439806946  1.0000
  C   C184      1.0  0.7874397518483315  0.4226697452075057  0.5224282908794404  1.0000
  C   C185      1.0  0.8132455847543867  0.43464735403179733  0.5026914975173611  1.0000
  C   C186      1.0  0.826754587176965  0.41568365044388755  0.49439015127105856  1.0000
  H   H121      1.0  0.8999758712931022  0.4272757200576959  0.988680095728933  1.0000
  H   H122      1.0  0.899399124758401  0.47789233482174387  0.9852417852452333  1.0000
  H   H123      1.0  0.8234093791964923  0.45881804407992616  0.49447396458197934  1.0000
  H   H124      1.0  0.8472249839325084  0.425346996572406  0.47966511961331704  1.0000
  C   C187      1.0  0.44930316786468244  0.21121136452783518  0.590159328286779  1.0000
  C   C188      1.0  0.4323491915558267  0.22694361284395725  0.5838497513957963  1.0000
  C   C189      1.0  0.4125970330219988  0.22970330783694684  0.6052435278105246  1.0000
  C   C190      1.0  0.4093639308286392  0.21664360728869497  0.6331145335140068  1.0000
  C   C191      1.0  0.4259380034597177  0.20050649878666651  0.6393705059612848  1.0000
  C   C192      1.0  0.44561023966796937  0.19761097464081656  0.6179032766725577  1.0000
  H   H125      1.0  0.43443319312715284  0.2369918190705437  0.5624510568459302  1.0000
  H   H126      1.0  0.39962667420924913  0.24196915219681372  0.6001107302696748  1.0000
  H   H127      1.0  0.4239038413815736  0.19061539779665257  0.6608188020840997  1.0000
  H   H128      1.0  0.4586667606223457  0.1854285960303705  0.6230129732545522  1.0000
  C   C193      1.0  0.431079555257991  0.22696003398759973  0.8380069397964883  1.0000
  C   C194      1.0  0.4596603098478883  0.24823239341703587  0.8520084695030514  1.0000
  C   C195      1.0  0.46268739073895865  0.2465414906842658  0.8822492505403404  1.0000
  C   C196      1.0  0.4369841661549845  0.22367892164323955  0.8989661657402165  1.0000
  C   C197      1.0  0.40829601848688485  0.2024678474048097  0.884992686921767  1.0000
  C   C198      1.0  0.4053944994830468  0.203925912480696  0.8546703931915255  1.0000
  H   H129      1.0  0.4797214683662415  0.26610875189763095  0.8393730751105213  1.0000
  H   H130      1.0  0.48489360563034334  0.2630391936411326  0.892627371863611  1.0000
  H   H131      1.0  0.38828977334265447  0.18462958608707727  0.8976723016922076  1.0000
  H   H132      1.0  0.383356099921374  0.18720355700713812  0.844214036897728  1.0000
  C   C199      1.0  0.5998798157580582  0.3892490672729742  0.9972498532710548  1.0000
  C   C200      1.0  0.6098337171576083  0.37978873066111196  0.02168613015520582  1.0000
  C   C201      1.0  0.6410475070376767  0.39894376837465517  0.03193458770528723  1.0000
  C   C202      1.0  0.6628365572375268  0.4272790376333758  0.017463677465354932  1.0000
  C   C203      1.0  0.6529456577544163  0.4369172783473255  0.9930521357438877  1.0000
  C   C204      1.0  0.6213379725958623  0.4181459762336815  0.9832413404730993  1.0000
  H   H133      1.0  0.5933264781179898  0.3579192169520571  0.03293663110613565  1.0000
  H   H134      1.0  0.6484803653967175  0.3915666652993056  0.05101584543351234  1.0000
  H   H135      1.0  0.6696306932525072  0.45738402300081377  0.5198041378426156  1.0000
  H   H136      1.0  0.6261581213540525  0.4106305135399833  0.5458177635159238  1.0000
  C   C205      1.0  0.6185703196829191  0.24722690503546754  0.9833696890758167  1.0000
  C   C206      1.0  0.6447060439922745  0.24646477872861525  0.970201520135454  1.0000
  C   C207      1.0  0.669594527542828  0.24828212454077694  0.9870416858904807  1.0000
  C   C208      1.0  0.6632345148568967  0.24362805948177782  0.5143525868458048  1.0000
  C   C209      1.0  0.6700155207228206  0.2515036459088534  0.4849494929714726  1.0000
  C   C210      1.0  0.6473327280938207  0.25318112594703024  0.46745401316177027  1.0000
  H   H137      1.0  0.6458496015326645  0.2447652249528931  0.946826140588676  1.0000
  H   H138      1.0  0.6896649684972661  0.24776416494185913  0.9766622664341607  1.0000
  H   H139      1.0  0.6924526419038248  0.2557353448419868  0.4755519384895712  1.0000
  H   H140      1.0  0.6524991271239697  0.2587220466284198  0.44458869919942823  1.0000
  C   C211      1.0  0.6434093044100053  0.8214885142258868  0.8584376670129917  1.0000
  C   C212      1.0  0.616054852024341  0.8198859147108457  0.8467817156816196  1.0000
  C   C213      1.0  0.589461522681905  0.8130092643214984  0.8649399062625649  1.0000
  C   C214      1.0  0.5899271508311913  0.8077968740404228  0.8948973356853681  1.0000
  C   C215      1.0  0.6174406981927202  0.809813342358991  0.9066045880086151  1.0000
  C   C216      1.0  0.6439365978489556  0.8164575967843104  0.8884280035416463  1.0000
  H   H141      1.0  0.615239362860979  0.823635742971294  0.8237601985513425  1.0000
  H   H142      1.0  0.5683181324557987  0.8116041906693915  0.8556748181267931  1.0000
  H   H143      1.0  0.6183688047546376  0.8063787582421468  0.9296665900952195  1.0000
  H   H144      1.0  0.6650906133232104  0.8178890878103504  0.8977022386692388  1.0000
  C   C217      1.0  0.6317518648087628  0.8155396839976835  0.6541565479690169  1.0000
  C   C218      1.0  0.6061129850064413  0.791253671547589  0.6387011846752338  1.0000
  C   C219      1.0  0.5994506687998161  0.7965116424688886  0.6101946067678578  1.0000
  C   C220      1.0  0.6184922350778428  0.8261824076055528  0.596679157517521  1.0000
  C   C221      1.0  0.6444166457898578  0.8503585520271174  0.6119938668688543  1.0000
  C   C222      1.0  0.6510193058536956  0.8451295925036598  0.6405569624971641  1.0000
  H   H145      1.0  0.5910279847407557  0.7682650545046242  0.6489531499257306  1.0000
  H   H146      1.0  0.579454387401813  0.7776541509650465  0.5987623945221803  1.0000
  H   H147      1.0  0.6592774981946021  0.8734301349196238  0.6018240048612863  1.0000
  H   H148      1.0  0.6707924212064641  0.8640789700837652  0.6521113145485778  1.0000
  C   C223      1.0  0.8195859874827635  0.21271302177042206  0.6618769591421982  1.0000
  C   C224      1.0  0.8482573998884172  0.22141618262985271  0.6468111091284741  1.0000
  C   C225      1.0  0.852134432927415  0.23151737407794734  0.6176138992645109  1.0000
  C   C226      1.0  0.8274680475304946  0.23302044708131456  0.6030856339036456  1.0000
  C   C227      1.0  0.7988124724138561  0.22441112859397017  0.6181664303610231  1.0000
  C   C228      1.0  0.7949088309068564  0.2142444557439964  0.6473701889156814  1.0000
  H   H149      1.0  0.8674783240316876  0.2204086501194928  0.6576352652824019  1.0000
  H   H150      1.0  0.8744183653488488  0.23814112458796904  0.6061884262631769  1.0000
  H   H151      1.0  0.7796320879445372  0.22548505803687022  0.60734193678987  1.0000
  H   H152      1.0  0.772639763611381  0.20762235350097794  0.6588188026761228  1.0000
  C   C229      1.0  0.8431076771320954  0.21688594269333247  0.8608099570265052  1.0000
  C   C230      1.0  0.8500429516786253  0.22427198296528814  0.8903449737597862  1.0000
  C   C231      1.0  0.8298230378845651  0.2302516815769303  0.9086600225356187  1.0000
  C   C232      1.0  0.80230794762783  0.22883152170168602  0.897613630045701  1.0000
  C   C233      1.0  0.7955013270555189  0.2217618947416806  0.8680270796623638  1.0000
  C   C234      1.0  0.8157714781990325  0.2158352106970633  0.8496873773351469  1.0000
  H   H153      1.0  0.8710927347326138  0.22509057644476513  0.8991711013134214  1.0000
  H   H154      1.0  0.8353503940329282  0.23556329425415623  0.9313641747380758  1.0000
  H   H155      1.0  0.7742559391163057  0.22056931873978558  0.8592639811094022  1.0000
  H   H156      1.0  0.8101164179827773  0.21018490060901268  0.8270448488088291  1.0000
  C   C235      1.0  0.8222843193605673  0.05612294154095984  0.7471683452994267  1.0000
  C   C236      1.0  0.7935743838467844  0.05271027320019373  0.7584611445553425  1.0000
  C   C237      1.0  0.7663177706322711  0.021969775238434606  0.7615538609019463  1.0000
  C   C238      1.0  0.7674138791471411  0.994230449607009  0.7536331541101576  1.0000
  C   C239      1.0  0.7961805288313787  0.9976506181736382  0.7425079102345221  1.0000
  C   C240      1.0  0.8233849391684768  0.02840867485073661  0.7392587913177815  1.0000
  H   H157      1.0  0.792454174070264  0.07370346515823899  0.7650679580072581  1.0000
  H   H158      1.0  0.7442586069580501  0.019644846765092927  0.7703050446322327  1.0000
  H   H159      1.0  0.7974604566460817  0.9766165336387382  0.7363083945215041  1.0000
  H   H160      1.0  0.8454322351345318  0.030678562468271775  0.7305398699049457  1.0000
  C   C241      1.0  0.23692073344732853  0.4156392299915359  0.8568195791022544  1.0000
  C   C242      1.0  0.25565902328089085  0.4227451534449942  0.8817653121495994  1.0000
  C   C243      1.0  0.2501879075075241  0.4373963657636067  0.9060852220236953  1.0000
  C   C244      1.0  0.22596910850909613  0.4453353159034242  0.9057097571306373  1.0000
  C   C245      1.0  0.20682109378548175  0.4377457765176365  0.88094493880907  1.0000
  C   C246      1.0  0.21235583722020945  0.4231435110773683  0.8565418317713347  1.0000
  H   H161      1.0  0.2745864878951168  0.41684948225595514  0.8822857889277437  1.0000
  H   H162      1.0  0.26477888958740725  0.44260345200062573  0.9251126255437344  1.0000
  H   H163      1.0  0.1880502918267329  0.4438588371868859  0.8803937240248506  1.0000
  H   H164      1.0  0.19804506311913178  0.41825123431049016  0.8373562681541914  1.0000
  C   C247      1.0  0.22511121416172744  0.42106499193877356  0.6528930302243791  1.0000
  C   C248      1.0  0.2142797207617285  0.4308455981374711  0.6290054502422839  1.0000
  C   C249      1.0  0.23439896418342113  0.4457441864423666  0.6046361575067164  1.0000
  C   C250      1.0  0.2656701377777788  0.45091817166938714  0.6037559133677121  1.0000
  C   C251      1.0  0.2766018106104168  0.44125345834225393  0.6277099021184468  1.0000
  C   C252      1.0  0.2565672354164758  0.4266982733836522  0.6522533968859103  1.0000
  H   H165      1.0  0.19006458763658016  0.42679976354136184  0.6293054914397694  1.0000
  H   H166      1.0  0.22559578609370656  0.45305041722474026  0.5864761965756965  1.0000
  H   H167      1.0  0.3008335450741742  0.4454093558038989  0.6274335709550494  1.0000
  H   H168      1.0  0.2654891581001257  0.42011248056397094  0.670789404807888  1.0000
  C   C253      1.0  0.06704482211677999  0.27474486178334273  0.7650508015280454  1.0000
  C   C254      1.0  0.06532354648406449  0.2851535735955331  0.7372450682395373  1.0000
  C   C255      1.0  0.035271964384422816  0.2758171419792594  0.7250525584214825  1.0000
  C   C256      1.0  0.006584669698504575  0.256195637273006  0.7405070802257248  1.0000
  C   C257      1.0  0.00826803143602195  0.2457715285896379  0.7683567137685939  1.0000
  C   C258      1.0  0.03834198069020053  0.2549076243151803  0.7804760817938139  1.0000
  H   H169      1.0  0.08712445829521352  0.3004209936856213  0.7250986512075946  1.0000
  H   H170      1.0  0.034261108434864074  0.2840497734245  0.7035197668493285  1.0000
  H   H171      1.0  0.9864413439460367  0.23090119366722164  0.7806113995024566  1.0000
  H   H172      1.0  0.03936447328219753  0.24679525099147592  0.8020375425987202  1.0000
  C   C259      1.0  0.2568825132982575  0.2751692220621978  0.7363553828876749  1.0000
  C   C260      1.0  0.2765164582669622  0.2668022282624904  0.7198794473787098  1.0000
  C   C261      1.0  0.2861893594198631  0.2458140564584989  0.731059187155121  1.0000
  C   C262      1.0  0.27598890859414865  0.23260180270809533  0.7587938951184672  1.0000
  C   C263      1.0  0.25658788932488097  0.24117283312100515  0.7753902182513337  1.0000
  C   C264      1.0  0.2471772484777465  0.26243156827205977  0.7643191720019603  1.0000
  H   H173      1.0  0.2841957004805952  0.2764821310941193  0.6982404342195151  1.0000
  H   H174      1.0  0.30112373887293276  0.239492251352003  0.718028811974009  1.0000
  H   H175      1.0  0.24850106577753306  0.23105574972655477  0.7968437281172479  1.0000
  H   H176      1.0  0.23200330134794112  0.2685332403727061  0.7772199626171635  1.0000
  C   C265      1.0  0.9953156702365568  0.7790689214254948  0.7371884466164274  1.0000
  C   C266      1.0  0.9989187064966563  0.7525730664221503  0.7309100650763456  1.0000
  C   C267      1.0  0.02960597030943512  0.7556359475767888  0.7306063923577452  1.0000
  C   C268      1.0  0.05712781653903657  0.7852553323817629  0.7361282244721  1.0000
  C   C269      1.0  0.053615587903126115  0.8118527401170443  0.7420330910740148  1.0000
  C   C270      1.0  0.022859393967414432  0.8087078081516734  0.7426301541544096  1.0000
  H   H177      1.0  0.9780510871458741  0.7297021427969709  0.7262756648865332  1.0000
  H   H178      1.0  0.03200597765421567  0.7348957434642783  0.7259629549533823  1.0000
  H   H179      1.0  0.07453935812820728  0.8348093107722936  0.7462672310174281  1.0000
  H   H180      1.0  0.020396537806552928  0.8294092318199617  0.7473573400667702  1.0000
  C   C271      1.0  0.840969977104511  0.6276408015173649  0.8474472973144223  1.0000
  C   C272      1.0  0.8503782193178127  0.627147286842561  0.8760894165012661  1.0000
  C   C273      1.0  0.8293334253458721  0.6038595652475023  0.8962268385217182  1.0000
  C   C274      1.0  0.7984097412810363  0.580911015403304  0.8880292599641528  1.0000
  C   C275      1.0  0.7890446561817052  0.5813474667338451  0.8593430949554345  1.0000
  C   C276      1.0  0.8102706695373507  0.6042838204076528  0.8390584985597025  1.0000
  H   H181      1.0  0.8740598671957278  0.6449627776717817  0.8828694627455717  1.0000
  H   H182      1.0  0.8368601878406633  0.6038744663282832  0.918204850622108  1.0000
  H   H183      1.0  0.7652722032554394  0.563524290397424  0.8527206261148241  1.0000
  H   H184      1.0  0.8028645134156552  0.603669942696327  0.816959372226627  1.0000
  C   C277      1.0  0.7996460387424804  0.6007274146926337  0.5896522318677556  1.0000
  C   C278      1.0  0.8283478616449322  0.6004010050365041  0.5925037568646162  1.0000
  C   C279      1.0  0.8460811942080733  0.6116935267466289  0.6181637412268697  1.0000
  C   C280      1.0  0.835888926226174  0.6242876196619341  0.6409614696860617  1.0000
  C   C281      1.0  0.807791057138242  0.6256696308358406  0.637694959003098  1.0000
  C   C282      1.0  0.7897469139925967  0.6138383949460599  0.6122236492533577  1.0000
  H   H185      1.0  0.8369130576636373  0.5914895033137683  0.5749538289004379  1.0000
  H   H186      1.0  0.8679709719791471  0.6108494881694418  0.6203501068929622  1.0000
  H   H187      1.0  0.7996204181201904  0.6352488312977728  0.6550277391079724  1.0000
  H   H188      1.0  0.7677310411247572  0.6144753066628627  0.6101771864490378  1.0000
  C   C283      1.0  0.791207087679534  0.7532470685772954  0.7465770918994658  1.0000
  C   C284      1.0  0.7641435144620794  0.7544012117943868  0.7570704474553404  1.0000
  C   C285      1.0  0.760712797936383  0.7814157638669218  0.7521524134171463  1.0000
  C   C286      1.0  0.7842604142010645  0.807603230273975  0.7364292053793862  1.0000
  C   C287      1.0  0.8112194549298416  0.8063706974676963  0.7257945998823153  1.0000
  C   C288      1.0  0.8147782174721302  0.7794539484703255  0.7309155221482496  1.0000
  H   H189      1.0  0.7457302753773191  0.7342959962771228  0.7691843877245248  1.0000
  H   H190      1.0  0.7399080382430999  0.7819872444993252  0.760610621747088  1.0000
  H   H191      1.0  0.8296048792220678  0.8264512063120373  0.7136043534376056  1.0000
  H   H192      1.0  0.8357101153243334  0.7789702691606974  0.7226554194736982  1.0000
  N   N1        1.0  0.3303845441808193  0.8221374047373993  0.8867022425565598  1.0000
  C   C289      1.0  0.36561729356868816  0.8382604755690871  0.8832728614712726  1.0000
  C   C290      1.0  0.3161678114635624  0.8263800825655921  0.8601116589294342  1.0000
  C   C291      1.0  0.32209367127625493  0.8362103382859493  0.911617399548356  1.0000
  C   C292      1.0  0.3175896919580474  0.787632514815729  0.8920527950338103  1.0000
  H   H193      1.0  0.37680909043647665  0.8352994725278506  0.9031609326687285  1.0000
  H   H194      1.0  0.3761446603050326  0.8644116813968366  0.8794757564368926  1.0000
  H   H195      1.0  0.37287314974191155  0.8282535314856527  0.8647080280829668  1.0000
  H   H196      1.0  0.28955190085887095  0.8142402173189112  0.8621603387659936  1.0000
  H   H197      1.0  0.32488965702226674  0.8521237194791007  0.8556220833511905  1.0000
  H   H198      1.0  0.3220097035536547  0.8161703922292215  0.8407797244495755  1.0000
  H   H199      1.0  0.33057185098943265  0.8620561792442066  0.9081406220804982  1.0000
  H   H200      1.0  0.33316322037599816  0.8341297451027305  0.9319006773327194  1.0000
  H   H201      1.0  0.29571771122935364  0.8239187819079976  0.9154223511252285  1.0000
  H   H202      1.0  0.32776109949864995  0.783627328567539  0.9120796651710543  1.0000
  H   H203      1.0  0.32339723499262835  0.7761453629631273  0.8737406888677859  1.0000
  H   H204      1.0  0.2910429962659442  0.7747519505609234  0.8949440459054165  1.0000
  N   N2        1.0  0.2515508393643728  0.5293633781828746  0.11539585241070124  1.0000
  C   C293      1.0  0.2270064595990516  0.5135714966019346  0.09294908690286866  1.0000
  C   C294      1.0  0.24299204749790776  0.508071752143127  0.1409562460589646  1.0000
  C   C295      1.0  0.2531698448102763  0.5597356541957759  0.12399577575484097  1.0000
  C   C296      1.0  0.28306069878892154  0.5361096479867478  0.10357715118933532  1.0000
  H   H205      1.0  0.23255676631173797  0.5291491128524901  0.07347652819968505  1.0000
  H   H206      1.0  0.20282044930106238  0.5077146051257123  0.10117670327992202  1.0000
  H   H207      1.0  0.2255167390560882  0.4908836763429093  0.08554863495001992  1.0000
  H   H208      1.0  0.21897435738389218  0.5017207559477069  0.15008273032016542  1.0000
  H   H209      1.0  0.24225769810233114  0.4852553634963307  0.135247972589559  1.0000
  H   H210      1.0  0.26072168716905947  0.5193777201612796  0.15853374365929807  1.0000
  H   H211      1.0  0.2716502211421104  0.5725108768437528  0.1407183049439183  1.0000
  H   H212      1.0  0.22979034894836933  0.555548853035228  0.13301945887890831  1.0000
  H   H213      1.0  0.25941620750270267  0.5761991357876916  0.10503864087267036  1.0000
  H   H214      1.0  0.2825402071021147  0.5138327481649633  0.09616725509072069  1.0000
  H   H215      1.0  0.30210514272884803  0.5474253214428717  0.12004986247971065  1.0000
  H   H216      1.0  0.29052042129440847  0.5525555054354591  0.08458669125748178  1.0000
  N   N3        1.0  0.1401165981239049  0.32200137488003827  0.8626731399414448  1.0000
  C   C297      1.0  0.13850064598155115  0.34151062275623156  0.8388832051579383  1.0000
  C   C298      1.0  0.1198189330838604  0.32153568962901685  0.8873286249823695  1.0000
  C   C299      1.0  0.17364868331988706  0.3360270483929889  0.8720705063311412  1.0000
  C   C300      1.0  0.12847864492748928  0.2889764885780911  0.8523066815227341  1.0000
  H   H217      1.0  0.15375977797624552  0.34251159316139995  0.8200988891716791  1.0000
  H   H218      1.0  0.1468041586570184  0.3665359510620409  0.8458648873950502  1.0000
  H   H219      1.0  0.11366442779723394  0.3312575798027678  0.8306921478334648  1.0000
  H   H220      1.0  0.12043735092321375  0.307015091675495  0.9057111868657366  1.0000
  H   H221      1.0  0.127974865563508  0.3461578184398184  0.8955906572229202  1.0000
  H   H222      1.0  0.09438275442372716  0.3111667779063787  0.8808320871127595  1.0000
  H   H223      1.0  0.17608204705311492  0.32131290604329965  0.889231366399827  1.0000
  H   H224      1.0  0.18280881473108965  0.3605165412412484  0.8809949574880417  1.0000
  H   H225      1.0  0.18989401801233907  0.3380697124961618  0.8536213708274685  1.0000
  H   H226      1.0  0.1033030921624739  0.27776936580923994  0.8447926830906508  1.0000
  H   H227      1.0  0.1293699202990675  0.2734528319471748  0.8695650538003183  1.0000
  H   H228      1.0  0.14309960894586599  0.2885588027577427  0.8334636135517965  1.0000
  N   N4        1.0  0.5564269244484875  0.7032429540840464  0.9153384205140592  1.0000
  C   C301      1.0  0.550757956678416  0.6822445113373778  0.8899898944967454  1.0000
  C   C302      1.0  0.5904146006626512  0.7287870549684985  0.9153870908654471  1.0000
  C   C303      1.0  0.5486808865979889  0.6841740488082411  0.9423330043151098  1.0000
  C   C304      1.0  0.5358442003948337  0.7178371713045938  0.9135877723825451  1.0000
  H   H229      1.0  0.5253524054408526  0.6626064876265668  0.8894050885501354  1.0000
  H   H230      1.0  0.5661054617060005  0.671015330571259  0.8904873101488939  1.0000
  H   H231      1.0  0.5561939443131672  0.6959307306860479  0.8692753936204887  1.0000
  H   H232      1.0  0.5971113298458498  0.7435268868989987  0.8952095280889746  1.0000
  H   H233      1.0  0.5954037441091711  0.7453708520118676  0.93400961084219  1.0000
  H   H234      1.0  0.6067485976723206  0.7187869567828897  0.9170244006596464  1.0000
  H   H235      1.0  0.5532532968644688  0.6993664939744003  0.961941787547694  1.0000
  H   H236      1.0  0.5633088604561856  0.6722935791495831  0.9442528881193494  1.0000
  H   H237      1.0  0.5229720243960644  0.6651978615371731  0.9435218214399582  1.0000
  H   H238      1.0  0.5392515871394705  0.7335132584189344  0.9325530099502254  1.0000
  H   H239      1.0  0.5100141202903404  0.6993995221753405  0.9131340217003336  1.0000
  H   H240      1.0  0.5415411722935529  0.7331177576875558  0.8938586644337481  1.0000
  N   N5        1.0  0.28568654677157457  0.3584871390638907  0.3169021381237155  1.0000
  C   C305      1.0  0.2541539456651227  0.34253717042900106  0.3320180581543937  1.0000
  C   C306      1.0  0.30659763236690013  0.3897078393314527  0.33076799797121226  1.0000
  C   C307      1.0  0.2814068051773815  0.3636640204134054  0.2861283068698371  1.0000
  C   C308      1.0  0.300503442541217  0.3380740209810252  0.3186228077895277  1.0000
  H   H241      1.0  0.24227048886643396  0.35729717019542306  0.33098106575820335  1.0000
  H   H242      1.0  0.25643136644151115  0.3384541754183789  0.3553667854242641  1.0000
  H   H243      1.0  0.23769432806409013  0.31890932583724696  0.32211098704661617  1.0000
  H   H244      1.0  0.33048569539251615  0.4026282907684975  0.319733623369836  1.0000
  H   H245      1.0  0.2958870396607315  0.4055494082940694  0.3298982143859151  1.0000
  H   H246      1.0  0.3103815135232332  0.38679118007575464  0.3540393545411644  1.0000
  H   H247      1.0  0.3045246971442113  0.3748839821974235  0.2737576798859443  1.0000
  H   H248      1.0  0.27107015853674266  0.37965641507148384  0.28404104139172526  1.0000
  H   H249      1.0  0.2649700257862356  0.34074462284111967  0.2751803261565911  1.0000
  H   H250      1.0  0.3243155334785378  0.34935444097849727  0.3073694950844852  1.0000
  H   H251      1.0  0.2853512763336976  0.31441773404088696  0.30816193603118547  1.0000
  H   H252      1.0  0.3039960115918185  0.3334909776502358  0.3415314625618387  1.0000
  N   N6        1.0  0.7002180470292001  0.927463427915309  0.8452726704789251  1.0000
  C   C309      1.0  0.7092938112053526  0.9616204139709816  0.8445028224249456  1.0000
  C   C310      1.0  0.6747485094317702  0.9095866837769443  0.8240600668656206  1.0000
  C   C311      1.0  0.6883306373077076  0.9141666917352462  0.8746322120117147  1.0000
  C   C312      1.0  0.728519443092009  0.9243966992812596  0.837722686112234  1.0000
  H   H253      1.0  0.7285265332000104  0.9759280248848586  0.8602035711648901  1.0000
  H   H254      1.0  0.688476435702036  0.9648763568120922  0.8498648704905233  1.0000
  H   H255      1.0  0.7184668889980937  0.972122327410256  0.822495684715683  1.0000
  H   H256      1.0  0.6826936918401769  0.9193994859154153  0.8017368894414794  1.0000
  H   H257      1.0  0.6679249879305451  0.8838769396064722  0.8234828476497703  1.0000
  H   H258      1.0  0.6527092251710551  0.9106898391172256  0.8294082831911339  1.0000
  H   H259      1.0  0.6815679955031049  0.8884381971196308  0.8757093873898679  1.0000
  H   H260      1.0  0.6666802259620351  0.9156286850196574  0.8809566124660969  1.0000
  H   H261      1.0  0.7068554176950252  0.9271009975177095  0.8912796698054986  1.0000
  H   H262      1.0  0.7225811553948492  0.8989132669988328  0.8381691547260419  1.0000
  H   H263      1.0  0.7483405090097957  0.9377494119715143  0.8531314149241062  1.0000
  H   H264      1.0  0.7379250856756383  0.9339132275378295  0.8155527496057556  1.0000
  N   N7        1.0  0.7787181979942019  0.5047262651199429  0.6114986163347094  1.0000
  C   C313      1.0  0.7451543547409639  0.48529972201682375  0.6022064503418224  1.0000
  C   C314      1.0  0.7994150191876486  0.5208767093658772  0.585954923817073  1.0000
  C   C315      1.0  0.7891426170601875  0.4837372321737927  0.6248906146657744  1.0000
  C   C316      1.0  0.7811798033866946  0.5289896906506912  0.6327237774482217  1.0000
  H   H265      1.0  0.7426315664114648  0.46728898243306566  0.5855847067318247  1.0000
  H   H266      1.0  0.7365036360845543  0.5006299154533363  0.5923757280207692  1.0000
  H   H267      1.0  0.7288341062067241  0.47225385558097766  0.6207929846528732  1.0000
  H   H268      1.0  0.8247688161057235  0.5367977501789153  0.5921696319298436  1.0000
  H   H269      1.0  0.7990509719296648  0.5033439003000109  0.5699314076539849  1.0000
  H   H270      1.0  0.7913151061084511  0.5357640245836633  0.5745503145360509  1.0000
  H   H271      1.0  0.8144557419730474  0.4977349216040394  0.631975344368339  1.0000
  H   H272      1.0  0.7875388204034103  0.46524775452128364  0.6092299259388324  1.0000
  H   H273      1.0  0.7740611934897973  0.47105491454741555  0.6442520611688638  1.0000
  H   H274      1.0  0.8063523238898455  0.5448153000307282  0.6396248703526182  1.0000
  H   H275      1.0  0.7663498211609148  0.5177346704379544  0.6525639697170073  1.0000
  H   H276      1.0  0.7729010044673852  0.5448047732629172  0.6233335717773336  1.0000
  N   N8        1.0  0.47598716267852537  0.2565993478130685  0.21915421883024225  1.0000
  C   C317      1.0  0.4892681058838135  0.2707284465315898  0.19029906749685366  1.0000
  C   C318      1.0  0.45300063772921134  0.22211080099203317  0.21588599203648765  1.0000
  C   C319      1.0  0.45934638461786637  0.2725626451794038  0.23215082410782995  1.0000
  C   C320      1.0  0.5020368890401731  0.2608008362915418  0.23836078156778162  1.0000
  H   H277      1.0  0.5068475845941445  0.296752927224701  0.1918574734161418  1.0000
  H   H278      1.0  0.4699817522329375  0.26798844551784434  0.17552363399058163  1.0000
  H   H279      1.0  0.5015359525543828  0.2589068117857967  0.17955867889724678  1.0000
  H   H280      1.0  0.4433882088080214  0.2104268206864002  0.23734272917834182  1.0000
  H   H281      1.0  0.4322722473941753  0.2181722281490027  0.2026865975931197  1.0000
  H   H282      1.0  0.46423485994093816  0.209368916553466  0.20503682201105097  1.0000
  H   H283      1.0  0.44858408723680065  0.2620702450829163  0.2537877973301098  1.0000
  H   H284      1.0  0.4396502955164236  0.27002107773392137  0.21804877617383314  1.0000
  H   H285      1.0  0.4759774289756112  0.29858840552401544  0.23530937705173502  1.0000
  H   H286      1.0  0.49243246655480044  0.25034321590857167  0.2603156060385165  1.0000
  H   H287      1.0  0.5198869688080328  0.2865549306841423  0.2414097980314838  1.0000
  H   H288      1.0  0.5148890702495373  0.24873860049864102  0.22938536441516677  1.0000
  N   N9        1.0  0.22826341709999404  0.328595631296486  0.640336802774491  1.0000
  C   C321      1.0  0.25289936455977075  0.34974813870240434  0.6610819920067953  1.0000
  C   C322      1.0  0.20581985197058936  0.34058124899495984  0.6354055519163857  1.0000
  C   C323      1.0  0.21052791914950542  0.2957495763045377  0.6523110301103795  1.0000
  C   C324      1.0  0.24393116222598477  0.3283507552276689  0.6125309712322574  1.0000
  H   H289      1.0  0.2692601403158119  0.3405206179036915  0.6665541119470032  1.0000
  H   H290      1.0  0.24181771726463905  0.3516101139810233  0.68188434557455  1.0000
  H   H291      1.0  0.2677865333130902  0.3743438216921038  0.6522314976383231  1.0000
  H   H292      1.0  0.18626316175348026  0.3247134027669408  0.6206013300587292  1.0000
  H   H293      1.0  0.19441870087137794  0.3422903868817367  0.6560886232416445  1.0000
  H   H294      1.0  0.21827629413436378  0.36496403507452685  0.6256019571290391  1.0000
  H   H295      1.0  0.19868172339218193  0.2951258895473566  0.6734308018331537  1.0000
  H   H296      1.0  0.22683819547160372  0.2861206644865065  0.6566044430907116  1.0000
  H   H297      1.0  0.1916511329776193  0.2790169691779865  0.6373669868609283  1.0000
  H   H298      1.0  0.22603881396409226  0.3125365618877079  0.5963803311085507  1.0000
  H   H299      1.0  0.2611811979475177  0.3196229116515121  0.6155569462402841  1.0000
  H   H300      1.0  0.257438142445917  0.3528092202324201  0.6028830053748327  1.0000
  N   N10       1.0  0.37896397087755285  0.6730228809853005  0.009380772942820833  1.0000
  C   C325      1.0  0.4115970389644454  0.6890208021466169  0.9964126127797553  1.0000
  C   C326      1.0  0.35915527054810725  0.6838864242928694  0.9944278871201401  1.0000
  C   C327      1.0  0.3807570859750332  0.6813140734420532  0.0404877438898141  1.0000
  C   C328      1.0  0.36439774946360115  0.6379517716363801  0.0062817272581925186  1.0000
  H   H301      1.0  0.4274445593828364  0.6819945630343164  0.007679293201841454  1.0000
  H   H302      1.0  0.42305511818965047  0.715537926485453  0.997891118572671  1.0000
  H   H303      1.0  0.4113224363197625  0.6828436451862677  0.9730822967601455  1.0000
  H   H304      1.0  0.334312240781664  0.6721867481485643  0.003650356715834969  1.0000
  H   H305      1.0  0.3694197881662006  0.710270451418426  0.9965089090665811  1.0000
  H   H306      1.0  0.35738922229568054  0.6781899017384848  0.9708707897195753  1.0000
  H   H307      1.0  0.3565134440800611  0.6697251148540035  0.05095952712852885  1.0000
  H   H308      1.0  0.3918589487438677  0.7076707295581527  0.04355146926366828  1.0000
  H   H309      1.0  0.3955952914428638  0.6735399727059778  0.05244447649354827  1.0000
  H   H310      1.0  0.3626987950561581  0.6307549539938965  0.9830806756289093  1.0000
  H   H311      1.0  0.3397316625101025  0.6250871714940771  0.015834271127160543  1.0000
  H   H312      1.0  0.3787445460496721  0.6289564186700404  0.017342341781269643  1.0000
  N   N11       1.0  0.6720042685025319  0.17014553996371992  0.4515053346463173  1.0000
  C   C329      1.0  0.6615349663075698  0.1739800826089872  0.480891342564579  1.0000
  C   C330      1.0  0.6924271322988241  0.15539014833248357  0.45373278151348834  1.0000
  C   C331      1.0  0.6904816389568288  0.20183017601213163  0.437396314110883  1.0000
  C   C332      1.0  0.6436497927601937  0.14947841641928492  0.4339806502494603  1.0000
  H   H313      1.0  0.6456776593917583  0.1846254535383834  0.4800980002316456  1.0000
  H   H314      1.0  0.6823601561436872  0.19003416309858773  0.49449861158186886  1.0000
  H   H315      1.0  0.6480732866906151  0.15068233591577868  0.4924951318387959  1.0000
  H   H316      1.0  0.7017246250994845  0.15314344254359324  0.43203546851084296  1.0000
  H   H317      1.0  0.7138042801324506  0.17025586532110587  0.46719006691593085  1.0000
  H   H318      1.0  0.6792389002919459  0.13119400379317106  0.46378585413544193  1.0000
  H   H319      1.0  0.6995253923270728  0.2000135340591089  0.4154401569189421  1.0000
  H   H320      1.0  0.7118936771114  0.2180247924677451  0.4501887225494832  1.0000
  H   H321      1.0  0.6758405879240283  0.2136538777052122  0.43504791138503623  1.0000
  H   H322      1.0  0.6507899375979419  0.14616010002408494  0.41167008393644716  1.0000
  H   H323      1.0  0.6278301077604171  0.16007798254695826  0.43187486291508015  1.0000
  H   H324      1.0  0.6290629532693442  0.1253732162756738  0.4440188129226426  1.0000
  N   N12       1.0  0.7750492890096233  0.6684574590635982  0.1625359357625583  1.0000
  C   C333      1.0  0.7625767467085117  0.6345080867551726  0.17030060095000027  1.0000
  C   C334      1.0  0.7644737186616922  0.6837146142907938  0.1847048874426152  1.0000
  C   C335      1.0  0.7628605313698372  0.6704169659759625  0.13387927672291927  1.0000
  C   C336      1.0  0.8104133243259137  0.6852168699787238  0.16122665960773355  1.0000
  H   H325      1.0  0.7704525210999843  0.6223680516761266  0.1542011563377546  1.0000
  H   H326      1.0  0.7359563740321114  0.6209681700284316  0.1714079578998832  1.0000
  H   H327      1.0  0.7714222842008863  0.6321595247386446  0.19179908075579324  1.0000
  H   H328      1.0  0.7735903926959806  0.7094239872571326  0.17958906094053573  1.0000
  H   H329      1.0  0.7379161138380276  0.6716476476990562  0.18653452947611532  1.0000
  H   H330      1.0  0.7737045598781337  0.6830656064820841  0.2065242598771788  1.0000
  H   H331      1.0  0.7720910633971729  0.695760846881814  0.12730346995144365  1.0000
  H   H332      1.0  0.7362244512221382  0.6581325585068355  0.1340749246428154  1.0000
  H   H333      1.0  0.7703710205919273  0.6589599492596407  0.11672729044721679  1.0000
  H   H334      1.0  0.8202724896842287  0.6832358965929012  0.18219101899554926  1.0000
  H   H335      1.0  0.8208436970679935  0.7112323641281787  0.156644843009846  1.0000
  H   H336      1.0  0.8193191966339886  0.6749497112199206  0.14421816604073756  1.0000
  N   N13       1.0  0.1838838641680281  0.5122564368492774  0.4397000065830271  1.0000
  C   C337      1.0  0.21297884602391337  0.5246913371056614  0.4210449426792903  1.0000
  C   C338      1.0  0.1913147163821391  0.5069211897463348  0.46938415240577447  1.0000
  C   C339      1.0  0.1586591389571323  0.4815810352203231  0.42779134815052117  1.0000
  C   C340      1.0  0.17270041787191837  0.535784522190504  0.44069821559106226  1.0000
  H   H337      1.0  0.2081059786447933  0.5283635987507961  0.398315942704212  1.0000
  H   H338      1.0  0.22243746214594953  0.5077706357741756  0.4203051963991472  1.0000
  H   H339      1.0  0.23244633439837165  0.5480029637104306  0.4291571409736079  1.0000
  H   H340      1.0  0.17018283049674096  0.49820583424653303  0.48432452627832845  1.0000
  H   H341      1.0  0.1991384902715362  0.48878084530508664  0.46953947658445105  1.0000
  H   H342      1.0  0.2107893223506115  0.529340903867524  0.47885538319373666  1.0000
  H   H343      1.0  0.13649001021625787  0.4711873339641664  0.4415400571429874  1.0000
  H   H344      1.0  0.16675132483361307  0.46353769021235736  0.4267044859969564  1.0000
  H   H345      1.0  0.1522812252887593  0.4845872961889261  0.40541066758470257  1.0000
  H   H346      1.0  0.15069547913726603  0.5270812461560361  0.4545109165189638  1.0000
  H   H347      1.0  0.16718024796833908  0.5407722012178827  0.41865623148526054  1.0000
  H   H348      1.0  0.19120973770665783  0.5589843151729738  0.4500794596033869  1.0000
  N   N14       1.0  0.5356364783142459  0.8239797020027227  0.11207788823165411  1.0000
  C   C341      1.0  0.537673826904443  0.7944086994004035  0.11255248738113795  1.0000
  C   C342      1.0  0.5682471194107803  0.8520633931431866  0.10963331213970749  1.0000
  C   C343      1.0  0.5199978412232368  0.826136816467776  0.13921577240232405  1.0000
  C   C344      1.0  0.5166596278971078  0.8231897306743583  0.08690131311790401  1.0000
  H   H349      1.0  0.513569935573095  0.7726384223465074  0.11421600048241266  1.0000
  H   H350      1.0  0.5521037144096084  0.7941721078859026  0.131079956054307  1.0000
  H   H351      1.0  0.5493638620419429  0.792157291612523  0.0923713890986046  1.0000
  H   H352      1.0  0.5678509456049537  0.8749190891572695  0.11059104946998762  1.0000
  H   H353      1.0  0.5839300034611  0.8522939285943042  0.127225875495663  1.0000
  H   H354      1.0  0.5801053936276603  0.8520109926700491  0.08869558757334745  1.0000
  H   H355      1.0  0.5178877405925261  0.8481050049683788  0.13957180340935418  1.0000
  H   H356      1.0  0.5338789134831531  0.8268139862521394  0.15855138372259975  1.0000
  H   H357      1.0  0.4954186469985458  0.8051751547224737  0.14178647236166525  1.0000
  H   H358      1.0  0.5276886789847763  0.8211749484008042  0.06609533849670704  1.0000
  H   H359      1.0  0.5147451624932335  0.8452049318276595  0.08554691870782119  1.0000
  H   H360      1.0  0.49188433286687344  0.8022947475754789  0.08798716789525968  1.0000
  N   N15       1.0  0.7232741329957484  0.5277720396811034  0.3848687928502204  1.0000
  C   C345      1.0  0.6899091757272117  0.5036232452449367  0.3780311806371574  1.0000
  C   C346      1.0  0.7395613913558872  0.5469662009444958  0.358659708460937  1.0000
  C   C347      1.0  0.7404739624017268  0.5114359060239483  0.3947877296887474  1.0000
  C   C348      1.0  0.7231539897195642  0.5490381538164805  0.40808090699853633  1.0000
  H   H361      1.0  0.6890378861667033  0.48692637488689366  0.36080969640534677  1.0000
  H   H362      1.0  0.6761956655248518  0.5150843389924717  0.3704625317557521  1.0000
  H   H363      1.0  0.6769889644433814  0.48888998704965203  0.39751024157715514  1.0000
  H   H364      1.0  0.7398414658258761  0.5316903705012999  0.34056946507905556  1.0000
  H   H365      1.0  0.7276915510249025  0.5602123588924665  0.3508419255840708  1.0000
  H   H366      1.0  0.7649169713889429  0.5650173423770439  0.3630642826951238  1.0000
  H   H367      1.0  0.7654412770093254  0.5288983274006158  0.40097912292365095  1.0000
  H   H368      1.0  0.7417783310797921  0.4957613944761385  0.3776385707923099  1.0000
  H   H369      1.0  0.7284552950065388  0.49620179492101235  0.41415141661189203  1.0000
  H   H370      1.0  0.7479282536115059  0.5673547761914991  0.4140254747154185  1.0000
  H   H371      1.0  0.7109042069797772  0.5352839880082941  0.4281543844154559  1.0000
  H   H372      1.0  0.7105418552074405  0.5619265634420162  0.40134368838473666  1.0000
  N   N16       1.0  0.7122414208135663  0.7855852246379165  0.6641849550539641  1.0000
  C   C349      1.0  0.6871233198602102  0.7682161587432755  0.6425172109579426  1.0000
  C   C350      1.0  0.7399575271357459  0.7809940548721174  0.6582092579649654  1.0000
  C   C351      1.0  0.6991016097237291  0.773196408313129  0.693469619739195  1.0000
  C   C352      1.0  0.7227506372956072  0.8200587466716113  0.6627545760499519  1.0000
  H   H373      1.0  0.666035392439391  0.7715392364149698  0.6466641992877458  1.0000
  H   H374      1.0  0.6783695707007147  0.7420577849744416  0.6431135428423996  1.0000
  H   H375      1.0  0.6961166333213973  0.7769466717370995  0.6201204111865056  1.0000
  H   H376      1.0  0.7591911265233877  0.7939748465177718  0.6743933277016745  1.0000
  H   H377      1.0  0.7330376576278813  0.7552730474991742  0.6593670472885046  1.0000
  H   H378      1.0  0.7506607364062857  0.7901415407136121  0.6363278791549069  1.0000
  H   H379      1.0  0.7173281543151923  0.7861720972859404  0.7103554484972764  1.0000
  H   H380      1.0  0.6913601296261871  0.7473547383703218  0.6955528608303586  1.0000
  H   H381      1.0  0.6779316150868019  0.7759856190940753  0.6986361197621258  1.0000
  H   H382      1.0  0.7325681742221438  0.8302260362386653  0.6409043449923065  1.0000
  H   H383      1.0  0.741828622188148  0.8339374253074219  0.6787340505650189  1.0000
  H   H384      1.0  0.7025036117615923  0.8244323984396913  0.6675545955006662  1.0000
  N   N17       1.0  0.24281244071226732  0.3359472383294241  0.13244586162425193  1.0000
  C   C353      1.0  0.22568890383935247  0.3416413072398036  0.15660473939589656  1.0000
  C   C354      1.0  0.21923550979925796  0.3112621576046321  0.11300327080147712  1.0000
  C   C355      1.0  0.2639178393736486  0.32480399787030445  0.1442599712944972  1.0000
  C   C356      1.0  0.26226230293888236  0.3660003930638924  0.11602279725094349  1.0000
  H   H385      1.0  0.24264330173700413  0.360041206289866  0.1718650245801335  1.0000
  H   H386      1.0  0.21098262757731936  0.31939913828070926  0.16946055748795005  1.0000
  H   H387      1.0  0.20936670611528146  0.35000370229231476  0.14871160741477388  1.0000
  H   H388      1.0  0.23127347249747351  0.30627035905857025  0.09450365694144539  1.0000
  H   H389      1.0  0.2040896734439242  0.2883160808124725  0.12484118825890782  1.0000
  H   H390      1.0  0.2028665425060147  0.3189416331203988  0.10386658176869082  1.0000
  H   H391      1.0  0.27785273084230033  0.3209038369148139  0.12679386332409498  1.0000
  H   H392      1.0  0.2498683556380638  0.3018340052704476  0.15638028490341538  1.0000
  H   H393      1.0  0.28125103035028615  0.3423889162002451  0.15987752331507077  1.0000
  H   H394      1.0  0.27567105303375633  0.36272538403975213  0.09765098810839104  1.0000
  H   H395      1.0  0.28011051023457384  0.38520711057302487  0.13016323015314912  1.0000
  H   H396      1.0  0.2469962480671273  0.3749867360421556  0.1067690135222223  1.0000
  N   N18       1.0  0.12339571160787374  0.7594395525198834  0.6576861339554368  1.0000
  C   C357      1.0  0.14502361620219828  0.7685905953988983  0.6826816923986521  1.0000
  C   C358      1.0  0.14198574455582222  0.7767357913424694  0.631484538705691  1.0000
  C   C359      1.0  0.09822728630520047  0.7678475879399019  0.6637313340384533  1.0000
  C   C360      1.0  0.10838205861295853  0.7245896187589207  0.6528568913186324  1.0000
  H   H397      1.0  0.1316508529118464  0.7570855777186752  0.7031644659152505  1.0000
  H   H398      1.0  0.1576058166003903  0.7948456958222366  0.6862960372407503  1.0000
  H   H399      1.0  0.16397172781297728  0.7620125125992163  0.6792579547424104  1.0000
  H   H400      1.0  0.1266259137279898  0.7701837934985343  0.6120386494445653  1.0000
  H   H401      1.0  0.15330357474680717  0.803112154391018  0.6343501596949082  1.0000
  H   H402      1.0  0.16150371073853212  0.7713039180547973  0.6265092263850269  1.0000
  H   H403      1.0  0.08240356528665695  0.7628573772725169  0.6448241710568655  1.0000
  H   H404      1.0  0.10875795457969482  0.7936732565029836  0.6692819300252129  1.0000
  H   H405      1.0  0.08269003020813957  0.7540039486299313  0.6825103757719236  1.0000
  H   H406      1.0  0.09164077521380815  0.7167944576271571  0.6343315530451711  1.0000
  H   H407      1.0  0.09447314439118054  0.7108868819990225  0.6724047372501354  1.0000
  H   H408      1.0  0.12674940656103487  0.7175369663014831  0.6479389550906386  1.0000
  N   N19       1.0  0.15686494497129913  0.6772958058500012  0.938328186257634  1.0000
  C   C361      1.0  0.1493668124956095  0.6663243753052326  0.9688365843769251  1.0000
  C   C362      1.0  0.15289058871573533  0.705531946163674  0.9343188299684411  1.0000
  C   C363      1.0  0.1350004219121345  0.6512779485614542  0.9189372947198463  1.0000
  C   C364      1.0  0.1902864562470574  0.686037784033591  0.9311786772258207  1.0000
  H   H409      1.0  0.15263002213553029  0.6453400341696913  0.9727387410141862  1.0000
  H   H410      1.0  0.12434372919878052  0.6594510704650044  0.975114194955862  1.0000
  H   H411      1.0  0.16555234636386773  0.6853301474441267  0.9840763740506588  1.0000
  H   H412      1.0  0.15874050080483085  0.7146875186877933  0.9115994648171659  1.0000
  H   H413      1.0  0.1280016509611871  0.6999679650856001  0.9395458397876483  1.0000
  H   H414      1.0  0.16923425635917097  0.725703548091917  0.9485072929335004  1.0000
  H   H415      1.0  0.14011072456738854  0.6587987927423845  0.8957502073533957  1.0000
  H   H416      1.0  0.10953522916783862  0.6440416287891304  0.923722878626705  1.0000
  H   H417      1.0  0.13751194283721052  0.6296658164554395  0.9214531160576841  1.0000
  H   H418      1.0  0.19703803191189323  0.6948147293121253  0.9084403268587261  1.0000
  H   H419      1.0  0.1943999541394682  0.6654747908478479  0.934246831614584  1.0000
  H   H420      1.0  0.20729974138194945  0.7055191806472362  0.9454807437302533  1.0000
  N   N20       1.0  0.696234470573441  0.9570620187339829  0.2914264955666292  1.0000
  C   C365      1.0  0.7140486150895923  0.9890727393679459  0.27771971380222654  1.0000
  C   C366      1.0  0.6845748195839936  0.9596763233498827  0.320643075359523  1.0000
  C   C367      1.0  0.7176654262651351  0.9435623942156133  0.2940138867446467  1.0000
  C   C368      1.0  0.6686841155988306  0.9357111890457639  0.2733035990556576  1.0000
  H   H421      1.0  0.7226774472847373  0.9876422420026117  0.2554496059789268  1.0000
  H   H422      1.0  0.7355881164757738  0.0056344628722551715  0.2903430938151727  1.0000
  H   H423      1.0  0.6988459470807654  0.0003200639011433638  0.2758004401499997  1.0000
  H   H424      1.0  0.671006666891436  0.9357152357288508  0.33134555846647956  1.0000
  H   H425      1.0  0.7048067540180676  0.9754062294295325  0.3349435405863743  1.0000
  H   H426      1.0  0.6682744131514026  0.9697678115375616  0.319621048688421  1.0000
  H   H427      1.0  0.7055027520937918  0.9200467835875827  0.30536665681701186  1.0000
  H   H428      1.0  0.7394990716807642  0.9596729909569659  0.3064105761424127  1.0000
  H   H429      1.0  0.7254402162417007  0.9396026159211514  0.27228401846689165  1.0000
  H   H430      1.0  0.6552678877788402  0.9110568216782051  0.2826338381271081  1.0000
  H   H431      1.0  0.6766674624849752  0.9336380709950374  0.2509406615472306  1.0000
  H   H432      1.0  0.651547222348194  0.9446899468255038  0.27136834638926705  1.0000
  N   N21       1.0  0.7139927302511232  0.19104253181770275  0.09579425882018505  1.0000
  C   C369      1.0  0.7259100667106979  0.1730184007845267  0.11232935836673402  1.0000
  C   C370      1.0  0.7038039355092225  0.17652460427348146  0.06679457458402177  1.0000
  C   C371      1.0  0.7399017723300326  0.22457012618309083  0.09248503173591019  1.0000
  C   C372      1.0  0.6865547274921997  0.19030738157470828  0.1114114351653026  1.0000
  H   H433      1.0  0.7344472020542716  0.18369316168903366  0.13414322111860794  1.0000
  H   H434      1.0  0.7465574196597059  0.17315458853440407  0.1008217243680779  1.0000
  H   H435      1.0  0.7069945891638832  0.14759928359355592  0.11547940246490115  1.0000
  H   H436      1.0  0.6958633554927368  0.19034861177628604  0.053309893239049916  1.0000
  H   H437      1.0  0.7237889410809027  0.17595600306278134  0.05474829729142114  1.0000
  H   H438      1.0  0.6835686207142633  0.1514980349930793  0.0683247097169763  1.0000
  H   H439      1.0  0.7314805977074512  0.23932279034874332  0.08132496625163052  1.0000
  H   H440      1.0  0.7601894480661291  0.22608516329982165  0.07933707866288182  1.0000
  H   H441      1.0  0.7493506788975806  0.2359521151152708  0.11384665167161741  1.0000
  H   H442      1.0  0.677177394364801  0.20373778228314693  0.09917134832897519  1.0000
  H   H443      1.0  0.6935484011881613  0.2014749280773424  0.133238219150726  1.0000
  H   H444      1.0  0.6664751951657861  0.16536936912880953  0.11441516597947413  1.0000
  N   N22       1.0  0.6674244753390716  0.349936004331421  0.49000881857381534  1.0000
  C   C373      1.0  0.6833189489571428  0.38507548198736424  0.4935047157736731  1.0000
  C   C374      1.0  0.6713947219533395  0.3422526720999844  0.45964566709377996  1.0000
  C   C375      1.0  0.6328792946071774  0.3354345936798664  0.4970962504454151  1.0000
  C   C376      1.0  0.6820515611105619  0.3368903840397056  0.5096739525724606  1.0000
  H   H445      1.0  0.6801986515217865  0.3917861777100591  0.5159916830115114  1.0000
  H   H446      1.0  0.6732759130318231  0.39577702784446467  0.47857925043103533  1.0000
  H   H447      1.0  0.7095771311991089  0.39676713462306895  0.4889151878846244  1.0000
  H   H448      1.0  0.6588613450178721  0.31590786622929384  0.45608533269417534  1.0000
  H   H449      1.0  0.6610680406917071  0.3522133764944018  0.4442096694615296  1.0000
  H   H450      1.0  0.6971143101170098  0.3520862338910532  0.4536502704239877  1.0000
  H   H451      1.0  0.6203664858006134  0.30886131594711536  0.49547235730541256  1.0000
  H   H452      1.0  0.6208079940617961  0.3437188477252589  0.4819115232943869  1.0000
  H   H453      1.0  0.6286961859537115  0.3415835105212019  0.5194619628237278  1.0000
  H   H454      1.0  0.6705699450735167  0.31041103423483424  0.5076481249508137  1.0000
  H   H455      1.0  0.6795228892929775  0.34228843953506055  0.5327615137154612  1.0000
  H   H456      1.0  0.7081031764327633  0.34714003517380093  0.5048003142615656  1.0000
  N   N23       1.0  0.40211202153502457  0.16758996489899589  0.01974813768608673  1.0000
  C   C377      1.0  0.3680265794488841  0.15196970813158514  0.028797461804929543  1.0000
  C   C378      1.0  0.4192787153081152  0.15670088232946777  0.03867931095371443  1.0000
  C   C379      1.0  0.41648293380411294  0.20264006638738388  0.022259953525929393  1.0000
  C   C380      1.0  0.4047846492604  0.1592298357457879  0.9892850729954126  1.0000
  H   H457      1.0  0.35456277783225965  0.16000737922048802  0.015073930237548877  1.0000
  H   H458      1.0  0.3653616814122  0.15781530087108592  0.051763013011987366  1.0000
  H   H459      1.0  0.3563187050656863  0.12546960912273591  0.027053665154097635  1.0000
  H   H460      1.0  0.4450929404065071  0.16796363573957943  0.03226227086107524  1.0000
  H   H461      1.0  0.4185000046448317  0.1634142276659758  0.06174538766724954  1.0000
  H   H462      1.0  0.40894475384110074  0.13032349002053023  0.03770599983769406  1.0000
  H   H463      1.0  0.405497089580341  0.21216888367914535  0.007093257152927877  1.0000
  H   H464      1.0  0.4424559131188746  0.21486674057839603  0.016967393748495572  1.0000
  H   H465      1.0  0.41408018310074113  0.20991646470698827  0.04472681287202086  1.0000
  H   H466      1.0  0.43025639176058317  0.17110529860092652  0.9816804878977194  1.0000
  H   H467      1.0  0.3922791991783644  0.16727276703823477  0.974312657527633  1.0000
  H   H468      1.0  0.3945064439415052  0.13301131231606195  0.9864611256756443  1.0000
  N   N24       1.0  0.8742950687314429  0.34553005121674046  0.5779306411533615  1.0000
  C   C381      1.0  0.8772120008033456  0.3296843935920703  0.551441204979613  1.0000
  C   C382      1.0  0.9065371232691832  0.36704304956607775  0.5893744861876244  1.0000
  C   C383      1.0  0.8548247652262738  0.3209756187234768  0.600009551565  1.0000
  C   C384      1.0  0.8586797249858066  0.36433760166796775  0.5707779340317529  1.0000
  H   H469      1.0  0.8532795762953209  0.3130040412844086  0.5426781026863788  1.0000
  H   H470      1.0  0.8888223971895964  0.31515272309872033  0.5558548373556169  1.0000
  H   H471      1.0  0.8911165038592285  0.34724377605100165  0.5339360001091056  1.0000
  H   H472      1.0  0.9052624047740414  0.3793872679330415  0.6094305193955797  1.0000
  H   H473      1.0  0.9189107788201931  0.3534975291802111  0.5948841555891341  1.0000
  H   H474      1.0  0.9218599227631318  0.3857484016379677  0.5731748621761722  1.0000
  H   H475      1.0  0.8658520074631492  0.3061913661873278  0.605676326599595  1.0000
  H   H476      1.0  0.8304464221782478  0.3039951246879044  0.5919705217718624  1.0000
  H   H477      1.0  0.8519124206525429  0.33187136732886985  0.6203538901745596  1.0000
  H   H478      1.0  0.8561369070495054  0.3768327182279517  0.590140174142049  1.0000
  H   H479      1.0  0.8343125261923622  0.34885317901780905  0.5620178470136886  1.0000
  H   H480      1.0  0.8724132283248182  0.38264510182314077  0.5537141152306592  1.0000
  N   N25       1.0  0.39861978416821614  0.7085029008273418  0.5053268882815796  1.0000
  C   C385      1.0  0.3963234607555199  0.698497961473941  0.535938664539552  1.0000
  C   C386      1.0  0.43271721924375733  0.7288606289930503  0.4969082215080773  1.0000
  C   C387      1.0  0.3816807815154655  0.72674568573683  0.5020144523145442  1.0000
  C   C388      1.0  0.3838317797111161  0.6799257761311381  0.48651413294265033  1.0000
  H   H481      1.0  0.3709962177362003  0.6824262354490663  0.5429359990321398  1.0000
  H   H482      1.0  0.40685559028390145  0.7195442148396984  0.5507152265070419  1.0000
  H   H483      1.0  0.4096911486895187  0.6855117740740108  0.5393563211753575  1.0000
  H   H484      1.0  0.4356563547192175  0.7378296725500968  0.47420753197800897  1.0000
  H   H485      1.0  0.4449352331998648  0.7501652854152743  0.5111979300552323  1.0000
  H   H486      1.0  0.4459889552291845  0.7155437605868779  0.49853202031368  1.0000
  H   H487      1.0  0.3556605986728627  0.711830008267187  0.5073167724872832  1.0000
  H   H488      1.0  0.38409465552062527  0.735912285557141  0.4794586124211519  1.0000
  H   H489      1.0  0.3915444615155819  0.7478173636306432  0.5166655091827744  1.0000
  H   H490      1.0  0.38555480190828895  0.6866879966457268  0.4632353766236658  1.0000
  H   H491      1.0  0.35805442081841504  0.6639532264684391  0.492193402665122  1.0000
  H   H492      1.0  0.39591318876794834  0.6655358497245474  0.4886549911733944  1.0000
  N   N26       1.0  0.3675193626321564  0.27122551525195815  0.8235942519104936  1.0000
  C   C389      1.0  0.35324586502598854  0.23616102650980272  0.8259057854153403  1.0000
  C   C390      1.0  0.3649423835794901  0.284148632813425  0.8520532086502925  1.0000
  C   C391      1.0  0.3502147992123817  0.27873540253643575  0.8016279697341803  1.0000
  C   C392      1.0  0.4016500124839245  0.28570202504164693  0.8148533060551191  1.0000
  H   H493      1.0  0.32711881437104856  0.22411613700637073  0.8311192177347997  1.0000
  H   H494      1.0  0.3650505189983285  0.2295121570499281  0.8428457178245238  1.0000
  H   H495      1.0  0.3559664571284827  0.22591990808816043  0.8051416343237333  1.0000
  H   H496      1.0  0.37533726674667683  0.31057044448690696  0.8511016359485891  1.0000
  H   H497      1.0  0.33948477474627947  0.2734142791981939  0.859388146638417  1.0000
  H   H498      1.0  0.37794539326389315  0.27896274683663624  0.8690163729349389  1.0000
  H   H499      1.0  0.35123121786705114  0.26881023365244033  0.7799919990216746  1.0000
  H   H500      1.0  0.36040787534089014  0.3049770763243747  0.7990018024407705  1.0000
  H   H501      1.0  0.3243385484520443  0.2680641321760132  0.8075223175518436  1.0000
  H   H502      1.0  0.41345506482131916  0.3121970534615813  0.8131882049911646  1.0000
  H   H503      1.0  0.4044899606054066  0.27655008309291607  0.79338835236479  1.0000
  H   H504      1.0  0.4152569797080729  0.2798585869208833  0.8306493430280036  1.0000
  N   N27       1.0  0.5233804497427368  0.30740875673626766  0.6034949273948215  1.0000
  C   C393      1.0  0.5388040856991829  0.34167620998286363  0.6111821839237371  1.0000
  C   C394      1.0  0.5481583791480475  0.2992659740556996  0.5947941273286816  1.0000
  C   C395      1.0  0.5016023364659798  0.30101522379038653  0.5790577871094755  1.0000
  C   C396      1.0  0.5049228319850463  0.2875937778434947  0.6287466949165671  1.0000
  H   H505      1.0  0.5206619892958836  0.3485823566641538  0.6175295793448545  1.0000
  H   H506      1.0  0.5529661760149253  0.35711566610773104  0.5924294118595733  1.0000
  H   H507      1.0  0.5554359894720148  0.34746943519253115  0.6295739997075253  1.0000
  H   H508      1.0  0.5371763911696779  0.2735331551356431  0.588595946718212  1.0000
  H   H509      1.0  0.5624304490004737  0.31369652485807525  0.5756930634091758  1.0000
  H   H510      1.0  0.565034797969429  0.303657579010702  0.61267656546234  1.0000
  H   H511      1.0  0.4920490481188613  0.27625656267732507  0.5708580371519179  1.0000
  H   H512      1.0  0.5141224896711939  0.3173590545425266  0.5604435189002893  1.0000
  H   H513      1.0  0.48083790954406  0.303991480488946  0.5853938928529064  1.0000
  H   H514      1.0  0.4939408647879647  0.26166001792261034  0.6237497606487286  1.0000
  H   H515      1.0  0.48502925275538294  0.2919571190831443  0.6352268716937144  1.0000
  H   H516      1.0  0.5203830293050598  0.2923981618528968  0.6478989657363421  1.0000
  N   N28       1.0  0.835703089531044  0.33503977543472324  0.9041660951384195  1.0000
  C   C397      1.0  0.8448441459048924  0.31645608429262795  0.9231435744635562  1.0000
  C   C398      1.0  0.804720530333945  0.31314632924600083  0.8905955316363353  1.0000
  C   C399      1.0  0.8606162199001108  0.3511339572981903  0.8813562557124095  1.0000
  C   C400      1.0  0.8326331100138772  0.35924336685133945  0.9216773469607972  1.0000
  H   H517      1.0  0.8671395130072584  0.3321839237178313  0.9351790496711185  1.0000
  H   H518      1.0  0.8485044264885301  0.29865205509104686  0.9106227086776617  1.0000
  H   H519      1.0  0.8256944194989757  0.30278885494595476  0.9394944669631232  1.0000
  H   H520      1.0  0.797159112785056  0.3260780614374909  0.8756776395189476  1.0000
  H   H521      1.0  0.80594801300306  0.2939387626238155  0.8779878466670958  1.0000
  H   H522      1.0  0.7853275116189531  0.3007944749760475  0.9072767925561662  1.0000
  H   H523      1.0  0.854629004251003  0.36558154080044253  0.8667036898514281  1.0000
  H   H524      1.0  0.8633186614947386  0.3333833338701474  0.867743155452178  1.0000
  H   H525      1.0  0.8843409573206702  0.36748893367032287  0.890985708739112  1.0000
  H   H526      1.0  0.8253642614594945  0.37356770494984004  0.9082663288679513  1.0000
  H   H527      1.0  0.8556101631222195  0.37617463304907983  0.9322462960756187  1.0000
  H   H528      1.0  0.8144804377028335  0.3478654346925674  0.939500716427944  1.0000
  N   N29       1.0  0.968674469248503  0.2712861086878579  0.32472688043352743  1.0000
  C   C401      1.0  0.9594295910467303  0.28583693473485106  0.3486359999239089  1.0000
  C   C402      1.0  0.9546757696891806  0.2740320119920695  0.297373208961452  1.0000
  C   C403      1.0  0.9565384554744527  0.23711578413605372  0.33130344736478157  1.0000
  C   C404      1.0  0.003968921001190839  0.288119524925012  0.32156149797298467  1.0000
  H   H529      1.0  0.9695590521398049  0.2841766084248365  0.3696233794194912  1.0000
  H   H530      1.0  0.932905350420603  0.27352480908998594  0.35166802465864916  1.0000
  H   H531      1.0  0.9677735415686882  0.311504857577712  0.34426954702482476  1.0000
  H   H532      1.0  0.9604143411521636  0.26250244938488615  0.2790159627888027  1.0000
  H   H533      1.0  0.9281243571359158  0.2621721988941461  0.299233486934832  1.0000
  H   H534      1.0  0.9636978061837516  0.2994412693531315  0.2913323589955963  1.0000
  H   H535      1.0  0.9627307241748222  0.2252477605248935  0.31359237242444177  1.0000
  H   H536      1.0  0.9299505133169255  0.22377891870330147  0.3339305759853813  1.0000
  H   H537      1.0  0.9666241998821828  0.23401872953427788  0.3517396728663886  1.0000
  H   H538      1.0  0.015399380637731053  0.28580640837168614  0.3414650413352676  1.0000
  H   H539      1.0  0.013984067382618148  0.31407246586772775  0.3170987874008347  1.0000
  H   H540      1.0  0.011699160353283444  0.27829765905811704  0.30320715040239843  1.0000
  N   N30       1.0  0.29327263535169074  0.9085369757897158  0.1715624384851067  1.0000
  C   C405      1.0  0.2996737208028615  0.889801053172803  0.14960707137836385  1.0000
  C   C406      1.0  0.29909113184219077  0.9003507706305698  0.20083015636552112  1.0000
  C   C407      1.0  0.2595798559618484  0.9007344523296577  0.16976778061683168  1.0000
  C   C408      1.0  0.31447200341204656  0.9431447017990269  0.16619583377456015  1.0000
  H   H541      1.0  0.2944952114279149  0.8944765583588128  0.1272781214143119  1.0000
  H   H542      1.0  0.28432280084366146  0.8636016632296509  0.15360497638711815  1.0000
  H   H543      1.0  0.3250309135230051  0.8954234213248639  0.1499111203056413  1.0000
  H   H544      1.0  0.2834145322922525  0.8743155536948485  0.20552026604246368  1.0000
  H   H545      1.0  0.3243480839889944  0.9061450391524838  0.20316611743227556  1.0000
  H   H546      1.0  0.29401185941037045  0.9137453803199747  0.21796307921910585  1.0000
  H   H547      1.0  0.2543483645830111  0.9157966440516745  0.1847585919159291  1.0000
  H   H548      1.0  0.24302127310065955  0.8753839026150135  0.17585577233115982  1.0000
  H   H549      1.0  0.25349856173978824  0.9044431916513128  0.14749208267256525  1.0000
  H   H550      1.0  0.31001213819301676  0.9576864573840554  0.1826400413991529  1.0000
  H   H551      1.0  0.31037611799445075  0.9501591267501023  0.1444240336729422  1.0000
  H   H552      1.0  0.34015886539611473  0.9500324393761023  0.16738781029517846  1.0000
  N   N31       1.0  0.8802410837301734  0.5484973339071856  0.06749311782884022  1.0000
  C   C409      1.0  0.8592760525777768  0.5528085136818133  0.08868888022330282  1.0000
  C   C410      1.0  0.8677994252710554  0.5139545212780555  0.06253294251207626  1.0000
  C   C411      1.0  0.9130298149074993  0.5632178528215959  0.07888261033986572  1.0000
  C   C412      1.0  0.8809086365305124  0.564126550261398  0.03980830156375467  1.0000
  H   H553      1.0  0.8681180329734649  0.5786244471622103  0.09301213544395462  1.0000
  H   H554      1.0  0.8577064962488763  0.541017496190696  0.10979341460763524  1.0000
  H   H555      1.0  0.8344746873233251  0.5425811515157482  0.08050750901695629  1.0000
  H   H556      1.0  0.8828631564694198  0.5098330743846157  0.04637426654598476  1.0000
  H   H557      1.0  0.8668166722795682  0.5012543309353803  0.08290940449910046  1.0000
  H   H558      1.0  0.8431688896805591  0.502119877865511  0.053701314437902936  1.0000
  H   H559      1.0  0.9230766474904172  0.5893100553980332  0.0827715308537217  1.0000
  H   H560      1.0  0.9294295020986221  0.5603970347407555  0.06334152250280164  1.0000
  H   H561      1.0  0.9133953000844465  0.5520585837957114  0.09983287822057037  1.0000
  H   H562      1.0  0.8959410913868227  0.560904615855058  0.02297049498698842  1.0000
  H   H563      1.0  0.8899089791759972  0.5901982268427598  0.042634793771041894  1.0000
  H   H564      1.0  0.8565441974019734  0.5537430235939523  0.030847023980645916  1.0000
  N   N32       1.0  0.9194842031995158  0.2547824867672627  0.15243672692010493  1.0000
  C   C413      1.0  0.9055714588951262  0.21991168972789144  0.15641991808635056  1.0000
  C   C414      1.0  0.9136972304313832  0.26862674315788876  0.17902839832036146  1.0000
  C   C415      1.0  0.9043106039825757  0.26090570151927717  0.12756381498370215  1.0000
  C   C416      1.0  0.9543368880273526  0.26961570970321536  0.14683195526884085  1.0000
  H   H565      1.0  0.8798066555707998  0.20827330552177228  0.16277689560845549  1.0000
  H   H566      1.0  0.9178304091735549  0.21451124469905616  0.17388302789772056  1.0000
  H   H567      1.0  0.9075928638964701  0.20817105766813687  0.13625992389005712  1.0000
  H   H568      1.0  0.92346403357509  0.29484425423790056  0.1767821962717615  1.0000
  H   H569      1.0  0.8875811887970256  0.25749650923285194  0.18421010446007027  1.0000
  H   H570      1.0  0.925140076939223  0.2646959127254063  0.19813052636013015  1.0000
  H   H571      1.0  0.9145343726766183  0.2869824735627652  0.12363037380305164  1.0000
  H   H572      1.0  0.8781580586896374  0.25057509459735544  0.13141564635646233  1.0000
  H   H573      1.0  0.9073484820828617  0.250050253487824  0.10720651101401737  1.0000
  H   H574      1.0  0.9657084956735498  0.2959556400406269  0.1437907033359091  1.0000
  H   H575      1.0  0.9595062963532026  0.25947695608124094  0.1270493979886704  1.0000
  H   H576      1.0  0.9664710400211076  0.2654345157077772  0.1652881925856916  1.0000
  N   N33       1.0  0.9586538750391245  0.14219607239254853  0.7420519644387653  1.0000
  C   C417      1.0  0.9465230684921976  0.1380519848272048  0.7723419190963502  1.0000
  C   C418      1.0  0.9940522167189455  0.16098864103881305  0.7416868836987314  1.0000
  C   C419      1.0  0.9460854771383136  0.1594080736353066  0.7252839136638444  1.0000
  C   C420      1.0  0.9477899034790929  0.11044217327837363  0.7288869817775769  1.0000
  H   H577      1.0  0.9198087355583886  0.1245279480875587  0.7733127407691383  1.0000
  H   H578      1.0  0.9545196081719479  0.16158684962315145  0.7830319191344721  1.0000
  H   H579      1.0  0.9550504119639227  0.12466983678953049  0.7855922490630193  1.0000
  H   H580      1.0  0.004011012990599916  0.16455166592463405  0.7191551650400713  1.0000
  H   H581      1.0  0.0028112682838949965  0.18527634746863655  0.751100105750543  1.0000
  H   H582      1.0  0.004510736211036592  0.14901310256816294  0.7544298674085226  1.0000
  H   H583      1.0  0.9557541093625694  0.16439392025073574  0.702633612471158  1.0000
  H   H584      1.0  0.9526291578491083  0.18279360955120288  0.7354060692631368  1.0000
  H   H585      1.0  0.9195243235661388  0.14547507912037985  0.7241796712871098  1.0000
  H   H586      1.0  0.9560611293070155  0.11265225059764043  0.7058696708182677  1.0000
  H   H587      1.0  0.9210902126509973  0.09578335649321082  0.7291361434667217  1.0000
  H   H588      1.0  0.9569225001161442  0.09674377308429692  0.7408634647536148  1.0000
  N   N34       1.0  0.6703030474358547  0.8485480990348495  0.4831321232180197  1.0000
  C   C421      1.0  0.6616055892722632  0.8513062397996517  0.4531243652248157  1.0000
  C   C422      1.0  0.6654954019757056  0.87064658296379  0.5022124526950136  1.0000
  C   C423      1.0  0.7041962588546373  0.8567054216990878  0.48365962468472024  1.0000
  C   C424      1.0  0.6497741679251975  0.815361758444271  0.49353198063491743  1.0000
  H   H589      1.0  0.6647451841544105  0.8347579602737472  0.438180249347355  1.0000
  H   H590      1.0  0.6763677232628841  0.8759972666433234  0.44441001591734897  1.0000
  H   H591      1.0  0.6359999656703245  0.8448704154432395  0.45194921600569915  1.0000
  H   H592      1.0  0.680484468414721  0.8959543365265141  0.4950875226196098  1.0000
  H   H593      1.0  0.6400436923816568  0.8649193061253183  0.5024436642316273  1.0000
  H   H594      1.0  0.6713988687646822  0.8688723285657886  0.5251438025167702  1.0000
  H   H595      1.0  0.7114040857080972  0.8547054682611329  0.5060182239313172  1.0000
  H   H596      1.0  0.7203855968770837  0.8815986040223168  0.4758912631199798  1.0000
  H   H597      1.0  0.70844947600971  0.840340124508324  0.46945195127900335  1.0000
  H   H598      1.0  0.6548477072999235  0.8123536279713731  0.5164110183827851  1.0000
  H   H599      1.0  0.6525862066294834  0.7978452904514983  0.4796852059391449  1.0000
  H   H600      1.0  0.6241469753243528  0.808453546809844  0.49283387845512944  1.0000
  N   N35       1.0  0.8315322321718488  0.9104026137563027  0.23256489936800584  1.0000
  C   C425      1.0  0.8660280622785979  0.9295483244472368  0.22515963763475594  1.0000
  C   C426      1.0  0.8152291624483613  0.9281129213697384  0.22396109620444962  1.0000
  C   C427      1.0  0.8273499147362714  0.9043434795083982  0.2641934261339582  1.0000
  C   C428      1.0  0.8175059378250112  0.8795443139418739  0.2169746133106794  1.0000
  H   H601      1.0  0.8699700068681293  0.9344351018898501  0.20141346855249523  1.0000
  H   H602      1.0  0.8789927598784764  0.9168308460085361  0.23146233431027013  1.0000
  H   H603      1.0  0.8773859939684191  0.9530596014866014  0.23648224581332877  1.0000
  H   H604      1.0  0.7892466040482198  0.9144903635893563  0.22957635361256243  1.0000
  H   H605      1.0  0.8252713312452534  0.9516808036332123  0.23507123402325658  1.0000
  H   H606      1.0  0.8172212825352115  0.9326619185751129  0.20015222553217202  1.0000
  H   H607      1.0  0.8015424690058965  0.8907714092607366  0.2705980663381125  1.0000
  H   H608      1.0  0.8384840989651324  0.9270268094277742  0.2767691203512894  1.0000
  H   H609      1.0  0.8379725112680203  0.8896488951841509  0.2713047332024874  1.0000
  H   H610      1.0  0.7915669008223646  0.8643997798912437  0.22223977591992816  1.0000
  H   H611      1.0  0.8290079735359641  0.8653543677320801  0.22314214592705156  1.0000
  H   H612      1.0  0.8199313738784126  0.8829913739301568  0.19302724738152494  1.0000
  N   N36       1.0  0.7691752039679114  0.10086666139236532  0.6915617164659135  1.0000
  C   C429      1.0  0.7591693190534725  0.1094856209435187  0.7191150079380589  1.0000
  C   C430      1.0  0.7539556302154594  0.06565746243895708  0.6894786095811164  1.0000
  C   C431      1.0  0.8043583305402299  0.1151438342311202  0.6907913583671801  1.0000
  C   C432      1.0  0.7593634650446484  0.11332307456840655  0.666902745583267  1.0000
  H   H613      1.0  0.7703516586707315  0.13594545874946826  0.7213985885179087  1.0000
  H   H614      1.0  0.7663431946208296  0.10065115842409873  0.7382168751547351  1.0000
  H   H615      1.0  0.7327642689763495  0.09927743375112931  0.7204487779105372  1.0000
  H   H616      1.0  0.7608828674190345  0.05831826674322196  0.6688759867461711  1.0000
  H   H617      1.0  0.7612654121489352  0.055641053554070764  0.707615165546387  1.0000
  H   H618      1.0  0.727363365767832  0.05397878336211394  0.6903299311795462  1.0000
  H   H619      1.0  0.812839008177405  0.10867384972713551  0.6706175767885642  1.0000
  H   H620      1.0  0.8128061365767623  0.10704723551655063  0.7095319892109542  1.0000
  H   H621      1.0  0.8164818752009881  0.14171290425273247  0.6915636969284273  1.0000
  H   H622      1.0  0.7669699117551435  0.10775501418322607  0.6457392443093173  1.0000
  H   H623      1.0  0.7703800084903456  0.13987125647564821  0.6680481494433547  1.0000
  H   H624      1.0  0.7329390509763377  0.10306088963495222  0.6666817060622731  1.0000
  N   N37       1.0  0.3885659423667939  0.5184715512569412  0.5435231633393312  1.0000
  C   C433      1.0  0.41917432824226  0.5250158729414993  0.5562526305574869  1.0000
  C   C434      1.0  0.3663959752813303  0.483536598907841  0.5423522999807597  1.0000
  C   C435      1.0  0.3945714536406305  0.531890219506497  0.5138337405172233  1.0000
  C   C436      1.0  0.37404071716174175  0.5334759054285155  0.5616425154769535  1.0000
  H   H625      1.0  0.43631306509483614  0.5512443583582058  0.5574624607294398  1.0000
  H   H626      1.0  0.4309052051792954  0.5141885733828397  0.5430350712810421  1.0000
  H   H627      1.0  0.41547306718343385  0.5151530725009477  0.5786615379001087  1.0000
  H   H628      1.0  0.3433236971478924  0.4779099734804816  0.5322671750279472  1.0000
  H   H629      1.0  0.37673229292730814  0.47120721065833254  0.529389068011982  1.0000
  H   H630      1.0  0.3602797301310103  0.4727286303506137  0.5644748557980052  1.0000
  H   H631      1.0  0.3720134834743817  0.5277600039445005  0.5037452668221508  1.0000
  H   H632      1.0  0.405122563158458  0.5208885061531412  0.4993350203853174  1.0000
  H   H633      1.0  0.4113496026000174  0.5582108525138894  0.5137309138991742  1.0000
  H   H634      1.0  0.3507857519513692  0.5286716343480871  0.5527616313192788  1.0000
  H   H635      1.0  0.3898664028252038  0.5599094116156832  0.5628518532423885  1.0000
  H   H636      1.0  0.3688773277105548  0.5237505914365681  0.5841698904088725  1.0000
  N   N38       1.0  0.6668663091576411  0.3476773093386599  0.9741984677078643  1.0000
  C   C437      1.0  0.6971955581344665  0.3750343916085083  0.9843351361768572  1.0000
  C   C438      1.0  0.6472213750856479  0.3291552995351487  0.9995027984560976  1.0000
  C   C439      1.0  0.6738464786538353  0.32679781982157075  0.9555028211087425  1.0000
  C   C440      1.0  0.6490418115427086  0.3595845768590381  0.957461699706088  1.0000
  H   H637      1.0  0.7124331485566985  0.38999190184342003  0.965894569443907  1.0000
  H   H638      1.0  0.7113360357161298  0.36686136005843184  0.9968813689124834  1.0000
  H   H639      1.0  0.6926814104734088  0.39102194588935846  0.9988180848062344  1.0000
  H   H640      1.0  0.6421532152911411  0.3442699620456289  0.014508032849329444  1.0000
  H   H641      1.0  0.6236926008285671  0.30903636292793984  0.992652130786682  1.0000
  H   H642      1.0  0.6594032967143143  0.3188289495258738  0.012134350073558009  1.0000
  H   H643      1.0  0.6513521452161191  0.30628963630378575  0.94711325667202  1.0000
  H   H644      1.0  0.6864708173802071  0.31659228324501903  0.9676602132246056  1.0000
  H   H645      1.0  0.689094693010778  0.3400733140564846  0.9364362643199752  1.0000
  H   H646      1.0  0.6627472359221297  0.37311750602403876  0.937826912020744  1.0000
  H   H647      1.0  0.6441001348524079  0.37598351729415735  0.9707019342960043  1.0000
  H   H648      1.0  0.625461386663994  0.33960323804331716  0.9503535721248495  1.0000
  N   N39       1.0  0.23918403579682035  0.966387627354717  0.8146189111085301  1.0000
  C   C441      1.0  0.252020243013303  0.9536961492687493  0.792075959878608  1.0000
  C   C442      1.0  0.2617530988046248  0.9790125084659526  0.8389228193793279  1.0000
  C   C443      1.0  0.20780621443472486  0.9404031308657672  0.8252402243234124  1.0000
  C   C444      1.0  0.235157812803044  0.9923089066572838  0.8021035546438766  1.0000
  H   H649      1.0  0.23537675847632694  0.9436417862961569  0.7735907154246836  1.0000
  H   H650      1.0  0.255562587014816  0.9342030617962841  0.8006923977360476  1.0000
  H   H651      1.0  0.27554989445196965  0.9726456110285858  0.7833148415909735  1.0000
  H   H652      1.0  0.25283049214017017  0.9887078691813633  0.8564579165056324  1.0000
  H   H653      1.0  0.265306831529107  0.9599050229323765  0.8486279214142356  1.0000
  H   H654      1.0  0.2856554798707566  0.9986675445517875  0.8315280336107115  1.0000
  H   H655      1.0  0.19749902265202662  0.9489248760401369  0.8425629502871546  1.0000
  H   H656      1.0  0.2098215419180774  0.9200845814837124  0.8342428404944505  1.0000
  H   H657      1.0  0.1902094790724508  0.930616714389317  0.8073790692427829  1.0000
  H   H658      1.0  0.22647916100285403  0.0032325872176939274  0.8186662702603507  1.0000
  H   H659      1.0  0.21741118972110687  0.9831552416193782  0.7843196809916189  1.0000
  H   H660      1.0  0.2580910856618763  0.011738672183934682  0.7926518912818136  1.0000
  N   N40       1.0  0.9261416583537163  0.6918706255839935  0.3456749271256995  1.0000
  C   C445      1.0  0.9604395147560466  0.7018792177895249  0.34779995705825806  1.0000
  C   C446      1.0  0.9228312600449493  0.7194215286743373  0.3365897071045177  1.0000
  C   C447      1.0  0.9098928326985649  0.6799534490103316  0.374150434707529  1.0000
  C   C448      1.0  0.9112764297690265  0.6661676503430387  0.323908327322011  1.0000
  H   H661      1.0  0.9725065737908842  0.7212119704311957  0.364089598787095  1.0000
  H   H662      1.0  0.9731208902127982  0.7110416496968891  0.32648966634289417  1.0000
  H   H663      1.0  0.9636484442613085  0.6814432681021653  0.3542456918263854  1.0000
  H   H664      1.0  0.897107882570528  0.7126032030813507  0.33508359933870435  1.0000
  H   H665      1.0  0.934112548253801  0.7395498907152321  0.3522298494040335  1.0000
  H   H666      1.0  0.9341703917857819  0.7285411924706308  0.31482655222443456  1.0000
  H   H667      1.0  0.8841882869659728  0.673183781972489  0.3732720967128106  1.0000
  H   H668      1.0  0.9209727659759767  0.6984228747922143  0.3913324657842609  1.0000
  H   H669      1.0  0.910613047407646  0.6582695993648896  0.3812251100497508  1.0000
  H   H670      1.0  0.9242242497726473  0.6735929332427393  0.30261497618790706  1.0000
  H   H671      1.0  0.8861448437065319  0.6599218087208618  0.3200729796967188  1.0000
  H   H672      1.0  0.9110411515753782  0.6439912918935108  0.3308656245890833  1.0000
  N   N41       1.0  0.785681223872539  0.6771928254867535  0.8363851698187879  1.0000
  C   C449      1.0  0.8154587107497017  0.7084676501037586  0.8336620280628719  1.0000
  C   C450      1.0  0.7577240426560585  0.6820340238101295  0.8356139897495346  1.0000
  C   C451      1.0  0.7855979143967281  0.6618191047040509  0.8640862732469173  1.0000
  C   C452      1.0  0.7840570940510431  0.656482098340893  0.8119518033342628  1.0000
  H   H673      1.0  0.817426354940513  0.7249191573771144  0.8515521923898045  1.0000
  H   H674      1.0  0.8164330088702274  0.7205104652346898  0.812782048542883  1.0000
  H   H675      1.0  0.8370242624208204  0.7056100116983006  0.8341818178407806  1.0000
  H   H676      1.0  0.7348515618840057  0.6588447279638532  0.8372468246718335  1.0000
  H   H677      1.0  0.7580635879008372  0.6975524962722793  0.8537476378569143  1.0000
  H   H678      1.0  0.7574320162357941  0.6937898310194298  0.8149091734499282  1.0000
  H   H679      1.0  0.763976339941072  0.6376586288788413  0.8665196670310924  1.0000
  H   H680      1.0  0.7861624584877291  0.6764281904741335  0.8830924217262689  1.0000
  H   H681      1.0  0.8068191837985396  0.6584910860473165  0.8654515395481207  1.0000
  H   H682      1.0  0.7630961043410199  0.6319084164871118  0.8141675499935747  1.0000
  H   H683      1.0  0.8059608801253104  0.6543332451721298  0.8105567823030229  1.0000
  H   H684      1.0  0.782020944647671  0.6663480750536307  0.790844342211216  1.0000
  N   N42       1.0  0.33093427235395306  0.85219315447398  0.5904386794868804  1.0000
  C   C453      1.0  0.3090038648482672  0.8185066999137713  0.5825807644554671  1.0000
  C   C454      1.0  0.35891035386638576  0.8545133854650337  0.6053605691391412  1.0000
  C   C455      1.0  0.313841257065293  0.8634922011195207  0.6098575221327368  1.0000
  C   C456      1.0  0.34187214578437625  0.8720605383907837  0.5638420957042253  1.0000
  H   H685      1.0  0.2885662963425594  0.8160712986581151  0.5697809353129151  1.0000
  H   H686      1.0  0.2992740241235271  0.802995095804466  0.6021525611601999  1.0000
  H   H687      1.0  0.3212790230315988  0.808596892539952  0.5690987259292938  1.0000
  H   H688      1.0  0.3760240186178466  0.8795996459398354  0.6117206727557513  1.0000
  H   H689      1.0  0.351488291638247  0.8394832413404131  0.6253387161813138  1.0000
  H   H690      1.0  0.3722226724727435  0.8461715893974988  0.5910183417293022  1.0000
  H   H691      1.0  0.3294755629292594  0.8889400212127143  0.6161219398963707  1.0000
  H   H692      1.0  0.305228344157902  0.84902777125179  0.6301881803212065  1.0000
  H   H693      1.0  0.2923439543392185  0.86154266383863  0.5992138583033847  1.0000
  H   H694      1.0  0.35907037717772444  0.8975504953452074  0.5688286493574698  1.0000
  H   H695      1.0  0.32139295006396723  0.8712761334751385  0.5522772412506306  1.0000
  H   H696      1.0  0.3541148659337356  0.8635560720554764  0.5483787836584093  1.0000
  N   N43       1.0  0.2724101475633855  0.7415021249646423  0.37793770197241583  1.0000
  C   C457      1.0  0.2558456205627639  0.7270829498801182  0.3505675181332252  1.0000
  C   C458      1.0  0.2845186660653528  0.721521852704897  0.39055083009756847  1.0000
  C   C459      1.0  0.24966659909830177  0.7434610111527344  0.3986437065865991  1.0000
  C   C460      1.0  0.29954637668141065  0.7740032772267967  0.3720640201442578  1.0000
  H   H697      1.0  0.2722114187149917  0.7250356345891196  0.33443741893276147  1.0000
  H   H698      1.0  0.24666191934180073  0.7418592684731287  0.3405203736223714  1.0000
  H   H699      1.0  0.2350038035303881  0.7026948491127428  0.35433976068807993  1.0000
  H   H700      1.0  0.2967953086161511  0.7316616103996201  0.41143366866597236  1.0000
  H   H701      1.0  0.2646586766442093  0.696871038048599  0.3954988187331056  1.0000
  H   H702      1.0  0.3019331346470823  0.7196055272438981  0.37568651186492164  1.0000
  H   H703      1.0  0.26184955329634235  0.755852218002247  0.4188350649273491  1.0000
  H   H704      1.0  0.22982119061489495  0.7193229098297046  0.40504992317752797  1.0000
  H   H705      1.0  0.23898305391621572  0.7572253896765199  0.3894376132799824  1.0000
  H   H706      1.0  0.3127747597028871  0.7854873050057449  0.3922675638755154  1.0000
  H   H707      1.0  0.29118646046407154  0.7900196766070705  0.36328409170069254  1.0000
  H   H708      1.0  0.3170183423850109  0.7736434622134849  0.3561798391203499  1.0000
  N   N44       1.0  0.9679794494528031  0.7392581571684814  0.8214795883876761  1.0000
  C   C461      1.0  0.9658127227688154  0.7687416195446075  0.8196703783726336  1.0000
  C   C462      1.0  0.9555620280798102  0.723828003549341  0.8500589899909842  1.0000
  C   C463      1.0  0.0017425112395113018  0.747396995079115  0.8174942871873464  1.0000
  C   C464      1.0  0.9485376813915232  0.7169000872887322  0.798496005903519  1.0000
  H   H709      1.0  0.9404940992311911  0.7633385470795899  0.8212183899448656  1.0000
  H   H710      1.0  0.9757292220289444  0.7813452748085965  0.7986115309518115  1.0000
  H   H711      1.0  0.9794157941838505  0.7858755195084896  0.8372133962721049  1.0000
  H   H712      1.0  0.9567227844329573  0.7014116681298417  0.8520295864080446  1.0000
  H   H713      1.0  0.9693601266776987  0.7399554502278176  0.8681414039849971  1.0000
  H   H714      1.0  0.9299013300693948  0.7169548508810911  0.8532707328347785  1.0000
  H   H715      1.0  0.004201873469383388  0.7256497471227598  0.8182909997796592  1.0000
  H   H716      1.0  0.017202787175524703  0.7642226052025618  0.8344998719576849  1.0000
  H   H717      1.0  0.011617340398726972  0.7591130861300726  0.7960322832393752  1.0000
  H   H718      1.0  0.9486938793301973  0.6939131086723908  0.7994832004422745  1.0000
  H   H719      1.0  0.9572450359967137  0.7273576847791302  0.7766143222530393  1.0000
  H   H720      1.0  0.9232047073678267  0.7110771734805228  0.8003635186219268  1.0000
  N   N45       1.0  0.3368201073750178  0.10749369204677375  0.6453627737938856  1.0000
  C   C465      1.0  0.3638833505631862  0.11638832842456512  0.6649916838170756  1.0000
  C   C466      1.0  0.33823795892729625  0.136829367010868  0.6340822867649182  1.0000
  C   C467      1.0  0.30631237760262264  0.08815635851977266  0.6615475638757651  1.0000
  C   C468      1.0  0.3389497038586628  0.0886337567188739  0.6208821619204523  1.0000
  H   H721      1.0  0.36310917256092046  0.0948909205672645  0.6746676562318918  1.0000
  H   H722      1.0  0.363196198139432  0.13104109090918367  0.6834027521269392  1.0000
  H   H723      1.0  0.3873693537064739  0.13060006947060215  0.6535172065187943  1.0000
  H   H724      1.0  0.31793688112810303  0.13116980196886358  0.619527133481384  1.0000
  H   H725      1.0  0.33736146363125524  0.15201301818282473  0.6519968945250785  1.0000
  H   H726      1.0  0.36082564532993316  0.15184207876877417  0.621507619398713  1.0000
  H   H727      1.0  0.3042303114985978  0.10154270436555544  0.6804719927986104  1.0000
  H   H728      1.0  0.30447136111140854  0.06581995169675622  0.6703553680812033  1.0000
  H   H729      1.0  0.28523759849708663  0.08119224692386116  0.6476182397825263  1.0000
  H   H730      1.0  0.3617354724413131  0.10264415894971375  0.6082297669328138  1.0000
  H   H731      1.0  0.31884653986821754  0.08146142972079086  0.6056368827286156  1.0000
  H   H732      1.0  0.33811877266782875  0.06640998216637305  0.6286802144992667  1.0000
  N   N46       1.0  0.09516494579076218  0.8150464272145257  0.32888185365569617  1.0000
  C   C469      1.0  0.10319201146339951  0.7989028493383582  0.305601106043312  1.0000
  C   C470      1.0  0.1209835846528522  0.8487713145478434  0.3309584944859276  1.0000
  C   C471      1.0  0.0919119008861804  0.7986134396830252  0.3567409224716792  1.0000
  C   C472      1.0  0.06477194767363237  0.8139622932177204  0.3220097623853209  1.0000
  H   H733      1.0  0.083390929380595  0.774059248198979  0.30193988202765404  1.0000
  H   H734      1.0  0.12485094941555919  0.7974273870342721  0.3106842353201318  1.0000
  H   H735      1.0  0.10827239290125434  0.812140252154369  0.28479370851040475  1.0000
  H   H736      1.0  0.11645838488569726  0.8614242215266894  0.34908469830333316  1.0000
  H   H737      1.0  0.14464277459406816  0.8505484346244792  0.3346398655777031  1.0000
  H   H738      1.0  0.12317010892333213  0.8621474220897576  0.3106241555300959  1.0000
  H   H739      1.0  0.11483121251450168  0.7995375511125655  0.3623140293240464  1.0000
  H   H740      1.0  0.07304957382109012  0.7729581362851279  0.3557473140815163  1.0000
  H   H741      1.0  0.08570405303987805  0.8099959728470176  0.37488668264446684  1.0000
  H   H742      1.0  0.05767688290288442  0.8256362346740291  0.3391963214438794  1.0000
  H   H743      1.0  0.04487448712245068  0.7889298950287298  0.3193355230469835  1.0000
  H   H744      1.0  0.06699210904237285  0.8266596132887077  0.30119028552807653  1.0000
  N   N47       1.0  0.2281762302687398  0.1211822773405815  0.2932480413570978  1.0000
  C   C473      1.0  0.2422598721868928  0.14792108769157583  0.31416842444197207  1.0000
  C   C474      1.0  0.23924138271120918  0.13369619532282265  0.26355508866073196  1.0000
  C   C475      1.0  0.1928762824737029  0.10544321880579545  0.29492786526996845  1.0000
  C   C476      1.0  0.23833574644194105  0.09770462424517828  0.30025518520306865  1.0000
  H   H745      1.0  0.23543580917876472  0.1663214699944097  0.3093038273741947  1.0000
  H   H746      1.0  0.2689263904948164  0.1604251619433584  0.3132787103140706  1.0000
  H   H747      1.0  0.23454590704868652  0.13950662956246265  0.33684854477459986  1.0000
  H   H748      1.0  0.22945097141973433  0.11422593719893524  0.24709774894416836  1.0000
  H   H749      1.0  0.23251694475390647  0.15189563904999084  0.2575769212190334  1.0000
  H   H750      1.0  0.265691574662572  0.14556143927062343  0.26156837567270896  1.0000
  H   H751      1.0  0.18163619054267213  0.08520450424196373  0.279306609080761  1.0000
  H   H752      1.0  0.1844988977457038  0.12255766854731423  0.28966547912058827  1.0000
  H   H753      1.0  0.18364240526136608  0.0956869978843395  0.3170386248992369  1.0000
  H   H754      1.0  0.22835726527874703  0.0772834657643612  0.2847458375782708  1.0000
  H   H755      1.0  0.23060118801097051  0.0878065455576215  0.32253196219808195  1.0000
  H   H756      1.0  0.2648830502738991  0.10873333329858295  0.29885153712325063  1.0000
  N   N48       1.0  0.31638056109122464  0.528474866409581  0.8769017605633568  1.0000
  C   C477      1.0  0.32079128361888637  0.5101940904127655  0.9002185623200347  1.0000
  C   C478      1.0  0.28197030940085555  0.5136156403874075  0.8702978221227635  1.0000
  C   C479      1.0  0.3342866289545276  0.528238068559939  0.8505863849734943  1.0000
  C   C480      1.0  0.3284657970154923  0.5618010514993799  0.8865619856003437  1.0000
  H   H757      1.0  0.346296666436909  0.5216004709578647  0.9067753531992382  1.0000
  H   H758      1.0  0.31326804041039497  0.4853193922325345  0.8932960639286657  1.0000
  H   H759      1.0  0.3064815377171902  0.5087247921560547  0.9199929685858415  1.0000
  H   H760      1.0  0.2775873770697059  0.5271189663960145  0.8532356058190084  1.0000
  H   H761      1.0  0.272269827695888  0.4886778422173222  0.8623137895426909  1.0000
  H   H762      1.0  0.26754866519956355  0.5125634296335265  0.8899097880692823  1.0000
  H   H763      1.0  0.3603104951470565  0.5389816662026227  0.8549204835393427  1.0000
  H   H764      1.0  0.3316465492541856  0.5419557395073296  0.8325594647823058  1.0000
  H   H765      1.0  0.3254825890472731  0.5033457132430893  0.842688123625724  1.0000
  H   H766      1.0  0.3250363183611927  0.5762595791537843  0.8698013695422669  1.0000
  H   H767      1.0  0.35447973157998364  0.5738478518238866  0.8914399740562191  1.0000
  H   H768      1.0  0.31593375741448065  0.5626253600564792  0.9068395648678035  1.0000
