data_image0
_chemical_formula_structural       FeS2FeS2FeSFeS3FeS2FeS2FeSFeS3FeS2FeS2FeSFeS3FeS2FeS2FeSFeS3FeS2FeS2FeSFeS3FeS2FeS2FeSFeS3FeS2FeS2FeSFeS3FeS2FeS2FeSFeS3FeS2FeS2FeSFeS3FeS2FeS2FeSFeS3FeS2FeS2FeSFeS3FeS2FeS2FeSFeS3FeS2FeS2FeSFeS3FeS2FeS2FeSFeS3FeS2FeS2FeSFeS3FeS2FeS2FeSFeS3FeS2FeS2FeSFeS3FeS2FeS2FeSFeS3C6H4C6H4C6H4C6H4C6H4C6H4C6H4C6H4C6H4C6H4C6H4C6H4C6H4C6H4C6H4C6H4C6H4C6H4C6H4C6H4C6H4C6H4C6H4C6H4C6H4C6H4C6H4C6H4C6H4C6H4C6H4C6H4C6H4C6H4C6H4C6H4NC4H12NC4H12NC4H12NC4H12NC4H12NC4H12NC4H12NC4H12NC4H12NC4H12NC4H12NC4H12NC4H12NC4H12NC4H12NC4H12NC4H12NC4H12NC4H12NC4H12NC4H12NC4H12NC4H12NC4H12NC4H12NC4H12NC4H12NC4H12NC4H12NC4H12NC4H12NC4H12NC4H12NC4H12NC4H12NC4H12
_chemical_formula_sum              "Fe72 S144 C360 H576 N36"
_cell_length_a       49.56227591506402
_cell_length_b       48.99401391808011
_cell_length_c       34.02581485755514
_cell_angle_alpha    91.3253660190411
_cell_angle_beta     86.9716284528103
_cell_angle_gamma    119.58846042386281

_space_group_name_H-M_alt    "P 1"
_space_group_IT_number       1

loop_
  _space_group_symop_operation_xyz
  'x, y, z'

loop_
  _atom_site_type_symbol
  _atom_site_label
  _atom_site_symmetry_multiplicity
  _atom_site_fract_x
  _atom_site_fract_y
  _atom_site_fract_z
  _atom_site_occupancy
  Fe  Fe1       1.0  0.765660727959056  0.2414905692182511  0.027745971021130373  1.0000
  S   S1        1.0  0.8063855555497348  0.2875997783859373  0.008321338284131397  1.0000
  S   S2        1.0  0.7749006404677797  0.2067022963473363  0.060151617952804895  1.0000
  Fe  Fe2       1.0  0.7215881339735252  0.2509966200914663  0.9754056205012901  1.0000
  S   S3        1.0  0.7602238117204542  0.2969576916359998  0.9518882701042283  1.0000
  S   S4        1.0  0.6760237798574612  0.23462200596056693  0.9459947955690892  1.0000
  Fe  Fe3       1.0  0.788880530488753  0.2727954476842901  0.9474174663188644  1.0000
  S   S5        1.0  0.8224163597583557  0.2777673558967764  0.8960046989606268  1.0000
  Fe  Fe4       1.0  0.7732828074528879  0.30664571773351784  0.014693148940772532  1.0000
  S   S6        1.0  0.7816019957838286  0.3513089459889766  0.04603401156040893  1.0000
  S   S7        1.0  0.749363837823916  0.22617189509908864  0.9661519152715923  1.0000
  S   S8        1.0  0.7333348751054772  0.26136497445351053  0.03891157821632635  1.0000
  Fe  Fe5       1.0  0.7552775166690986  0.5432003590858981  0.9413133631659654  1.0000
  S   S9        1.0  0.7370693346468459  0.5474645152922941  0.0022611372138812147  1.0000
  S   S10       1.0  0.7501157762167942  0.5682003686965877  0.8886429392973754  1.0000
  Fe  Fe6       1.0  0.7760690481921826  0.49802143267199667  0.9702265039001926  1.0000
  S   S11       1.0  0.7606544517432836  0.4998122742384525  0.03262388669483926  1.0000
  S   S12       1.0  0.797110277275598  0.4680841222244286  0.9495692915732622  1.0000
  Fe  Fe7       1.0  0.7177838197014723  0.49499982441644225  0.006414930080134829  1.0000
  S   S13       1.0  0.6736458431585514  0.4577829801160723  0.03769551129736626  1.0000
  Fe  Fe8       1.0  0.7813094302407048  0.5517685649784444  0.023406353281273364  1.0000
  S   S14       1.0  0.8171464564179391  0.5900643206047099  0.062015201201637594  1.0000
  S   S15       1.0  0.7321958298001828  0.49031233650803807  0.9442517837480656  1.0000
  S   S16       1.0  0.8004731410725222  0.5503919954634637  0.962083904431278  1.0000
  Fe  Fe9       1.0  0.485941065893098  0.24222240167674353  0.9383690865317039  1.0000
  S   S17       1.0  0.47524338406907984  0.27846452054059834  0.9641151947784192  1.0000
  S   S18       1.0  0.46939820016593536  0.21839078840728463  0.8792041228131507  1.0000
  Fe  Fe10      1.0  0.5296096914352263  0.25088370301411606  0.004643463965429362  1.0000
  S   S19       1.0  0.5215652582905186  0.28779603859911435  0.03514764117723046  1.0000
  S   S20       1.0  0.5613064027608798  0.23764694694503385  0.03484136290422368  1.0000
  Fe  Fe11      1.0  0.4711790994439056  0.2557563698748353  0.022879468849796192  1.0000
  S   S21       1.0  0.4270606638490247  0.24054700788592243  0.061886740465365665  1.0000
  Fe  Fe12      1.0  0.5264958985947993  0.30671390760445416  0.9740260699395715  1.0000
  S   S22       1.0  0.5558435382112528  0.35583476354657834  0.949297287950854  1.0000
  S   S23       1.0  0.4788726396333963  0.21751886321658168  0.9961753275335616  1.0000
  S   S24       1.0  0.5375902985338213  0.2718155765690356  0.9445807217496892  1.0000
  Fe  Fe13      1.0  0.2993028325825465  0.7840473214039742  0.9665809235497411  1.0000
  S   S25       1.0  0.28450993549921516  0.7671891113084669  0.0284498238516131  1.0000
  S   S26       1.0  0.348424295082618  0.8004380026653609  0.9420924791359817  1.0000
  Fe  Fe14      1.0  0.23511588561983165  0.773939112640949  0.948272607203196  1.0000
  S   S27       1.0  0.21567972832295582  0.7551546684982505  0.009746522508886857  1.0000
  S   S28       1.0  0.20190481056892848  0.7798178999959633  0.9092846906228672  1.0000
  Fe  Fe15      1.0  0.2599565113089273  0.7954126720485899  0.03069471703795612  1.0000
  S   S29       1.0  0.26912070785910563  0.8310115550784518  0.07998980861710171  1.0000
  Fe  Fe16      1.0  0.24197892274852925  0.7284308817748611  0.0021196080832062147  1.0000
  S   S30       1.0  0.23087662826186922  0.6820630846058959  0.029646016069046155  1.0000
  S   S31       1.0  0.2781279553849433  0.8155132820854096  0.9699823284653206  1.0000
  S   S32       1.0  0.2579112108925084  0.7438230298419106  0.9394092260420841  1.0000
  Fe  Fe17      1.0  0.23772969565075838  0.5321029843091373  0.9668455630969324  1.0000
  S   S33       1.0  0.28332269599880955  0.5421429748230272  0.9378027188819243  1.0000
  S   S34       1.0  0.21933629150659958  0.5615472823715922  0.9407444440442713  1.0000
  Fe  Fe18      1.0  0.23282430948593116  0.47710011682539527  0.015307716516141065  1.0000
  S   S35       1.0  0.27850763343419854  0.48415804925226813  0.9887875129065635  1.0000
  S   S36       1.0  0.2020887459592737  0.4328622421190427  0.052101857775795096  1.0000
  Fe  Fe19      1.0  0.2955703306890699  0.5358365444661551  0.9978969675860826  1.0000
  S   S37       1.0  0.33882871592409064  0.5704818005458703  0.02909503346460718  1.0000
  Fe  Fe20      1.0  0.2613864261743019  0.4897023344942954  0.9309257367899638  1.0000
  S   S38       1.0  0.2673656922863104  0.47083212146175607  0.8709203264183749  1.0000
  S   S39       1.0  0.25082283840881164  0.5284717166339163  0.028067180036942727  1.0000
  S   S40       1.0  0.21505671656526604  0.47998231540884095  0.9566488831034664  1.0000
  Fe  Fe21      1.0  0.4886450950021319  0.7838781978718066  0.010210708365409937  1.0000
  S   S41       1.0  0.4918056285274999  0.7709030005469775  0.9469866457507087  1.0000
  S   S42       1.0  0.45244467271535  0.7951019159835422  0.037413894218129906  1.0000
  Fe  Fe22      1.0  0.5372643529550547  0.7669882732183086  0.03612944923636581  1.0000
  S   S43       1.0  0.542953049334173  0.7519169325711734  0.9746354977797798  1.0000
  S   S44       1.0  0.5634148978844266  0.7576281752080851  0.08279005057408653  1.0000
  Fe  Fe23      1.0  0.5436987238639287  0.7953547365189966  0.9540829512999195  1.0000
  S   S45       1.0  0.5838766611494655  0.830071492085378  0.9135288007657064  1.0000
  Fe  Fe24      1.0  0.49088093357582685  0.7286029764349016  0.9730575860369957  1.0000
  S   S46       1.0  0.4625587866386288  0.6797198049930041  0.9476167420789543  1.0000
  S   S47       1.0  0.5406396828327894  0.8119638640562995  0.016035268187997387  1.0000
  S   S48       1.0  0.48504789513254554  0.7402377135716218  0.035703425275127286  1.0000
  Fe  Fe25      1.0  0.6780492316600175  0.8525070435749311  0.2568369253085913  1.0000
  S   S49       1.0  0.725028580206447  0.8595769611787657  0.2368976950057962  1.0000
  S   S50       1.0  0.6421046995425355  0.8527569322960065  0.2177869214199903  1.0000
  Fe  Fe26      1.0  0.6948284835031006  0.8624698909267582  0.344461288465842  1.0000
  S   S51       1.0  0.7433149269993339  0.871072902818061  0.3308500409651054  1.0000
  S   S52       1.0  0.6722949362680605  0.8658971045292471  0.4029294438523385  1.0000
  Fe  Fe27      1.0  0.7439363795762756  0.8999448492821776  0.2796376490596475  1.0000
  S   S53       1.0  0.7842926655099693  0.9465643426942919  0.2583695853878245  1.0000
  Fe  Fe28      1.0  0.7204407195786131  0.8302150031855986  0.2894090096510379  1.0000
  S   S54       1.0  0.7265831466528837  0.7873673928232209  0.29025665420252217  1.0000
  S   S55       1.0  0.6975283260875426  0.8945911577569501  0.29659455239471233  1.0000
  S   S56       1.0  0.6716117161021166  0.8198690029863033  0.3061946084614769  1.0000
  Fe  Fe29      1.0  0.6786750871207766  0.8414554214928384  0.7113393323626426  1.0000
  S   S57       1.0  0.7210655200572323  0.8808604246273998  0.7375386733607274  1.0000
  S   S58       1.0  0.6321721604266296  0.8098439837371555  0.7439321282399283  1.0000
  Fe  Fe30      1.0  0.7098914402992794  0.8539417215281075  0.6271457387846685  1.0000
  S   S59       1.0  0.7540800925597394  0.8946091225652091  0.647826519545339  1.0000
  S   S60       1.0  0.7107126492990657  0.8353842087854798  0.5651965137375685  1.0000
  Fe  Fe31      1.0  0.7478711181385567  0.8634887769677971  0.6990950628030559  1.0000
  S   S61       1.0  0.7904498771665788  0.8616457984988285  0.7166129697622139  1.0000
  Fe  Fe32      1.0  0.723372049484093  0.9081966597090997  0.6839777144041759  1.0000
  S   S62       1.0  0.7263125604786078  0.9558517272858701  0.6891274811809579  1.0000
  S   S63       1.0  0.7054340382090996  0.8219960198586237  0.6766947383885329  1.0000
  S   S64       1.0  0.6792692594338878  0.869667216461905  0.6595286078699574  1.0000
  Fe  Fe33      1.0  0.8956504231496386  0.16907176634194498  0.2628219732843538  1.0000
  S   S65       1.0  0.8922410672718599  0.20979002448669953  0.28846239878544633  1.0000
  S   S66       1.0  0.9415670735514258  0.17325531348604944  0.2407439986349017  1.0000
  Fe  Fe34      1.0  0.8274308443990657  0.12295538638442263  0.2838663621152341  1.0000
  S   S67       1.0  0.8201236322203797  0.1609608856125538  0.31230901916709525  1.0000
  S   S68       1.0  0.7835699592987748  0.0753800018478013  0.2841567774198287  1.0000
  Fe  Fe35      1.0  0.846825554754676  0.18944991186230112  0.2585026348184199  1.0000
  S   S69       1.0  0.8306319899753157  0.22014232100408246  0.22921627681815973  1.0000
  Fe  Fe36      1.0  0.8659809690145478  0.17730363639894903  0.3393912371507521  1.0000
  S   S70       1.0  0.8852634164120972  0.19549277060392367  0.39973427348439333  1.0000
  S   S71       1.0  0.8520380890415271  0.15071405368061613  0.22890264730241694  1.0000
  S   S72       1.0  0.8713192703190982  0.13723747928974375  0.3148115538063758  1.0000
  Fe  Fe37      1.0  0.8327933363687158  0.17253308316209562  0.7176553741894437  1.0000
  S   S73       1.0  0.8736264005497919  0.16670496311546584  0.7307233527109859  1.0000
  S   S74       1.0  0.7999885118610596  0.17234760574374905  0.7677360636209151  1.0000
  Fe  Fe38      1.0  0.8418045682594635  0.16479728023886964  0.6276937714386938  1.0000
  S   S75       1.0  0.8834092023634913  0.15891419173373209  0.6351155546228258  1.0000
  S   S76       1.0  0.8173599790511193  0.15452716054263319  0.5698575599072537  1.0000
  Fe  Fe39      1.0  0.8556021337633172  0.1277568264018234  0.6863434234209498  1.0000
  S   S77       1.0  0.8560402131759535  0.08212538769097336  0.6939748720114963  1.0000
  Fe  Fe40      1.0  0.897552301223321  0.1983314691943151  0.678550564333129  1.0000
  S   S78       1.0  0.945887781529685  0.2398236671249217  0.6842159520146297  1.0000
  S   S79       1.0  0.8131518814869106  0.13107523474312405  0.676500589431209  1.0000
  S   S80       1.0  0.8576389095067629  0.20680250017574633  0.6677967189396256  1.0000
  Fe  Fe41      1.0  0.1689369394255653  0.8499475988240273  0.26378486807282475  1.0000
  S   S81       1.0  0.16136834120946758  0.891445805411499  0.25768720775732257  1.0000
  S   S82       1.0  0.1667570347528713  0.8186743398987533  0.21180005550817962  1.0000
  Fe  Fe42      1.0  0.16102428539504418  0.8500716167137229  0.3546507337011698  1.0000
  S   S83       1.0  0.15202673523363877  0.8904620942755853  0.35424236201585446  1.0000
  S   S84       1.0  0.1634450076204319  0.8277244123915911  0.4112181351178671  1.0000
  Fe  Fe43      1.0  0.12236638684144492  0.8668335218659571  0.3031795054979504  1.0000
  S   S85       1.0  0.07760208240196158  0.8675876307871838  0.29538931850541683  1.0000
  Fe  Fe44      1.0  0.1917738666573746  0.9113865327574825  0.3093531783438035  1.0000
  S   S86       1.0  0.22786453311433388  0.9604460216613409  0.3262155362048605  1.0000
  S   S87       1.0  0.12800451607984506  0.8243738485154393  0.30686714725977854  1.0000
  S   S88       1.0  0.20258500350850062  0.8718913064612178  0.31217011327572014  1.0000
  Fe  Fe45      1.0  0.18462922034307855  0.8547219348594943  0.7150383793618739  1.0000
  S   S89       1.0  0.15194715551699534  0.8619466495994754  0.7560786821180973  1.0000
  S   S90       1.0  0.2180443126247789  0.8408574578055072  0.7397916951215213  1.0000
  Fe  Fe46      1.0  0.16241550025207044  0.8728717789813951  0.6416987987392143  1.0000
  S   S91       1.0  0.1281234784518928  0.8808967253552527  0.6789238248735018  1.0000
  S   S92       1.0  0.16162691216853264  0.8871108933233305  0.5788000885468458  1.0000
  Fe  Fe47      1.0  0.16678458998034856  0.9056571232761789  0.7203382184027063  1.0000
  S   S93       1.0  0.17695985169294495  0.9517215205543091  0.7491464778587434  1.0000
  Fe  Fe48      1.0  0.11704463166495302  0.8366700246584503  0.7101277775834979  1.0000
  S   S94       1.0  0.07014262213638492  0.7939661712514186  0.723138310186036  1.0000
  S   S95       1.0  0.20179502756457435  0.9001940843504472  0.681792934666028  1.0000
  S   S96       1.0  0.1488868383993969  0.8266942522982456  0.6705829099041931  1.0000
  Fe  Fe49      1.0  0.8407633618759455  0.6771295713980805  0.2695523421996881  1.0000
  S   S97       1.0  0.8787757956937916  0.7200432999437135  0.2387949036595741  1.0000
  S   S98       1.0  0.8070478419901145  0.6316062598375557  0.2391692177591183  1.0000
  Fe  Fe50      1.0  0.8500988947210397  0.7118886407013922  0.34973357052242876  1.0000
  S   S99       1.0  0.888575377094327  0.7569636855772932  0.3236883020161478  1.0000
  S   S100      1.0  0.8313030751865911  0.7157728386936638  0.4109285454874044  1.0000
  Fe  Fe51      1.0  0.8581524511058963  0.7461180216240906  0.2724039431075266  1.0000
  S   S101      1.0  0.8506199832601872  0.7834746476867471  0.24490909405786623  1.0000
  Fe  Fe52      1.0  0.9053515939176963  0.7266019072338759  0.29321460302701924  1.0000
  S   S102      1.0  0.9547119158243101  0.7350632638049395  0.2921096256115621  1.0000
  S   S103      1.0  0.8187019722267656  0.7030125365772193  0.29992639745653055  1.0000
  S   S104      1.0  0.8684477269051046  0.6816562734134044  0.3224017158030671  1.0000
  Fe  Fe53      1.0  0.8585938441198169  0.6880800320535813  0.7200365081051469  1.0000
  S   S105      1.0  0.8665613514575116  0.7360694923730509  0.736610267079491  1.0000
  S   S106      1.0  0.8588239070427417  0.6537104572064542  0.763634193002638  1.0000
  Fe  Fe54      1.0  0.8593627022259012  0.7002699843959588  0.6315062639896024  1.0000
  S   S107      1.0  0.866602028715608  0.7488893284215754  0.6411491068346743  1.0000
  S   S108      1.0  0.860508882782332  0.6764941366049171  0.5738240487981671  1.0000
  Fe  Fe55      1.0  0.9012849817631178  0.7536037461682599  0.6850369676842814  1.0000
  S   S109      1.0  0.9479204518810811  0.7982097187883195  0.6863353131739075  1.0000
  Fe  Fe56      1.0  0.8314358508054046  0.7274510927003995  0.6918094293677742  1.0000
  S   S110      1.0  0.7881656594189981  0.7311291953086194  0.7056472534529267  1.0000
  S   S111      1.0  0.8963451840741806  0.7065051280066506  0.6720196718853887  1.0000
  S   S112      1.0  0.8211476586534673  0.6780635558278035  0.678661650691602  1.0000
  Fe  Fe57      1.0  0.17986713533314885  0.3519843204772865  0.25950522129093934  1.0000
  S   S113      1.0  0.14439745031264067  0.3097707062027072  0.22785135872982618  1.0000
  S   S114      1.0  0.20874469807510107  0.40027636118837  0.23062055733104578  1.0000
  Fe  Fe58      1.0  0.16341906215945887  0.3165958969073184  0.33937628834320926  1.0000
  S   S115      1.0  0.12633500749028478  0.27232257919809477  0.3127329791040611  1.0000
  S   S116      1.0  0.1752521447987209  0.3104142782271676  0.4012473397504247  1.0000
  Fe  Fe59      1.0  0.16128741699432056  0.2827672950323353  0.26232049139366675  1.0000
  S   S117      1.0  0.16700440628828153  0.2421454489080186  0.2387063447397925  1.0000
  Fe  Fe60      1.0  0.11303705351038035  0.3032701206605264  0.28119948572018755  1.0000
  S   S118      1.0  0.0655211621851918  0.29892527223341464  0.27771868403788647  1.0000
  S   S119      1.0  0.1991993098412733  0.3254347549504385  0.29025845392651933  1.0000
  S   S120      1.0  0.14765361477698352  0.34716153183805365  0.31154239068894235  1.0000
  Fe  Fe61      1.0  0.1587728327354838  0.33823274626426353  0.7160136367282854  1.0000
  S   S121      1.0  0.15112009157610426  0.2890610171909976  0.7203463353140357  1.0000
  S   S122      1.0  0.1586212443173236  0.362468939353023  0.7742800915075604  1.0000
  Fe  Fe62      1.0  0.157815820733076  0.334775369681245  0.6251275088517029  1.0000
  S   S123      1.0  0.15134340928073903  0.2861402600344162  0.6236659270116945  1.0000
  S   S124      1.0  0.15545057854814778  0.35883510651239037  0.5700015624726882  1.0000
  Fe  Fe63      1.0  0.11627804055561256  0.27646476785208873  0.6738135355575933  1.0000
  S   S125      1.0  0.06985011332544483  0.2315756995681945  0.6708088787308554  1.0000
  Fe  Fe64      1.0  0.18669330729206182  0.303295783059064  0.6701550129925237  1.0000
  S   S126      1.0  0.22989916177002948  0.2985322708685207  0.6720099044956402  1.0000
  S   S127      1.0  0.120922105869582  0.3242599630570164  0.6731352668400682  1.0000
  S   S128      1.0  0.19617516529061704  0.3533166314178523  0.6679080477908589  1.0000
  Fe  Fe65      1.0  0.3477344288938355  0.18340362533409107  0.2726456332393112  1.0000
  S   S129      1.0  0.3074774356232705  0.17519679628298696  0.23747578202216554  1.0000
  S   S130      1.0  0.3969724809997112  0.20570720339621415  0.24446460159201344  1.0000
  Fe  Fe66      1.0  0.3071337356705099  0.16176704535122413  0.3505089531608868  1.0000
  S   S131      1.0  0.26433823675154694  0.1528933040947688  0.3197421843453402  1.0000
  S   S132      1.0  0.29578385317826944  0.1452518965485366  0.41455531166744036  1.0000
  Fe  Fe67      1.0  0.2805780053202083  0.13050584300052465  0.2728404295688214  1.0000
  S   S133      1.0  0.24808885384132406  0.08447492451699015  0.2435861990007824  1.0000
  Fe  Fe68      1.0  0.29515559115027884  0.19818202395572018  0.28771256443442395  1.0000
  S   S134      1.0  0.2896375751138745  0.24105976246428315  0.27982050496142896  1.0000
  S   S135      1.0  0.3218132062566763  0.13693464039212186  0.30468490045565844  1.0000
  S   S136      1.0  0.3369987682693914  0.2088993381531219  0.32170878765338484  1.0000
  Fe  Fe69      1.0  0.33866380599811247  0.19245058427658535  0.7282736981667443  1.0000
  S   S137      1.0  0.29108715747962377  0.1513000022268056  0.7416851011552965  1.0000
  S   S138      1.0  0.36414220321218144  0.22098426104043153  0.781791981242142  1.0000
  Fe  Fe70      1.0  0.33067470007093147  0.18287978724977744  0.6383341544429525  1.0000
  S   S139      1.0  0.28314778807457214  0.14077191510778894  0.6462383994098185  1.0000
  S   S140      1.0  0.3532109508765619  0.20561030469474711  0.5789903358633607  1.0000
  Fe  Fe71      1.0  0.27526901752564326  0.16966248984051605  0.6931678159342313  1.0000
  S   S141      1.0  0.22982286458287862  0.17048346418973806  0.6969385709717936  1.0000
  Fe  Fe72      1.0  0.30343544603664174  0.12648307419262445  0.693953759560336  1.0000
  S   S142      1.0  0.2997841660664117  0.07874219814271434  0.7012815592006097  1.0000
  S   S143      1.0  0.3216893519258836  0.2125696388850941  0.6828646671546845  1.0000
  S   S144      1.0  0.35216389606600174  0.1668197656046274  0.6827626257830286  1.0000
  C   C1        1.0  0.3129063797368988  0.16266902620308984  0.45950763781473325  1.0000
  C   C2        1.0  0.299171578900843  0.14587291475639347  0.4946595378663645  1.0000
  C   C3        1.0  0.31159565003506096  0.1584562985515714  0.5312704266966264  1.0000
  C   C4        1.0  0.3379780023666274  0.18811678031137005  0.5332137039491341  1.0000
  C   C5        1.0  0.35179106582453756  0.20499732078609284  0.49807691443321056  1.0000
  C   C6        1.0  0.3392960873902195  0.1923889297141133  0.4613559062850652  1.0000
  H   H1        1.0  0.2788539441185002  0.12280610916404923  0.4935123228108933  1.0000
  H   H2        1.0  0.3008384584732767  0.14504007787451123  0.5579060913032091  1.0000
  H   H3        1.0  0.3722283187509829  0.22796493218702205  0.4992487792250089  1.0000
  H   H4        1.0  0.3501639677228634  0.2055115067216617  0.43452375811863864  1.0000
  C   C7        1.0  0.22884486244483818  0.26270453983223047  0.680924879890646  1.0000
  C   C8        1.0  0.20110017127033689  0.23404040505522827  0.681696767399359  1.0000
  C   C9        1.0  0.20158814930757013  0.20589572544984253  0.6873598597417554  1.0000
  C   C10       1.0  0.2297259599573868  0.2062800293463001  0.6924527551913944  1.0000
  C   C11       1.0  0.2573010715972826  0.2350591978752837  0.6926235572417273  1.0000
  C   C12       1.0  0.2568805638086495  0.26311891348905525  0.6866090842462447  1.0000
  H   H5        1.0  0.17935203255868323  0.23347892654044775  0.6773900704399364  1.0000
  H   H6        1.0  0.1801237785318415  0.18370266787799694  0.6873846764017829  1.0000
  H   H7        1.0  0.2789641829137001  0.23573531385925692  0.6974385800891082  1.0000
  H   H8        1.0  0.278409563512386  0.2852438265279015  0.6863047201132044  1.0000
  C   C13       1.0  0.2561865043801031  0.24061092720656987  0.2638623115480015  1.0000
  C   C14       1.0  0.25624760030520005  0.26921205939817106  0.262090623258432  1.0000
  C   C15       1.0  0.22924225948446386  0.2699493464932554  0.2533451197503842  1.0000
  C   C16       1.0  0.2019923424763428  0.24207923791053132  0.2459403630626796  1.0000
  C   C17       1.0  0.20223546445326573  0.21351645639832065  0.24616602531852497  1.0000
  C   C18       1.0  0.22925914860265773  0.21272368093795996  0.25524501778446174  1.0000
  H   H9        1.0  0.2770495644063865  0.29088550616293474  0.2685494052920972  1.0000
  H   H10       1.0  0.22946938210267226  0.29209325824327376  0.25256461999599183  1.0000
  H   H11       1.0  0.18123658161255157  0.1918613060740698  0.24023596642151285  1.0000
  H   H12       1.0  0.22901847753775004  0.19054535919967566  0.2564367550655008  1.0000
  C   C19       1.0  0.1685691408727408  0.3239482718066933  0.4475074009066738  1.0000
  C   C20       1.0  0.15790275072010318  0.3455734186545911  0.45131447596770485  1.0000
  C   C21       1.0  0.15412462903555563  0.3562947569452  0.48897261727438973  1.0000
  C   C22       1.0  0.16054594696625357  0.34515330757913093  0.5230193902241719  1.0000
  C   C23       1.0  0.170778918848794  0.3232482162528738  0.5191033742515666  1.0000
  C   C24       1.0  0.17493172579649546  0.3128775720449801  0.48158624868964195  1.0000
  H   H13       1.0  0.15317359756821378  0.3544748872366659  0.4252810312114633  1.0000
  H   H14       1.0  0.14647053377079547  0.3734862774009693  0.4916713459631795  1.0000
  H   H15       1.0  0.17620807175844802  0.3147996192153642  0.5449145796335353  1.0000
  H   H16       1.0  0.183419533753557  0.2963781369413048  0.4790566796428693  1.0000
  C   C25       1.0  0.8413711126847707  0.7060190570566812  0.4556473152422495  1.0000
  C   C26       1.0  0.8559466946855238  0.687834587792504  0.4565905430398843  1.0000
  C   C27       1.0  0.861916142063142  0.6791665375232457  0.49298627582054644  1.0000
  C   C28       1.0  0.8539570534480012  0.6891116769251456  0.5286551928552753  1.0000
  C   C29       1.0  0.8400256034292238  0.7078963334774349  0.5276585547175282  1.0000
  C   C30       1.0  0.8334972404269465  0.7160308452731048  0.4913230436172912  1.0000
  H   H17       1.0  0.8620009333695994  0.6798796537666242  0.4293423525712628  1.0000
  H   H18       1.0  0.8726500071280561  0.6645943462689043  0.49344344288078806  1.0000
  H   H19       1.0  0.8336360039233807  0.715533237198077  0.554902067162359  1.0000
  H   H20       1.0  0.8220500260343645  0.7299220970664417  0.49089544608718727  1.0000
  C   C31       1.0  0.21036529113695823  0.9869715480249623  0.7334214672337195  1.0000
  C   C32       1.0  0.21200765674974362  0.015975973912010888  0.7417477160149488  1.0000
  C   C33       1.0  0.23886613938096177  0.04438459210571057  0.7308743700363284  1.0000
  C   C34       1.0  0.2645604009173794  0.04391108784700055  0.7125038651818996  1.0000
  C   C35       1.0  0.2630665132702283  0.01494045539816242  0.7047737246431293  1.0000
  C   C36       1.0  0.23599003493865892  0.9866108762159809  0.7147088165224807  1.0000
  H   H21       1.0  0.19231556570196884  0.01647310918457645  0.7563339861416468  1.0000
  H   H22       1.0  0.2397756840577794  0.06657260274469898  0.7371043089850527  1.0000
  H   H23       1.0  0.2828650643552658  0.014416711140908648  0.6905830615519184  1.0000
  H   H24       1.0  0.23514427813338287  0.9645726442265594  0.7082018878075502  1.0000
  C   C37       1.0  0.03622028882416795  0.7956421337710898  0.7142083340954599  1.0000
  C   C38       1.0  0.00766310510025186  0.7676773382913297  0.7133746835527688  1.0000
  C   C39       1.0  0.9803678781657831  0.7681771691722834  0.7052843751039763  1.0000
  C   C40       1.0  0.9814420005328982  0.7966979800813695  0.6980817950851215  1.0000
  C   C41       1.0  0.009993568408583675  0.8247104395132698  0.6993235957105005  1.0000
  C   C42       1.0  0.0373119632819409  0.824206174233768  0.7073431891853901  1.0000
  H   H25       1.0  0.00658816961323085  0.7455075873220152  0.7189313959943487  1.0000
  H   H26       1.0  0.9584970646163861  0.7465169263900675  0.7047688501222292  1.0000
  H   H27       1.0  0.010922532078216474  0.8468827522908553  0.6941705188399994  1.0000
  H   H28       1.0  0.05908003900426934  0.8459450337509361  0.7087169912917533  1.0000
  C   C43       1.0  0.2336408750582536  0.9945394779955896  0.302116986581666  1.0000
  C   C44       1.0  0.2483985109205269  0.02332016518008495  0.32190839873583854  1.0000
  C   C45       1.0  0.253142969979212  0.05099823674485503  0.3040106919974908  1.0000
  C   C46       1.0  0.24336955518468326  0.0501568810941253  0.2659953022652022  1.0000
  C   C47       1.0  0.22881784625853477  0.021368508422706635  0.2459728636093505  1.0000
  C   C48       1.0  0.2239789511346704  0.9935931936664024  0.2639861713902153  1.0000
  H   H29       1.0  0.25610915615387736  0.02430809115891308  0.3513275804816966  1.0000
  H   H30       1.0  0.264192460993546  0.07298346387034874  0.31980373066589707  1.0000
  H   H31       1.0  0.22150522384891  0.02065893503950243  0.21638603971781217  1.0000
  H   H32       1.0  0.21341233267056423  0.971631891916172  0.2481381937431106  1.0000
  C   C49       1.0  0.042589713074319205  0.8312426930632558  0.2983332707909658  1.0000
  C   C50       1.0  0.014891442004366954  0.8291903640436963  0.2866045055024089  1.0000
  C   C51       1.0  0.9872761017843612  0.7999888976009609  0.28616392444464794  1.0000
  C   C52       1.0  0.9873583152025156  0.772679666993328  0.29716213296977706  1.0000
  C   C53       1.0  0.014892051450198673  0.7749228096815433  0.30973251839008475  1.0000
  C   C54       1.0  0.04229319492945962  0.8040825722638328  0.3106638465439178  1.0000
  H   H33       1.0  0.014864047192465521  0.850098558092978  0.27713585199131263  1.0000
  H   H34       1.0  0.9661826010196577  0.7984555505482636  0.2762500979394741  1.0000
  H   H35       1.0  0.015024083529475485  0.753914875372016  0.3185931627639299  1.0000
  H   H36       1.0  0.0631880559074106  0.8054429334315342  0.32078361290581675  1.0000
  C   C55       1.0  0.1616109577686813  0.8433574831519576  0.45805583888899265  1.0000
  C   C56       1.0  0.1664907214230558  0.830671544080043  0.4918619459162329  1.0000
  C   C57       1.0  0.1661855219418837  0.8433876570542246  0.5293934956453699  1.0000
  C   C58       1.0  0.16115559590705383  0.869016986530584  0.5331800822632333  1.0000
  C   C59       1.0  0.15581411155792987  0.8813390011990936  0.4994883216597798  1.0000
  C   C60       1.0  0.1559783012145515  0.8685704822685351  0.46215222896331226  1.0000
  H   H37       1.0  0.17079245884379282  0.8110861548879165  0.4889257963524434  1.0000
  H   H38       1.0  0.17031698758125668  0.8336938320616941  0.5551581299482078  1.0000
  H   H39       1.0  0.15165189812615365  0.9010232675973053  0.5022631424928709  1.0000
  H   H40       1.0  0.15175637730774644  0.8782788474892805  0.4365947534954753  1.0000
  C   C61       1.0  0.9799666537690779  0.2369564560497932  0.6798634022287267  1.0000
  C   C62       1.0  0.0075218236353855605  0.26159140237662126  0.69400568206431  1.0000
  C   C63       1.0  0.035188119822428185  0.2601762765290298  0.6913074588938756  1.0000
  C   C64       1.0  0.03552244575947495  0.23411321759750608  0.6742999711737455  1.0000
  C   C65       1.0  0.008066633435997552  0.20962665659756402  0.6595856724587544  1.0000
  C   C66       1.0  0.980353547466585  0.21110247403197588  0.6621585239034019  1.0000
  H   H41       1.0  0.007368884525713382  0.2817140483652054  0.7076173141881505  1.0000
  H   H42       1.0  0.05609109939310947  0.278996972921864  0.7031403118295714  1.0000
  H   H43       1.0  0.008365895257692964  0.18962980609791308  0.6458574970710247  1.0000
  H   H44       1.0  0.9593774973196684  0.19246102874488918  0.6502381847046199  1.0000
  C   C67       1.0  0.9763549353406283  0.20879694947069877  0.24806709241378336  1.0000
  C   C68       1.0  0.0047935758180548405  0.2088882625950469  0.2470726021534956  1.0000
  C   C69       1.0  0.03247087311544206  0.236354673592212  0.25595303494431376  1.0000
  C   C70       1.0  0.03186546867173203  0.2640145675321857  0.2652166835977042  1.0000
  C   C71       1.0  0.003642667947402653  0.26415613069455013  0.2649252092373343  1.0000
  C   C72       1.0  0.9760249252696339  0.23670362090081348  0.2563568122193832  1.0000
  H   H45       1.0  0.005321030324813014  0.18748308296470556  0.24013698991099883  1.0000
  H   H46       1.0  0.05418454569115329  0.23608907072855997  0.25570902597367007  1.0000
  H   H47       1.0  0.003022020733820513  0.28552570598448856  0.27176311248462515  1.0000
  H   H48       1.0  0.9545064295899908  0.2372006841273226  0.2562708514519083  1.0000
  C   C73       1.0  0.8659258167824907  0.18256300241770945  0.44657338292155135  1.0000
  C   C74       1.0  0.8833855704028468  0.1935062394496959  0.48040009446167603  1.0000
  C   C75       1.0  0.8689562393961376  0.18468385595643103  0.5183220356569181  1.0000
  C   C76       1.0  0.8367890378830912  0.1651701434381758  0.5227661208439791  1.0000
  C   C77       1.0  0.8193553375699663  0.15395217829176325  0.48894208267969935  1.0000
  C   C78       1.0  0.8338591530170115  0.16239844599129621  0.45098418398267726  1.0000
  H   H49       1.0  0.908156785344413  0.2093030536754908  0.47729663126391203  1.0000
  H   H50       1.0  0.8825960019053841  0.1936213556310285  0.5440955165447219  1.0000
  H   H51       1.0  0.7944297915097954  0.13902781194691885  0.4920751260609556  1.0000
  H   H52       1.0  0.8201511790039661  0.15395521490310102  0.4252099607211716  1.0000
  C   C79       1.0  0.7626962091912428  0.9902824777331802  0.692450694557199  1.0000
  C   C80       1.0  0.7635031298827687  0.01902245181745843  0.6992999566238332  1.0000
  C   C81       1.0  0.7919903808886062  0.047133312743714045  0.7006261673880958  1.0000
  C   C82       1.0  0.8199683557240957  0.04682230207150515  0.6947610777226411  1.0000
  C   C83       1.0  0.8192137827945729  0.018031815384550703  0.6883984012173028  1.0000
  C   C84       1.0  0.790663603537951  0.9898157710130385  0.6872330500062752  1.0000
  H   H53       1.0  0.7419881961427645  0.019552831503303114  0.7037122542070937  1.0000
  H   H54       1.0  0.7922232595668742  0.0689797124959995  0.7066065292747287  1.0000
  H   H55       1.0  0.8407363161153313  0.017511808490495252  0.6840126145165263  1.0000
  H   H56       1.0  0.7903094984316865  0.9677668037679261  0.6820322129451868  1.0000
  C   C85       1.0  0.7897513468782984  0.8252716572661853  0.7162253005887778  1.0000
  C   C86       1.0  0.7616664107693443  0.7969705686901556  0.7180336630427212  1.0000
  C   C87       1.0  0.7616160417666926  0.7682743192048487  0.7156403220900124  1.0000
  C   C88       1.0  0.7896147065546746  0.7676583992274989  0.7111067429688025  1.0000
  C   C89       1.0  0.8177841382637512  0.7959128672849951  0.709938658111169  1.0000
  C   C90       1.0  0.8178129566282015  0.8246495827985201  0.7126936068520671  1.0000
  H   H57       1.0  0.7399601426663827  0.7971931757519718  0.7214353416403266  1.0000
  H   H58       1.0  0.7397433985480071  0.7464796404233686  0.7167742307502846  1.0000
  H   H59       1.0  0.8395088203685268  0.795680886478989  0.7065234173551178  1.0000
  H   H60       1.0  0.8396403737992549  0.846498230474035  0.7114292607693693  1.0000
  C   C91       1.0  0.7848725571013174  0.040050211933480157  0.2784313037784051  1.0000
  C   C92       1.0  0.8116322821121538  0.03972555087877666  0.26379909617462716  1.0000
  C   C93       1.0  0.8112258138450091  0.010935831830307885  0.2580195752811754  1.0000
  C   C94       1.0  0.7843057854035532  0.9823422387977526  0.2674745089234132  1.0000
  C   C95       1.0  0.7577288435402046  0.9827924352182111  0.282576303209783  1.0000
  C   C96       1.0  0.757933139998009  0.01146988362433609  0.28762595050209694  1.0000
  H   H61       1.0  0.8325043525541046  0.0615936308309908  0.25647213878436703  1.0000
  H   H62       1.0  0.8319122748401236  0.010849047669635459  0.2463167970270967  1.0000
  H   H63       1.0  0.7369290973363446  0.961111414473268  0.2902217430636005  1.0000
  H   H64       1.0  0.7371814580901179  0.011524082917970175  0.2990840143653098  1.0000
  C   C97       1.0  0.7611368564857728  0.7870120307221801  0.2759795615345585  1.0000
  C   C98       1.0  0.7624034261282507  0.759479691807405  0.2821976535660117  1.0000
  C   C99       1.0  0.7896303826358588  0.7581844473433246  0.272561552476207  1.0000
  C   C100      1.0  0.8157444316605771  0.7842252838536317  0.2558837174835679  1.0000
  C   C101      1.0  0.8142794371394431  0.8115716491942249  0.2485971402263639  1.0000
  C   C102      1.0  0.7871484176995426  0.8131181474680057  0.2590269307130987  1.0000
  H   H65       1.0  0.7422863535249152  0.7391579738654932  0.2951097329209076  1.0000
  H   H66       1.0  0.7902797539581763  0.7369960205287363  0.2781133935740923  1.0000
  H   H67       1.0  0.8343715719559921  0.8318358237837759  0.23555908491792213  1.0000
  H   H68       1.0  0.7863348103483554  0.8344146474119879  0.25391091760631196  1.0000
  C   C103      1.0  0.6846025482476173  0.8590209075222739  0.447844473305716  1.0000
  C   C104      1.0  0.6756561908718229  0.8679484177900549  0.48362384294084027  1.0000
  C   C105      1.0  0.6841731173209832  0.8617372563735524  0.5198785210503135  1.0000
  C   C106      1.0  0.7012121218941165  0.8459733649095872  0.5206037598372879  1.0000
  C   C107      1.0  0.7101430220449008  0.837089456481638  0.4848034899755333  1.0000
  C   C108      1.0  0.7021611274918953  0.8438304988555999  0.4485928915269099  1.0000
  H   H69       1.0  0.6620232182893923  0.8796573189587887  0.48332426872746753  1.0000
  H   H70       1.0  0.6769968854825221  0.868516907698816  0.54722288352277  1.0000
  H   H71       1.0  0.7231556716999343  0.8247438105497537  0.48502504178311145  1.0000
  H   H72       1.0  0.7090435801410065  0.8366941812341012  0.42129887445191044  1.0000
  C   C109      1.0  0.5860700905129281  0.7849144483913382  0.11924339682170412  1.0000
  C   C110      1.0  0.5859901201078027  0.8131843038306485  0.1256872010901073  1.0000
  C   C111      1.0  0.6034078752122082  0.8336617318134493  0.15579783002762243  1.0000
  C   C112      1.0  0.6213935552315925  0.8263693327055138  0.17956291973659744  1.0000
  C   C113      1.0  0.6218692949058574  0.7983305227499883  0.1728151645396129  1.0000
  C   C114      1.0  0.6041477693582569  0.7776647156921358  0.14297463574086328  1.0000
  H   H73       1.0  0.5721604622890998  0.8190694363097302  0.10778611173774649  1.0000
  H   H74       1.0  0.6027664112185305  0.8552266312513293  0.16074734351826828  1.0000
  H   H75       1.0  0.6355426788126382  0.79233274128751  0.19082977936738035  1.0000
  H   H76       1.0  0.6043908503148264  0.75587564874465  0.1382970935381716  1.0000
  C   C115      1.0  0.5977656082495686  0.821095872709637  0.8686390734430939  1.0000
  C   C116      1.0  0.5779041717622974  0.7974301475051743  0.8435626048216698  1.0000
  C   C117      1.0  0.5890864352259982  0.7936246971780928  0.8059964125119965  1.0000
  C   C118      1.0  0.6203018607338803  0.8130391215903748  0.7933042102472876  1.0000
  C   C119      1.0  0.6405016628869069  0.8356461387143006  0.8191812069532108  1.0000
  C   C120      1.0  0.6291420140501339  0.8400490340159255  0.8562796956902868  1.0000
  H   H77       1.0  0.5536714275971115  0.7827970797491794  0.8525397578788022  1.0000
  H   H78       1.0  0.5732660785636182  0.775926773937794  0.7863476884982487  1.0000
  H   H79       1.0  0.6647967853059764  0.8500216209332343  0.8104554560575163  1.0000
  H   H80       1.0  0.6447437233381449  0.8582503283081833  0.8755917804650871  1.0000
  C   C121      1.0  0.23696938349661495  0.44037487086014226  0.8446240828692357  1.0000
  C   C122      1.0  0.20723552676569892  0.4217736800946451  0.8619167832468881  1.0000
  C   C123      1.0  0.18360275539908755  0.39821170806052636  0.8398281981625138  1.0000
  C   C124      1.0  0.18932607624450193  0.3928828256590058  0.8002571095442247  1.0000
  C   C125      1.0  0.21897856923036965  0.4117366440478278  0.7828005047152372  1.0000
  C   C126      1.0  0.24272995546672455  0.43511311551572446  0.8050086631659242  1.0000
  H   H81       1.0  0.20243884572909304  0.4253659379805223  0.8924130970311402  1.0000
  H   H82       1.0  0.16071784966480362  0.3838647317859102  0.8536036883259067  1.0000
  H   H83       1.0  0.22349679499880504  0.40860219212178484  0.752057200534489  1.0000
  H   H84       1.0  0.26558522677394003  0.4495643090562364  0.7912329272844537  1.0000
  C   C127      1.0  0.20350241635512542  0.4243741949050805  0.10212944897804209  1.0000
  C   C128      1.0  0.19154835085655908  0.3929448483119662  0.11365134320036882  1.0000
  C   C129      1.0  0.19274746750353505  0.38515515339305884  0.15290735918059725  1.0000
  C   C130      1.0  0.20570984477084156  0.40875933329235875  0.18117422153572235  1.0000
  C   C131      1.0  0.21709353026372064  0.44012935676031195  0.16983611652773115  1.0000
  C   C132      1.0  0.2159303906042666  0.4479266424196204  0.1305551537232674  1.0000
  H   H85       1.0  0.18175950397902876  0.3745270734216613  0.09190225531125838  1.0000
  H   H86       1.0  0.18418385937397508  0.36094437920089656  0.16110113803488071  1.0000
  H   H87       1.0  0.2267859750808321  0.4585038026822432  0.19164565241459763  1.0000
  H   H88       1.0  0.22445466528265093  0.47211715009168587  0.12227625234339203  1.0000
  C   C133      1.0  0.37117798323202933  0.6022235537413823  0.00471589575413911  1.0000
  C   C134      1.0  0.3787734600691741  0.6007226727278072  0.964856810241334  1.0000
  C   C135      1.0  0.40653890774422685  0.6249824606404932  0.9475145229013318  1.0000
  C   C136      1.0  0.426478014737493  0.65131415928618  0.9695105820399514  1.0000
  C   C137      1.0  0.4181825090778399  0.6534034628049483  0.008952667891998445  1.0000
  C   C138      1.0  0.39089789430477884  0.6287407321146338  0.026591275593821573  1.0000
  H   H89       1.0  0.3638897145923446  0.5803498677073183  0.9477478354794717  1.0000
  H   H90       1.0  0.4127864587365468  0.6231561943420392  0.9169951306345077  1.0000
  H   H91       1.0  0.4332474518203746  0.6735176505608901  0.02624247216157749  1.0000
  H   H92       1.0  0.3852178843551404  0.630070282716329  0.0574648954874073  1.0000
  C   C139      1.0  0.22488143098627686  0.596126324653651  0.9649744094388899  1.0000
  C   C140      1.0  0.2220583427126585  0.6189461789981806  0.9440878835117017  1.0000
  C   C141      1.0  0.22492393154557294  0.6460349182321524  0.9631454957299498  1.0000
  C   C142      1.0  0.22979900228538824  0.649999344017565  0.0034791661631974335  1.0000
  C   C143      1.0  0.2330944153553259  0.6274059534524004  0.02416282318470442  1.0000
  C   C144      1.0  0.23107635122711587  0.6007877550227005  0.004912276013137484  1.0000
  H   H93       1.0  0.2172051802681756  0.6154833945028177  0.9131983925420514  1.0000
  H   H94       1.0  0.22221024437169784  0.6632370903692884  0.9470134324250211  1.0000
  H   H95       1.0  0.2367048939333746  0.6302595888485103  0.055420005332338595  1.0000
  H   H96       1.0  0.23308796573417284  0.583292622859194  0.021344216427311213  1.0000
  C   C145      1.0  0.3758968079574584  0.7956894269247614  0.9679713597793234  1.0000
  C   C146      1.0  0.4044142316974754  0.8026811056761759  0.9488844044719289  1.0000
  C   C147      1.0  0.42760894593821686  0.8011537648132344  0.969340701681883  1.0000
  C   C148      1.0  0.42274678479497385  0.7935215077963944  0.009393460768676531  1.0000
  C   C149      1.0  0.39407292032388647  0.7860818582875145  0.028330206305305694  1.0000
  C   C150      1.0  0.3705121901638474  0.7864726394146313  0.007517757051757723  1.0000
  H   H97       1.0  0.4087745617220633  0.809682952096131  0.9182347012115313  1.0000
  H   H98       1.0  0.44969073936714976  0.8070670303004245  0.9545140350964266  1.0000
  H   H99       1.0  0.3901302719721314  0.7800090995052656  0.05928581893977869  1.0000
  H   H100      1.0  0.3484663079915633  0.7801552742125926  0.022411533658439398  1.0000
  C   C151      1.0  0.21441231462486732  0.8257229148953937  0.7879370998441059  1.0000
  C   C152      1.0  0.18888227469414143  0.8192852002690452  0.8133929381328509  1.0000
  C   C153      1.0  0.1857956190132595  0.8057448084981444  0.8506067441699773  1.0000
  C   C154      1.0  0.20845310707164974  0.7989864181305572  0.8632316448398575  1.0000
  C   C155      1.0  0.23451218936513404  0.8063224540707298  0.8382649678055236  1.0000
  C   C156      1.0  0.23734677407495705  0.819452414076727  0.800714312768314  1.0000
  H   H101      1.0  0.17127538249816185  0.8243091293433918  0.8042273001977461  1.0000
  H   H102      1.0  0.16564389072900906  0.8002884972037646  0.8698104631825055  1.0000
  H   H103      1.0  0.2520549403562538  0.8011052400821415  0.8474759697441064  1.0000
  H   H104      1.0  0.25724239384343517  0.8243481942974751  0.7812941404162767  1.0000
  C   C157      1.0  0.2404320465159216  0.8273363090367477  0.11647011371008233  1.0000
  C   C158      1.0  0.24820016832172542  0.8506651836396315  0.1454965331757356  1.0000
  C   C159      1.0  0.22604678095958747  0.8484828707705053  0.17496433897985242  1.0000
  C   C160      1.0  0.19585105417754314  0.822864709511782  0.17567999377049856  1.0000
  C   C161      1.0  0.18811032555579169  0.7995976742045113  0.14662038810301595  1.0000
  C   C162      1.0  0.21022413817691965  0.8017878955387803  0.11719151166624993  1.0000
  H   H105      1.0  0.2714826828762387  0.870524044923251  0.14523787401135588  1.0000
  H   H106      1.0  0.23234954907829547  0.8665517084215039  0.19710169705424666  1.0000
  H   H107      1.0  0.16489813343438497  0.7796189520880668  0.1469244422452847  1.0000
  H   H108      1.0  0.20391241274730426  0.783635861989981  0.0951508126500517  1.0000
  C   C163      1.0  0.43959384797337625  0.2186554009115925  0.8529080565138557  1.0000
  C   C164      1.0  0.4360627432293633  0.20895177827876868  0.8133859945710757  1.0000
  C   C165      1.0  0.41316184795976474  0.20956525610867197  0.7911408418072978  1.0000
  C   C166      1.0  0.39326674951352475  0.21953917011482982  0.8083798337848723  1.0000
  C   C167      1.0  0.39685850983086246  0.22929066475828866  0.8478851971112195  1.0000
  C   C168      1.0  0.419733450533202  0.22865200647551556  0.8701514539016983  1.0000
  H   H109      1.0  0.4514617431234801  0.20136940506478831  0.79970756986728  1.0000
  H   H110      1.0  0.411252339864796  0.2028464484185287  0.7604583297496325  1.0000
  H   H111      1.0  0.3816792654331182  0.23719774644789904  0.8614503221093197  1.0000
  H   H112      1.0  0.42204241272533083  0.23599789903034077  0.9006103737775499  1.0000
  C   C169      1.0  0.4196458319207727  0.2306095148018479  0.11262015962207371  1.0000
  C   C170      1.0  0.3895073358322987  0.20802223381412074  0.1257946174709167  1.0000
  C   C171      1.0  0.3822495278681678  0.2001553205014426  0.16601047720055703  1.0000
  C   C172      1.0  0.40509105585749117  0.21487778861379572  0.1935724251809535  1.0000
  C   C173      1.0  0.43515681195122746  0.23773625816973237  0.18049369345645644  1.0000
  C   C174      1.0  0.4423163855556502  0.24584982964900784  0.14030362384074224  1.0000
  H   H113      1.0  0.37165189506122337  0.19641112560735385  0.1047215950355143  1.0000
  H   H114      1.0  0.35906033508536306  0.18238832832480997  0.1756038978372575  1.0000
  H   H115      1.0  0.45283835997433525  0.24962467961945065  0.20170805954432616  1.0000
  H   H116      1.0  0.46515573684957723  0.26439407302146967  0.1308611016849478  1.0000
  C   C175      1.0  0.7806204963634382  0.5915334539533188  0.8539153330714271  1.0000
  C   C176      1.0  0.773866639041345  0.6034406413514382  0.8208308400074493  1.0000
  C   C177      1.0  0.7975287609613132  0.6224568117993258  0.7928821138041265  1.0000
  C   C178      1.0  0.82825682363386  0.6300060406849619  0.7979867179619351  1.0000
  C   C179      1.0  0.8349525753699437  0.6178214037631657  0.8307612248761055  1.0000
  C   C180      1.0  0.8113124337137079  0.5987665728887538  0.8586479179282988  1.0000
  H   H117      1.0  0.7501127341145695  0.597567790040555  0.8166558837694492  1.0000
  H   H118      1.0  0.7919759375547664  0.6308710321820811  0.7671297193664025  1.0000
  H   H119      1.0  0.8586065165714191  0.623267478795126  0.834790121169122  1.0000
  H   H120      1.0  0.8168616864212151  0.5897319396077072  0.8838482107586376  1.0000
  C   C181      1.0  0.8132285160111341  0.6015176796818936  0.11097750712532649  1.0000
  C   C182      1.0  0.8381988399917975  0.6286366229534122  0.12629268958724554  1.0000
  C   C183      1.0  0.8366704896592458  0.6382446720741415  0.16534829790280697  1.0000
  C   C184      1.0  0.8102035931169991  0.6205765108215705  0.18974263675298697  1.0000
  C   C185      1.0  0.7851672992534549  0.5935145049675822  0.174395141101457  1.0000
  C   C186      1.0  0.7865774034984828  0.5840690827386905  0.1351804493902042  1.0000
  H   H121      1.0  0.858959445374472  0.6422696369532155  0.10785465647351444  1.0000
  H   H122      1.0  0.8561681653338381  0.659032901664433  0.1767359243167948  1.0000
  H   H123      1.0  0.7645711688709437  0.5796751090093959  0.19301755867689555  1.0000
  H   H124      1.0  0.7671999016433884  0.56311943809664  0.12388073239555766  1.0000
  C   C187      1.0  0.6413578356652214  0.429558910455856  0.012342231816549587  1.0000
  C   C188      1.0  0.6178525317055862  0.4035218079485132  0.033175662319353094  1.0000
  C   C189      1.0  0.5918761914959733  0.38039898286539753  0.013992188730322486  1.0000
  C   C190      1.0  0.5889151509197256  0.38350876531422684  0.9739315982714483  1.0000
  C   C191      1.0  0.6124192017047096  0.4095445023204928  0.9530818540372431  1.0000
  C   C192      1.0  0.6387234654157123  0.4323371862927389  0.9720966665653414  1.0000
  H   H125      1.0  0.619696759327712  0.40127867146620483  0.06434980632712084  1.0000
  H   H126      1.0  0.5738235680981878  0.36058948700796856  0.03041679034205802  1.0000
  H   H127      1.0  0.6102358260387217  0.4122137076376778  0.922135921173873  1.0000
  H   H128      1.0  0.6566038916039931  0.4523954508907606  0.9558255700220207  1.0000
  C   C193      1.0  0.7855002902713591  0.3833806151007126  0.018808656322413693  1.0000
  C   C194      1.0  0.7935043528492151  0.3864721018785045  0.9785020424496786  1.0000
  C   C195      1.0  0.7970151516897114  0.41259490952303784  0.9577100309950656  1.0000
  C   C196      1.0  0.7918803672812341  0.43543906209410516  0.9767911489230264  1.0000
  C   C197      1.0  0.7832946103332626  0.43208325239792383  0.01698567787753287  1.0000
  C   C198      1.0  0.7805408871109774  0.4063484050304443  0.038014693182302384  1.0000
  H   H129      1.0  0.7976784214792478  0.369106217104304  0.9635107269371427  1.0000
  H   H130      1.0  0.8038013686931678  0.41512731421334426  0.9266663319620898  1.0000
  H   H131      1.0  0.7791759388423282  0.4494442744227723  0.03196710015949017  1.0000
  H   H132      1.0  0.7743036739092899  0.4040178760311294  0.06920783334153308  1.0000
  C   C199      1.0  0.6455761166678944  0.2381380485571981  0.9708387633353864  1.0000
  C   C200      1.0  0.6442971072387438  0.24117753066134745  0.011770876977454714  1.0000
  C   C201      1.0  0.618563230043657  0.24148531212724428  0.03095496260204955  1.0000
  C   C202      1.0  0.5942909102705967  0.23955835182032362  0.00936087834531052  1.0000
  C   C203      1.0  0.5960948185056747  0.23764755468293752  0.9683033085600347  1.0000
  C   C204      1.0  0.6214694214739711  0.23656446493491012  0.9491888050430413  1.0000
  H   H133      1.0  0.6626230640271781  0.24225719209266539  0.028789731773200492  1.0000
  H   H134      1.0  0.6173374934745408  0.24289644810970948  0.06271730576460717  1.0000
  H   H135      1.0  0.5774356990413805  0.2358953186724162  0.9513783736603024  1.0000
  H   H136      1.0  0.6222064333055206  0.23411104973693636  0.9175428082720838  1.0000
  C   C205      1.0  0.7921152829166137  0.2121736918290539  0.10630661179446436  1.0000
  C   C206      1.0  0.8024454138576081  0.19149905690219668  0.11744079974657048  1.0000
  C   C207      1.0  0.815513651283755  0.1944144185414528  0.15420436240003188  1.0000
  C   C208      1.0  0.8176191717226966  0.21754906704593283  0.18078104480147564  1.0000
  C   C209      1.0  0.807542998368601  0.2383748701147995  0.1694652015846787  1.0000
  C   C210      1.0  0.7951130998352255  0.2359121676649967  0.1323350728260789  1.0000
  H   H137      1.0  0.8003776517665793  0.1731325498172646  0.09746728933591367  1.0000
  H   H138      1.0  0.8237842473077653  0.1786575930822885  0.16205155151106237  1.0000
  H   H139      1.0  0.8091188178066944  0.2564210791637607  0.189712358494945  1.0000
  H   H140      1.0  0.787272966058156  0.25199783822452504  0.12424997548688936  1.0000
  C   C211      1.0  0.816984125325738  0.24776917763199113  0.8617179589142502  1.0000
  C   C212      1.0  0.7927235359513982  0.21692809894596035  0.8668247351218437  1.0000
  C   C213      1.0  0.7882311032789484  0.194036563699033  0.8381143550578826  1.0000
  C   C214      1.0  0.8082328524042527  0.20153796189336545  0.8042979401995131  1.0000
  C   C215      1.0  0.8331134050192534  0.23214866382862287  0.7998279379029579  1.0000
  C   C216      1.0  0.837379971727327  0.25513917821693677  0.8283689129036643  1.0000
  H   H141      1.0  0.7773689597885903  0.210725691897344  0.8928020071645492  1.0000
  H   H142      1.0  0.7690858539998647  0.17034744007075664  0.8419827793994278  1.0000
  H   H143      1.0  0.8486571718823762  0.2382918766221704  0.7739379509649391  1.0000
  H   H144      1.0  0.8563539661015963  0.27889127686641374  0.8242014424192813  1.0000
  N   N1        1.0  0.3669338018417255  0.8718145824017434  0.03690658054498264  1.0000
  C   C217      1.0  0.375434203495533  0.8906444810055228  0.07332709652674985  1.0000
  C   C218      1.0  0.34834630509847647  0.8807155476733107  0.013110755872735025  1.0000
  C   C219      1.0  0.3483374550073929  0.8382710908958549  0.047306532987162475  1.0000
  C   C220      1.0  0.39528234836875703  0.877186213516435  0.013804951399391419  1.0000
  H   H145      1.0  0.38957902792139015  0.9161719302290017  0.06669660881024941  1.0000
  H   H146      1.0  0.38911020330441076  0.8841286990660955  0.09214007209568664  1.0000
  H   H147      1.0  0.35427553653684724  0.8868174102526504  0.09114422872034034  1.0000
  H   H148      1.0  0.3422859154477433  0.8674146309570333  0.9849343238072643  1.0000
  H   H149      1.0  0.3260363198397414  0.87549269436913  0.029078073018659056  1.0000
  H   H150      1.0  0.36114560104869525  0.9061373251145032  0.005663136627515719  1.0000
  H   H151      1.0  0.3407715807048028  0.8238166166371262  0.020289438610260557  1.0000
  H   H152      1.0  0.32704374475480774  0.8331987168210684  0.06555128804925059  1.0000
  H   H153      1.0  0.3617522272344051  0.8301830944952437  0.06415341799961238  1.0000
  H   H154      1.0  0.3893560373555272  0.8629750704633661  0.9862543887765854  1.0000
  H   H155      1.0  0.4095995115873731  0.8701994221570734  0.03067266358874443  1.0000
  H   H156      1.0  0.4100272509114908  0.9022580712997302  0.005208043729957312  1.0000
  N   N2        1.0  0.30816298433812145  0.47770324539114273  0.10597372012379022  1.0000
  C   C221      1.0  0.32377424427266677  0.5077008332506849  0.08400919071903896  1.0000
  C   C222      1.0  0.2821151122677463  0.4540997557931351  0.08338242445883753  1.0000
  C   C223      1.0  0.2961860061465431  0.4824872339484565  0.14472575881278507  1.0000
  C   C224      1.0  0.330487032283803  0.46657658023526777  0.11169628521815167  1.0000
  H   H157      1.0  0.33269568338025074  0.5051116810940808  0.05422765291974978  1.0000
  H   H158      1.0  0.3437259800513555  0.5262790536307073  0.09976279900349554  1.0000
  H   H159      1.0  0.3074904657068247  0.5167848634702785  0.07958699861146862  1.0000
  H   H160      1.0  0.29037113864630715  0.44856999523816665  0.054857650192647794  1.0000
  H   H161      1.0  0.2682258651795051  0.4317040031167559  0.10006301937279675  1.0000
  H   H162      1.0  0.2660096119851756  0.46276212776781245  0.07623400237421256  1.0000
  H   H163      1.0  0.2798589847096547  0.491638896238618  0.141403004895977  1.0000
  H   H164      1.0  0.315284049886163  0.49973988732581115  0.16285061558746253  1.0000
  H   H165      1.0  0.2833972091463197  0.4601365140305832  0.16180258810970835  1.0000
  H   H166      1.0  0.34009530229957724  0.4629306842477387  0.08297809848756879  1.0000
  H   H167      1.0  0.31920433477276006  0.4438445759322029  0.1280018912090702  1.0000
  H   H168      1.0  0.3504079852541243  0.4838046897368503  0.128764249920198  1.0000
  N   N3        1.0  0.23530851565894192  0.3347239872485045  0.78803549680211  1.0000
  C   C225      1.0  0.23317157843510244  0.3493732576202507  0.8257146574281206  1.0000
  C   C226      1.0  0.2332570455609724  0.3526886758682612  0.7552022863806388  1.0000
  C   C227      1.0  0.20948775413350762  0.3019994557374258  0.786949098629822  1.0000
  C   C228      1.0  0.26522036496824614  0.33487060036365546  0.7840087100195886  1.0000
  H   H169      1.0  0.23448554198706628  0.33644869662592947  0.851333370257123  1.0000
  H   H170      1.0  0.21083166949296944  0.3497276101774033  0.8291918376774293  1.0000
  H   H171      1.0  0.25217779386122613  0.3742027643075395  0.8274537308465557  1.0000
  H   H172      1.0  0.21029737854313107  0.35161103286719125  0.7560700834482772  1.0000
  H   H173      1.0  0.2515684430537874  0.3778067078498979  0.7560139828158712  1.0000
  H   H174      1.0  0.23615836092949602  0.34333868674092016  0.7262374400988116  1.0000
  H   H175      1.0  0.20967431329917713  0.29067489547559705  0.7581828172899937  1.0000
  H   H176      1.0  0.18656446545300048  0.3009683004667054  0.7911760588722226  1.0000
  H   H177      1.0  0.21089412090164647  0.28740745461130757  0.8104575881653753  1.0000
  H   H178      1.0  0.2671626017896644  0.3237407047683124  0.7557741220627817  1.0000
  H   H179      1.0  0.2677065970699406  0.32161469558747025  0.8083620862027466  1.0000
  H   H180      1.0  0.2852337465431534  0.3592219797096174  0.7841792674244267  1.0000
  N   N4        1.0  0.7168000222961555  0.22508813031654631  0.839372632183266  1.0000
  C   C229      1.0  0.6895649740560532  0.22793571766262347  0.8296572930048413  1.0000
  C   C230      1.0  0.7386331591617727  0.25343133415098357  0.8607735126336392  1.0000
  C   C231      1.0  0.7325426698368135  0.2219667525228089  0.8027892748751295  1.0000
  C   C232      1.0  0.7063949429850127  0.19710445902755197  0.8645107897997392  1.0000
  H   H181      1.0  0.6725936313907352  0.20704954942672765  0.8132872446550935  1.0000
  H   H182      1.0  0.6965456286926252  0.2490900869834584  0.8112652304366573  1.0000
  H   H183      1.0  0.6771323999193686  0.23006330667321112  0.8568746209959053  1.0000
  H   H184      1.0  0.7590031753144527  0.2517854922982037  0.8698588646134928  1.0000
  H   H185      1.0  0.747711926546896  0.27498950372765135  0.8424617107733755  1.0000
  H   H186      1.0  0.7271465786450153  0.25689696414982355  0.8878679965995181  1.0000
  H   H187      1.0  0.7536618382378021  0.2205959814667905  0.809124233221468  1.0000
  H   H188      1.0  0.7402455469805869  0.24245729872957497  0.782864011189725  1.0000
  H   H189      1.0  0.7170663381418977  0.20039458021289255  0.7862747861584266  1.0000
  H   H190      1.0  0.7262112661485036  0.19393839410769648  0.8720827391620745  1.0000
  H   H191      1.0  0.689420158631658  0.1753125486027011  0.8496232384449806  1.0000
  H   H192      1.0  0.6949908363138217  0.19906155037192674  0.8927427806890782  1.0000
  N   N5        1.0  0.5897609185415347  0.8229414791224057  0.3370921071593048  1.0000
  C   C233      1.0  0.6153365951263625  0.8557077142021324  0.33377199145021  1.0000
  C   C234      1.0  0.5872563364861277  0.8068279854142366  0.2990158820897912  1.0000
  C   C235      1.0  0.5603237411486824  0.82273824447105  0.34737089774639246  1.0000
  C   C236      1.0  0.5962511998369794  0.8066828957281122  0.36824579204324315  1.0000
  H   H193      1.0  0.6378192659203917  0.8564281203046012  0.32733451536248415  1.0000
  H   H194      1.0  0.6178395443461967  0.8688397081379473  0.36176171557662645  1.0000
  H   H195      1.0  0.6120493870110207  0.8686200725432635  0.3096645388384279  1.0000
  H   H196      1.0  0.6091596370357352  0.8067972657714859  0.2900951709464924  1.0000
  H   H197      1.0  0.5682739789135873  0.7819684906660965  0.3002871365957069  1.0000
  H   H198      1.0  0.5827093522234343  0.8187212601912587  0.2747600537337747  1.0000
  H   H199      1.0  0.561492428290841  0.8347359673094232  0.37595896999935413  1.0000
  H   H200      1.0  0.5404741548606037  0.7983389982917107  0.3500364148434973  1.0000
  H   H201      1.0  0.5549241933235403  0.8350278780440196  0.32453182420135646  1.0000
  H   H202      1.0  0.5774277896755573  0.7819034207459966  0.371989034043099  1.0000
  H   H203      1.0  0.599020286564252  0.81874501519184  0.39716014517202436  1.0000
  H   H204      1.0  0.6183706887361656  0.8064621975258737  0.3614748189688945  1.0000
  N   N6        1.0  0.5235542907803833  0.6651478239773378  0.016893162822848508  1.0000
  C   C237      1.0  0.4999993993422215  0.672749633571738  0.033805451077452094  1.0000
  C   C238      1.0  0.5219619757210193  0.6633446144342331  0.9735450400396483  1.0000
  C   C239      1.0  0.5172888124317937  0.6345937112279176  0.032574830922763885  1.0000
  C   C240      1.0  0.5548101977629597  0.6898538900671679  0.027724447380918636  1.0000
  H   H205      1.0  0.5011665167428176  0.6756065449366406  0.06633229723046115  1.0000
  H   H206      1.0  0.4760477010655992  0.6543843359551894  0.026854218375480417  1.0000
  H   H207      1.0  0.5035425831545983  0.695082608066436  0.021491145126861594  1.0000
  H   H208      1.0  0.5392281834996481  0.6574629454912738  0.9595534965736887  1.0000
  H   H209      1.0  0.49842932764427095  0.64540463242074  0.9644110295189894  1.0000
  H   H210      1.0  0.5265509885778394  0.6860279279494905  0.9606940682507127  1.0000
  H   H211      1.0  0.5346652830247112  0.6281113047806117  0.020462957395613924  1.0000
  H   H212      1.0  0.49385438371207835  0.6154976422143674  0.024852222010025002  1.0000
  H   H213      1.0  0.5181433773713929  0.6351854507902432  0.06523970986473598  1.0000
  H   H214      1.0  0.5732731152990196  0.6849686883773946  0.01562576571234543  1.0000
  H   H215      1.0  0.5566367065060234  0.6923270825201704  0.06025889502696632  1.0000
  H   H216      1.0  0.560320271276  0.7132606248496026  0.01642727435304003  1.0000
  N   N7        1.0  0.06241431213954707  0.827723198321452  0.5873369275377496  1.0000
  C   C241      1.0  0.07960229750550885  0.8151726537471369  0.6077428619292936  1.0000
  C   C242      1.0  0.07046012892929521  0.8297955685418623  0.5446398530214355  1.0000
  C   C243      1.0  0.07108183374934707  0.8593622836646209  0.6026204425836864  1.0000
  C   C244      1.0  0.028637647541306377  0.8066323114576818  0.5943404264587797  1.0000
  H   H217      1.0  0.07336464149502353  0.7911551406234776  0.5974193305851708  1.0000
  H   H218      1.0  0.07455075789965915  0.813873731504715  0.640114758484836  1.0000
  H   H219      1.0  0.10515473694155775  0.8303040809073144  0.6025895614436628  1.0000
  H   H220      1.0  0.05764108042978622  0.8388167889424758  0.5281892416410789  1.0000
  H   H221      1.0  0.0957184714122914  0.845946033733152  0.5384524968765382  1.0000
  H   H222      1.0  0.06492484361782647  0.8064985165645893  0.5321485633067883  1.0000
  H   H223      1.0  0.05874599132254499  0.8697125160253091  0.5877500565571502  1.0000
  H   H224      1.0  0.09652413704034424  0.87579206523542  0.5981040447427453  1.0000
  H   H225      1.0  0.0652092570242051  0.8586988118643455  0.6347332728221451  1.0000
  H   H226      1.0  0.021924012151802286  0.803824844974817  0.6263290493130139  1.0000
  H   H227      1.0  0.021133886336462515  0.7827592079619792  0.5823191395865333  1.0000
  H   H228      1.0  0.014873696813727078  0.81586261652172  0.5805052074047294  1.0000
  N   N8        1.0  0.7267499225040324  0.9262818195537136  0.15772504778198304  1.0000
  C   C245      1.0  0.7050366777641748  0.8938560195931736  0.1452979584088665  1.0000
  C   C246      1.0  0.7166655857443804  0.9319245181424799  0.19722712104441342  1.0000
  C   C247      1.0  0.7268584740908264  0.9487697398373894  0.12943675906858357  1.0000
  C   C248      1.0  0.7584360816994046  0.9306709491132853  0.1591252116291621  1.0000
  H   H229      1.0  0.7119960548736445  0.8885461613175837  0.11575016972537015  1.0000
  H   H230      1.0  0.6808744699057402  0.889733606329279  0.14403042104712216  1.0000
  H   H231      1.0  0.7039417935707365  0.8762466074662904  0.16633655917273427  1.0000
  H   H232      1.0  0.7319192181072384  0.9564508150878781  0.20714274720547587  1.0000
  H   H233      1.0  0.6922746632216372  0.9273132147482327  0.19810295425338884  1.0000
  H   H234      1.0  0.7177898096274437  0.9163105048101056  0.21935965052261036  1.0000
  H   H235      1.0  0.7431140254369238  0.9734496905051738  0.13794397888696922  1.0000
  H   H236      1.0  0.7033124649861513  0.9462036290717579  0.1280247611511438  1.0000
  H   H237      1.0  0.734206371525482  0.9450711745975402  0.09922076889794863  1.0000
  H   H238      1.0  0.7591466868822802  0.9138934221900201  0.1800223576311306  1.0000
  H   H239      1.0  0.7751972875437023  0.9546295170964798  0.16959528582476424  1.0000
  H   H240      1.0  0.7672004879953127  0.9271209309170738  0.12978334232585517  1.0000
  N   N9        1.0  0.1029519846318652  0.3679904807080007  0.19292962203848324  1.0000
  C   C249      1.0  0.12155182948307741  0.37769703360352985  0.22832653119914356  1.0000
  C   C250      1.0  0.11745688981320329  0.39342712441883076  0.16323908396473427  1.0000
  C   C251      1.0  0.07105463051493287  0.361536204157567  0.20380514496961824  1.0000
  C   C252      1.0  0.10177117340155607  0.3392551901758938  0.1764381662948315  1.0000
  H   H241      1.0  0.11089884768174771  0.3594628116808285  0.2517662439955553  1.0000
  H   H242      1.0  0.12377414807560075  0.3998005339617034  0.24100962611613355  1.0000
  H   H243      1.0  0.1453969709014582  0.3816736653068406  0.22156139131509675  1.0000
  H   H244      1.0  0.10441684796766816  0.386776021867778  0.1357758084090874  1.0000
  H   H245      1.0  0.11847821971808105  0.41540449376125316  0.17452656759929158  1.0000
  H   H246      1.0  0.14172961342510007  0.39914587112912153  0.15495636843389554  1.0000
  H   H247      1.0  0.056321113386520134  0.3541820019289117  0.1778259910044925  1.0000
  H   H248      1.0  0.07103377887835398  0.38256769774379223  0.21683204159504751  1.0000
  H   H249      1.0  0.05950329043131692  0.34225944951626464  0.22602619065168306  1.0000
  H   H250      1.0  0.08780008049029629  0.33113278094076176  0.1497935171437498  1.0000
  H   H251      1.0  0.09107209034182234  0.3196161781119245  0.19818500589479385  1.0000
  H   H252      1.0  0.12543448477179103  0.34323281129136585  0.16793198197729672  1.0000
  N   N10       1.0  0.6355605445270228  0.9030207254230095  0.7551823248392728  1.0000
  C   C253      1.0  0.6329172201372549  0.9011264782168183  0.7120123167417286  1.0000
  C   C254      1.0  0.6398431806232725  0.9335811460854654  0.7693447857477759  1.0000
  C   C255      1.0  0.6626556434956212  0.9001031761274924  0.7651103896270611  1.0000
  C   C256      1.0  0.6070554821214174  0.8772328651516279  0.7741876975443202  1.0000
  H   H253      1.0  0.6132351884564112  0.9040821405510825  0.7031529364736284  1.0000
  H   H254      1.0  0.6289052952047381  0.8779363241647336  0.7007203066093843  1.0000
  H   H255      1.0  0.6545924896744969  0.9195086884449145  0.6966677672129279  1.0000
  H   H256      1.0  0.6420185084192285  0.9356509325902592  0.8018397129343591  1.0000
  H   H257      1.0  0.6613262492640759  0.953400260163496  0.7555496759442052  1.0000
  H   H258      1.0  0.6198806697600473  0.9367271791463182  0.7622984705538263  1.0000
  H   H259      1.0  0.6650811090192402  0.900627427631224  0.7974845396910646  1.0000
  H   H260      1.0  0.6846937146741201  0.9194668999251415  0.7519710251443295  1.0000
  H   H261      1.0  0.6605210557196467  0.8776894303531209  0.7538028484723173  1.0000
  H   H262      1.0  0.6028359640423397  0.8539044562026442  0.7632138156901975  1.0000
  H   H263      1.0  0.5861573183559036  0.8790627740446649  0.7682736857289703  1.0000
  H   H264      1.0  0.6086888443407819  0.8770452428232852  0.8067294812816389  1.0000
  N   N11       1.0  0.7868445034366984  0.7004274013935744  0.8191745403866347  1.0000
  C   C257      1.0  0.77237197106448  0.6801673412193996  0.7849808356114425  1.0000
  C   C258      1.0  0.8002045843809618  0.7337173321731906  0.8076405754676591  1.0000
  C   C259      1.0  0.811649331828222  0.6949093139923838  0.8326950283091428  1.0000
  C   C260      1.0  0.7629984991767772  0.6928388102439321  0.8513914867120039  1.0000
  H   H265      1.0  0.7898943733960073  0.6845501852502981  0.7605270050517858  1.0000
  H   H266      1.0  0.7544627759564243  0.6846792597353044  0.7729280935072567  1.0000
  H   H267      1.0  0.7609584921162655  0.6548620249906917  0.7929175391478016  1.0000
  H   H268      1.0  0.8113524866134184  0.7498372996567576  0.8325833570239163  1.0000
  H   H269      1.0  0.8181124334771289  0.7402071200504005  0.783201978163423  1.0000
  H   H270      1.0  0.7821486399418154  0.7386034540906693  0.7968738499013899  1.0000
  H   H271      1.0  0.8241615640022782  0.7108993106833289  0.8571846650811169  1.0000
  H   H272      1.0  0.8291978088829695  0.6986108259144073  0.8085275281438032  1.0000
  H   H273      1.0  0.8020992512861271  0.670422800069801  0.843538304774347  1.0000
  H   H274      1.0  0.7731031398427084  0.7076909316200249  0.877699674583291  1.0000
  H   H275      1.0  0.7524227430746229  0.6678375159048544  0.860783835538698  1.0000
  H   H276      1.0  0.7438899797164832  0.6966509428294293  0.842105813447462  1.0000
  N   N12       1.0  0.7809868932727849  0.690170709915074  0.17809789192627637  1.0000
  C   C261      1.0  0.7613102221798222  0.6724824979756656  0.21279262735360913  1.0000
  C   C262      1.0  0.7739896783707219  0.715150456576071  0.16804313047177685  1.0000
  C   C263      1.0  0.7747668221065074  0.6685245847962327  0.14446989288288298  1.0000
  C   C264      1.0  0.8140356058900639  0.7045715302269258  0.1872378355282968  1.0000
  H   H277      1.0  0.7659301792851491  0.6533630736973611  0.2211027470422253  1.0000
  H   H278      1.0  0.7361760838305347  0.6614182458367557  0.20710673359701764  1.0000
  H   H279      1.0  0.765754860778628  0.6879492032551227  0.23891948698728743  1.0000
  H   H280      1.0  0.7884730752226534  0.7289814710226633  0.14201178094352335  1.0000
  H   H281      1.0  0.7491599062215382  0.7052699009290386  0.1612883454659671  1.0000
  H   H282      1.0  0.7788389146925262  0.7320084070760647  0.19282166835214776  1.0000
  H   H283      1.0  0.7895240510757525  0.6809404243267398  0.11789110865419956  1.0000
  H   H284      1.0  0.7500409182025777  0.6571802365742568  0.13659822859601073  1.0000
  H   H285      1.0  0.779802070986651  0.6493988332643419  0.15139902329934296  1.0000
  H   H286      1.0  0.8297001037530897  0.7182641905453189  0.16189783099705485  1.0000
  H   H287      1.0  0.8201654632329527  0.6864348577130042  0.19492766626919825  1.0000
  H   H288      1.0  0.8195374350613249  0.720899418115284  0.21259484474086815  1.0000
  N   N13       1.0  0.34060263277504055  0.11771051839728137  0.8093887354850755  1.0000
  C   C265      1.0  0.3563607141562681  0.13623791434001228  0.844239618529304  1.0000
  C   C266      1.0  0.3560457893001143  0.1363612245280932  0.7734554821216547  1.0000
  C   C267      1.0  0.3076740456489354  0.10987298385581613  0.8119169527684637  1.0000
  C   C268      1.0  0.3423536033315635  0.08846126091955783  0.8075992689711338  1.0000
  H   H289      1.0  0.34549385961332774  0.12295670157653149  0.8720384260893858  1.0000
  H   H290      1.0  0.3552790810630147  0.15843148829522158  0.8461559680397591  1.0000
  H   H291      1.0  0.38142570520030333  0.14305416050532918  0.8430343653971282  1.0000
  H   H292      1.0  0.34573950759462996  0.12276470982948373  0.7464887598355725  1.0000
  H   H293      1.0  0.3537619075960227  0.15779228080461255  0.772722389245707  1.0000
  H   H294      1.0  0.38120894381570514  0.1437827732586559  0.7712459999722868  1.0000
  H   H295      1.0  0.29494930483623555  0.09492804985990828  0.8379934852056268  1.0000
  H   H296      1.0  0.29540817615111775  0.09695375126813571  0.7852474674195854  1.0000
  H   H297      1.0  0.30555080257492767  0.1314542202655732  0.8143936054322861  1.0000
  H   H298      1.0  0.33049305090266073  0.07416013459073527  0.7814477284365033  1.0000
  H   H299      1.0  0.33104339443960945  0.07374703554408711  0.8342935503094309  1.0000
  H   H300      1.0  0.36690627187046476  0.09357853367849303  0.8051119573127479  1.0000
  N   N14       1.0  0.6872805315280371  0.37591911015927787  0.9913371928511551  1.0000
  C   C269      1.0  0.6893284180088464  0.3845319417424665  0.0334422888568764  1.0000
  C   C270      1.0  0.7022326023230187  0.4048390529702395  0.9671287387983324  1.0000
  C   C271      1.0  0.6542900096596366  0.3568111121881307  0.9817732495601172  1.0000
  C   C272      1.0  0.7032638994479552  0.357540869519351  0.9830796999953721  1.0000
  H   H301      1.0  0.6782611206489886  0.36335885544918656  0.05271520545530506  1.0000
  H   H302      1.0  0.677561204309678  0.3985368982763716  0.04063359186925092  1.0000
  H   H303      1.0  0.713937292915457  0.39901097437830907  0.04158489009655305  1.0000
  H   H304      1.0  0.7011054310589432  0.3994645379475736  0.9351266330279784  1.0000
  H   H305      1.0  0.690881397548844  0.41937668426384483  0.9730089070548904  1.0000
  H   H306      1.0  0.7271884310119713  0.419807850912736  0.9734924270568264  1.0000
  H   H307      1.0  0.6518509380843717  0.3497452508186051  0.9502830312037279  1.0000
  H   H308      1.0  0.6416267585039378  0.3700731941976269  0.9872310441244911  1.0000
  H   H309      1.0  0.6421397625651749  0.3349750779137513  0.9998810315497845  1.0000
  H   H310      1.0  0.7021619160734615  0.3505817249128339  0.9515960574161945  1.0000
  H   H311      1.0  0.6928003034105453  0.3356918506483234  0.001164292881473239  1.0000
  H   H312      1.0  0.7282177882383256  0.37128884145512137  0.9897097920993716  1.0000
  N   N15       1.0  0.2759676862429584  0.222208707845995  0.5734460644071016  1.0000
  C   C273      1.0  0.2834442559644315  0.22175613843146225  0.530877942107221  1.0000
  C   C274      1.0  0.2681027678972426  0.1917808985093221  0.5911584660881511  1.0000
  C   C275      1.0  0.24919640589003128  0.22759457047299167  0.5793600107372718  1.0000
  C   C276      1.0  0.30319873258947416  0.24759626852083394  0.5925055931959328  1.0000
  H   H313      1.0  0.28888485400012104  0.24408767660237704  0.5162806581942353  1.0000
  H   H314      1.0  0.2639218637076466  0.202068731368025  0.5157568100457895  1.0000
  H   H315      1.0  0.3040647173705034  0.2185562200952797  0.5256343262925478  1.0000
  H   H316      1.0  0.26262210990118534  0.19136446259191248  0.6233141748313891  1.0000
  H   H317      1.0  0.24763407196182652  0.17190047741644804  0.5777822702934221  1.0000
  H   H318      1.0  0.28779239140719465  0.1870269120813648  0.5872118701427691  1.0000
  H   H319      1.0  0.25443826919581014  0.2506691945860386  0.5671657245988775  1.0000
  H   H320      1.0  0.24270177326732817  0.22750069819832405  0.6111828818605711  1.0000
  H   H321      1.0  0.22831183335913352  0.2089215610596731  0.5651949839222566  1.0000
  H   H322      1.0  0.3098909353432305  0.2709781091215143  0.5799802462530618  1.0000
  H   H323      1.0  0.3237689976563743  0.2440940940376504  0.5887232026480653  1.0000
  H   H324      1.0  0.29845209085496927  0.24842133006240594  0.6247029742821739  1.0000
  N   N16       1.0  0.24895832651485209  0.9389249516668625  0.4343654194869381  1.0000
  C   C277      1.0  0.23185678243491456  0.9341467694547879  0.4728139115732238  1.0000
  C   C278      1.0  0.2286535263618689  0.9150837091458914  0.4062212208320747  1.0000
  C   C279      1.0  0.27674815380723083  0.9357613642893008  0.4391513210494682  1.0000
  C   C280      1.0  0.25853047789098543  0.9706229280233613  0.4191609460757635  1.0000
  H   H325      1.0  0.24650449614053074  0.9514792424966223  0.495024695546817  1.0000
  H   H326      1.0  0.22383908879529307  0.910241716246606  0.4848527280120659  1.0000
  H   H327      1.0  0.21089185306327704  0.9366639592754321  0.47024777713875543  1.0000
  H   H328      1.0  0.2406747373029329  0.9182346736681873  0.3767106034987649  1.0000
  H   H329      1.0  0.22102807763001145  0.8907903239273429  0.4164348715189792  1.0000
  H   H330      1.0  0.20740307587348025  0.9167062850343287  0.4020217213853131  1.0000
  H   H331      1.0  0.27022154884736554  0.9120391709245282  0.45052951722790596  1.0000
  H   H332      1.0  0.29267325154266993  0.9534402286129893  0.46014356731195255  1.0000
  H   H333      1.0  0.29004610847791623  0.9390969088051639  0.41055401380878054  1.0000
  H   H334      1.0  0.27160717120094624  0.9750584305649871  0.390182946556321  1.0000
  H   H335      1.0  0.27359005854599927  0.9893219184461703  0.43976322847620536  1.0000
  H   H336      1.0  0.23802719861820754  0.9735422049789332  0.41436829079586057  1.0000
  N   N17       1.0  0.48582501265643196  0.19379445862570466  0.11833911116737605  1.0000
  C   C281      1.0  0.47897623398891515  0.17459824336792412  0.08222366566737929  1.0000
  C   C282      1.0  0.45766362552995643  0.18118494625559836  0.14492759210061099  1.0000
  C   C283      1.0  0.4955289247379281  0.22652674068297463  0.1077450212332795  1.0000
  C   C284      1.0  0.5112520292192442  0.19305681810535916  0.13825728470969598  1.0000
  H   H337      1.0  0.49957598228849587  0.18404729409271728  0.06108694267210808  1.0000
  H   H338      1.0  0.4595413503612727  0.17427238471656806  0.06681128743227331  1.0000
  H   H339      1.0  0.4722525259435555  0.1498694522835696  0.08891492923784704  1.0000
  H   H340      1.0  0.461957945139553  0.1950946538246577  0.17255562990596632  1.0000
  H   H341      1.0  0.438193164011819  0.18182900114230216  0.13079178180842344  1.0000
  H   H342      1.0  0.4494434671118074  0.1564122017882941  0.1533966588841633  1.0000
  H   H343      1.0  0.4996384989190598  0.2414744366642581  0.13432627419049092  1.0000
  H   H344      1.0  0.4776874428117812  0.22784103503856354  0.09060799806466618  1.0000
  H   H345      1.0  0.5175011223282715  0.23730416291935985  0.0893184639964439  1.0000
  H   H346      1.0  0.5327413201109694  0.20237999605126308  0.11863232625578864  1.0000
  H   H347      1.0  0.5047988949430318  0.16873822161704174  0.14687206302462272  1.0000
  H   H348      1.0  0.5172803822998213  0.20765717591902194  0.16537418261207976  1.0000
  N   N18       1.0  0.7439475095241959  0.13127057617277055  0.2330510673186985  1.0000
  C   C285      1.0  0.7414134876000749  0.1571433114714566  0.21528300589486668  1.0000
  C   C286      1.0  0.7169333185562832  0.10080395234809998  0.22323520918692175  1.0000
  C   C287      1.0  0.7449724783388247  0.13511304790615847  0.27626385937391706  1.0000
  C   C288      1.0  0.7726800939504039  0.13202017834458035  0.21747780124902547  1.0000
  H   H349      1.0  0.7610952325789948  0.18045119234526608  0.2232575067522487  1.0000
  H   H350      1.0  0.7196018259212769  0.1568802110880851  0.22550685548053706  1.0000
  H   H351      1.0  0.7419530318154639  0.15587857192449334  0.1825325205441705  1.0000
  H   H352      1.0  0.7184265066216258  0.08095142157814739  0.23633662134631056  1.0000
  H   H353      1.0  0.6947584806796769  0.09928660219086413  0.2345747583362956  1.0000
  H   H354      1.0  0.7156459401646922  0.09717346105307814  0.19081600924592979  1.0000
  H   H355      1.0  0.7486027848390259  0.1169387455407384  0.29046709881013844  1.0000
  H   H356      1.0  0.7231400131422231  0.1333591154719997  0.289382537166578  1.0000
  H   H357      1.0  0.7643902443130298  0.15851133704670992  0.28447149619432954  1.0000
  H   H358      1.0  0.7751127982136456  0.11247397298720324  0.22951824866776457  1.0000
  H   H359      1.0  0.7935222225715135  0.1542287414032297  0.22553202748440104  1.0000
  H   H360      1.0  0.7732723757634502  0.1301203346560152  0.1848457644430979  1.0000
  N   N19       1.0  0.8274021056333896  0.7946374963833656  0.38381101629006636  1.0000
  C   C289      1.0  0.8116176822849757  0.8083220466627279  0.4083980418719053  1.0000
  C   C290      1.0  0.8415335353142779  0.8138298028409718  0.347856364662825  1.0000
  C   C291      1.0  0.8044598460940778  0.762294342322631  0.3727511635511385  1.0000
  C   C292      1.0  0.8519094416437474  0.7940349041128865  0.4061191377742186  1.0000
  H   H361      1.0  0.8282099789011886  0.8327658285881425  0.41726768480000703  1.0000
  H   H362      1.0  0.8005271058490684  0.7942149509130619  0.4356220787912898  1.0000
  H   H363      1.0  0.7930187674006601  0.8091066778758287  0.39219288882850584  1.0000
  H   H364      1.0  0.8531268998533296  0.8037898602182966  0.32819234906340516  1.0000
  H   H365      1.0  0.8237120410825448  0.8151150752502345  0.3306351688181803  1.0000
  H   H366      1.0  0.8593453107155771  0.8382835340644472  0.3548826417247077  1.0000
  H   H367      1.0  0.7850879860870562  0.7616934230962974  0.3569928320673264  1.0000
  H   H368      1.0  0.7941616944343356  0.7467482772728348  0.39904438080893834  1.0000
  H   H369      1.0  0.8154000840172426  0.7515754337188368  0.35320645058082234  1.0000
  H   H370      1.0  0.8640695891906114  0.7836171132124181  0.38832888188858017  1.0000
  H   H371      1.0  0.842053159969678  0.7793750686653453  0.4332182549834297  1.0000
  H   H372      1.0  0.8697372202686667  0.817983926855231  0.4149555166169486  1.0000
  N   N20       1.0  0.2180007656955981  0.5181603686782094  0.8320112131221854  1.0000
  C   C293      1.0  0.2031261384465698  0.5372177020183474  0.8248029744690596  1.0000
  C   C294      1.0  0.19986467118455165  0.49494342497550026  0.8633047825589548  1.0000
  C   C295      1.0  0.24996039057436045  0.5388868294982131  0.8445561433466527  1.0000
  C   C296      1.0  0.2190710220942906  0.5015429817708081  0.7956445019613725  1.0000
  H   H373      1.0  0.21620481602733355  0.5551149250275682  0.8014357972375568  1.0000
  H   H374      1.0  0.20209936066900822  0.5499610236715844  0.8519890039305239  1.0000
  H   H375      1.0  0.1788810924615079  0.5223023611338137  0.8155739881374302  1.0000
  H   H376      1.0  0.19782428472882618  0.5066040950552531  0.8908915737053955  1.0000
  H   H377      1.0  0.1759056160747634  0.478189472390681  0.854483933763673  1.0000
  H   H378      1.0  0.2110668045880044  0.48095190334791343  0.8704528197465035  1.0000
  H   H379      1.0  0.2500003558819855  0.5518415127295692  0.8718897198472927  1.0000
  H   H380      1.0  0.26443816308274565  0.5566089138883792  0.8215935382765629  1.0000
  H   H381      1.0  0.2617745437506493  0.5252381815728319  0.8507834737950958  1.0000
  H   H382      1.0  0.23049601035223005  0.48726505771161316  0.8003932345179268  1.0000
  H   H383      1.0  0.23238022579495188  0.5182627127100685  0.7712063418181389  1.0000
  H   H384      1.0  0.19533292887926892  0.4851895525970157  0.7856777278149701  1.0000
  N   N21       1.0  0.1315764246668877  0.9672663707343683  0.29381025045107717  1.0000
  C   C297      1.0  0.13548196547980665  0.9548341574598717  0.25521211989590403  1.0000
  C   C298      1.0  0.09854504559622725  0.9582647390879514  0.3011732746625882  1.0000
  C   C299      1.0  0.15096659629940834  0.001864268704147909  0.2938830781792421  1.0000
  C   C300      1.0  0.1412151130835513  0.9538760107991664  0.3250340154027851  1.0000
  H   H385      1.0  0.16009239287299892  0.9611558336605537  0.24861661012033134  1.0000
  H   H386      1.0  0.1283072617135909  0.9642859376953995  0.23088146498912285  1.0000
  H   H387      1.0  0.12131155015900544  0.9287269214317037  0.2544213606407428  1.0000
  H   H388      1.0  0.09457988477347941  0.9668000490329377  0.3303196924645127  1.0000
  H   H389      1.0  0.09048297411175867  0.9680821286021202  0.2782655930679952  1.0000
  H   H390      1.0  0.08334790644331924  0.9322218886934457  0.300994830982129  1.0000
  H   H391      1.0  0.1478414234212917  0.012108690711124748  0.3221285694816735  1.0000
  H   H392      1.0  0.14537194195319153  0.012830912094999425  0.2696187928259803  1.0000
  H   H393      1.0  0.17611033675284418  0.009362732646364114  0.2900867976599749  1.0000
  H   H394      1.0  0.13956097282494095  0.9634248858714562  0.35448378410646547  1.0000
  H   H395      1.0  0.16569609156306814  0.959135166488482  0.3196699814682416  1.0000
  H   H396      1.0  0.12626149278915055  0.9279115975297081  0.32659095575212843  1.0000
  N   N22       1.0  0.3323109000591365  0.6876289611177702  0.9908363853938065  1.0000
  C   C301      1.0  0.31861801774836235  0.7042850422019946  0.013590054605763013  1.0000
  C   C302      1.0  0.3648189118218256  0.7101834039414064  0.9783232377779081  1.0000
  C   C303      1.0  0.3140714129471338  0.6731466727110169  0.955776195606421  1.0000
  C   C304      1.0  0.3316399742573504  0.6628600380729174  0.015601772866443486  1.0000
  H   H397      1.0  0.2943710037888335  0.6878716576956561  0.024483586637109145  1.0000
  H   H398      1.0  0.31767798361616506  0.722343460871241  0.9952927722681713  1.0000
  H   H399      1.0  0.3322741995496396  0.7163796818687047  0.03964309058007154  1.0000
  H   H400      1.0  0.3759334492333622  0.6984815849495781  0.9610183581794512  1.0000
  H   H401      1.0  0.36621521776009586  0.7292953314314387  0.959706428406829  1.0000
  H   H402      1.0  0.3793012474866463  0.721557684755001  0.004067490872203594  1.0000
  H   H403      1.0  0.32370358565449836  0.6603854924048338  0.9378078056221705  1.0000
  H   H404      1.0  0.3138120008455063  0.6911259373110261  0.9365856144068618  1.0000
  H   H405      1.0  0.2894648541536268  0.6559531800314814  0.9642864283273282  1.0000
  H   H406      1.0  0.34505682527806164  0.6729200511128295  0.04244724510905162  1.0000
  H   H407      1.0  0.34190404009838926  0.6498614951753108  0.9993703232375631  1.0000
  H   H408      1.0  0.3074030223251178  0.6453196753619965  0.025336817278464707  1.0000
  N   N23       1.0  0.07236021344101769  0.7806366965523309  0.20487071278881577  1.0000
  C   C305      1.0  0.0851041160679764  0.7738200123430148  0.16803721500877059  1.0000
  C   C306      1.0  0.03854260980057043  0.7679989072259578  0.20234364874653002  1.0000
  C   C307      1.0  0.08773890443664542  0.8149735489487053  0.21078521334274605  1.0000
  C   C308      1.0  0.0781327792263473  0.7657907144696  0.23833927243531164  1.0000
  H   H409      1.0  0.1106125165492107  0.7830294885357193  0.16919836934921806  1.0000
  H   H410      1.0  0.0814607054014925  0.784861823789225  0.14213298608801941  1.0000
  H   H411      1.0  0.07410582980378927  0.7481261321659243  0.16262065939727557  1.0000
  H   H412      1.0  0.028358128189970924  0.7733028289323013  0.22941180290869828  1.0000
  H   H413      1.0  0.03325037204797032  0.778324937383671  0.17709871930971746  1.0000
  H   H414      1.0  0.025997038544374993  0.7420331222665746  0.19883449369058287  1.0000
  H   H415      1.0  0.07913734798005581  0.8209923556229504  0.2386177661714242  1.0000
  H   H416      1.0  0.08358089412048306  0.8269378258587669  0.1863707723682328  1.0000
  H   H417      1.0  0.11330644260178016  0.8253688255400738  0.21244536499049266  1.0000
  H   H418      1.0  0.06897623842988197  0.7705325447915633  0.2666845022827695  1.0000
  H   H419      1.0  0.10346016248061915  0.7747685090628428  0.24103855239829056  1.0000
  H   H420      1.0  0.0668479130304087  0.7398766714226935  0.2349018064425683  1.0000
  N   N24       1.0  0.35841947155110704  0.2713220619420689  0.19249810239906182  1.0000
  C   C309      1.0  0.3500953976428939  0.29613429657196616  0.20011459295405334  1.0000
  C   C310      1.0  0.3842638511150033  0.282234760585925  0.1623893557017819  1.0000
  C   C311      1.0  0.3311637395593752  0.24281284912470436  0.17823165016442746  1.0000
  C   C312      1.0  0.3681428031875059  0.26402400204438814  0.22931968321255322  1.0000
  H   H421      1.0  0.34273786173857346  0.30233570481893646  0.17295054281476024  1.0000
  H   H422      1.0  0.36997665307632177  0.31783111645536194  0.21149251613543113  1.0000
  H   H423      1.0  0.33043886622743823  0.28835189423731283  0.22251671272295898  1.0000
  H   H424      1.0  0.3776653202613567  0.2874029987762442  0.13388477942983024  1.0000
  H   H425      1.0  0.4051973987504182  0.3038279432762545  0.17198043548585085  1.0000
  H   H426      1.0  0.39130889081834064  0.26413350091724763  0.15653803910127284  1.0000
  H   H427      1.0  0.3229830407394844  0.24746268714339253  0.15067246498059494  1.0000
  H   H428      1.0  0.31130979798786695  0.23373696018362092  0.20044968296394974  1.0000
  H   H429      1.0  0.33667739626936466  0.22364045999437357  0.17197934034100185  1.0000
  H   H430      1.0  0.34972101757478335  0.2567154245881407  0.2531949285883263  1.0000
  H   H431      1.0  0.3894327193494095  0.28450853628774797  0.2402091868873078  1.0000
  H   H432      1.0  0.373118997098641  0.2444060669502456  0.22512325658486768  1.0000
  N   N25       1.0  0.23927459991109068  0.9255382697931126  0.8166735120257554  1.0000
  C   C313      1.0  0.2702818882343314  0.9476300040685295  0.8309769212738072  1.0000
  C   C314      1.0  0.24258126438484376  0.917263205326419  0.7753559676647549  1.0000
  C   C315      1.0  0.21954845332226192  0.9404142670514035  0.8190406139616184  1.0000
  C   C316      1.0  0.22464643513720609  0.8967947046502367  0.841173295145325  1.0000
  H   H433      1.0  0.26867784679579176  0.9544409004473987  0.862086410834744  1.0000
  H   H434      1.0  0.2819057696419855  0.9694826547550979  0.8128914479239934  1.0000
  H   H435      1.0  0.2856397629532429  0.9369750719981691  0.8295453173391265  1.0000
  H   H436      1.0  0.2531457333744636  0.9382582368512712  0.7557735185495875  1.0000
  H   H437      1.0  0.2572416305012905  0.9058523542916059  0.7722577963112127  1.0000
  H   H438      1.0  0.21966539636825197  0.9004266816994909  0.7638238172460473  1.0000
  H   H439      1.0  0.19590462387893207  0.9242666914162441  0.808550852366042  1.0000
  H   H440      1.0  0.22950606686224567  0.9619074021636425  0.800340614748289  1.0000
  H   H441      1.0  0.21656610443764746  0.9471977233977278  0.849697582304929  1.0000
  H   H442      1.0  0.22247946020516737  0.9021279683876965  0.8727723260072712  1.0000
  H   H443      1.0  0.23827924594531835  0.884239517361839  0.8390115836413073  1.0000
  H   H444      1.0  0.2008621121714224  0.8800901990903107  0.8317119014993943  1.0000
  N   N26       1.0  0.959731675679968  0.18252101645071855  0.370217627433956  1.0000
  C   C317      1.0  0.9894171217607335  0.19686021692044267  0.39020921195710717  1.0000
  C   C318      1.0  0.9603668106051115  0.1618507038427194  0.3382664866567462  1.0000
  C   C319      1.0  0.9554377390584774  0.20760761905406735  0.35348878686792434  1.0000
  C   C320      1.0  0.9337676775595033  0.16387037096194929  0.39881587663504153  1.0000
  H   H445      1.0  0.9934807888100078  0.17867003059101405  0.40327994809885725  1.0000
  H   H446      1.0  0.989711510012631  0.21281514846573082  0.4142259050105998  1.0000
  H   H447      1.0  0.009434127985372243  0.21105177581494003  0.36922525052097244  1.0000
  H   H448      1.0  0.9385549038041456  0.1511575795222395  0.32196585992213234  1.0000
  H   H449      1.0  0.9797669615058199  0.1751048151266463  0.3162721046463191  1.0000
  H   H450      1.0  0.9631736303299183  0.14237120905617684  0.34969724733044383  1.0000
  H   H451      1.0  0.9527541638317656  0.22248846483521617  0.3768704160423739  1.0000
  H   H452      1.0  0.9342677390774059  0.19770966857255595  0.3360677494452126  1.0000
  H   H453      1.0  0.9755245872992983  0.2232800143114098  0.3336593700412625  1.0000
  H   H454      1.0  0.9361073756060888  0.14465260244531788  0.41203582781203885  1.0000
  H   H455      1.0  0.9110414529683437  0.15298909553728715  0.38458390453099695  1.0000
  H   H456      1.0  0.9323280429555088  0.17878351271502516  0.42314127325924394  1.0000
  N   N27       1.0  0.7665479381739153  0.8007260296402644  0.5934614985196326  1.0000
  C   C321      1.0  0.7873646786894299  0.7888581491170183  0.604443513439734  1.0000
  C   C322      1.0  0.7644602839839095  0.799711323446008  0.5502408464353546  1.0000
  C   C323      1.0  0.7790957807234409  0.8334539914145075  0.6071570140705762  1.0000
  C   C324      1.0  0.7352599385435201  0.7808894603528549  0.6120621259139651  1.0000
  H   H457      1.0  0.7898159297053775  0.789970051168661  0.6367833029072454  1.0000
  H   H458      1.0  0.8111249625103983  0.8029960332792434  0.5906656069950017  1.0000
  H   H459      1.0  0.778330116970691  0.7639359345611791  0.595595828054085  1.0000
  H   H460      1.0  0.748702687196265  0.8083559807758065  0.5411749296138627  1.0000
  H   H461      1.0  0.7875760716575255  0.8147331480042833  0.5352868965300758  1.0000
  H   H462      1.0  0.7551101224857929  0.7753561137591497  0.5389362826122932  1.0000
  H   H463      1.0  0.7801511685962492  0.8349726355344962  0.6396916164409855  1.0000
  H   H464      1.0  0.7643459881962925  0.84345060140703  0.5988932778738772  1.0000
  H   H465      1.0  0.802980860133396  0.8490318220885898  0.5946120583336749  1.0000
  H   H466      1.0  0.7358741516851157  0.7813930448526898  0.6446898424215797  1.0000
  H   H467      1.0  0.725152229102335  0.7559771180716921  0.6027222290738478  1.0000
  H   H468      1.0  0.7188853144835693  0.7890891383903118  0.6042631258556574  1.0000
  N   N28       1.0  0.8494775857449615  0.5267749766671844  0.07196006937749536  1.0000
  C   C325      1.0  0.873434817473112  0.5578383868995593  0.08572744157890154  1.0000
  C   C326      1.0  0.820602111839118  0.5161989160785279  0.09671728980567064  1.0000
  C   C327      1.0  0.8604123130477157  0.5037766389964925  0.0748005581036437  1.0000
  C   C328      1.0  0.8433994239887291  0.5293293979655002  0.03052667375917743  1.0000
  H   H469      1.0  0.865598033206136  0.575562205995643  0.08401287652972676  1.0000
  H   H470      1.0  0.895484273171683  0.5667990391088019  0.06752244194451283  1.0000
  H   H471      1.0  0.8786772886661989  0.556903211592736  0.116910253934512  1.0000
  H   H472      1.0  0.8020803730036367  0.49264391635333515  0.08759616103371232  1.0000
  H   H473      1.0  0.8245031813133615  0.5146490550929395  0.12829955023369838  1.0000
  H   H474      1.0  0.8114048943923622  0.5327747315255408  0.09472081481051535  1.0000
  H   H475      1.0  0.8649973603441279  0.5009722737955504  0.10570381288162052  1.0000
  H   H476      1.0  0.882239577158298  0.5110874729838544  0.05658599855119274  1.0000
  H   H477      1.0  0.8428430048267437  0.48019150474880484  0.06415022292752302  1.0000
  H   H478      1.0  0.825257271490794  0.5064467022010732  0.01909028120459755  1.0000
  H   H479      1.0  0.8645884633076678  0.5370587496311044  0.010885862881442445  1.0000
  H   H480      1.0  0.8353668671351788  0.5466822374198967  0.027245559861601116  1.0000
  N   N29       1.0  0.8550186988902058  0.23830215987262865  0.9830628568610403  1.0000
  C   C329      1.0  0.8706552105394404  0.2685127499232842  0.9614937127214804  1.0000
  C   C330      1.0  0.8227824856751815  0.2195033824945389  0.970549043748167  1.0000
  C   C331      1.0  0.8546836288647129  0.24422365482158925  0.02586844170985793  1.0000
  C   C332      1.0  0.8718653952879701  0.22086466978991284  0.9742296011263808  1.0000
  H   H481      1.0  0.895123049573857  0.28333953835041364  0.9698719987124382  1.0000
  H   H482      1.0  0.8585570287742615  0.282316522230366  0.9674918446215159  1.0000
  H   H483      1.0  0.8707923552672999  0.2648752286598814  0.9290318488784236  1.0000
  H   H484      1.0  0.809904523077742  0.1968266614539811  0.9868638226153276  1.0000
  H   H485      1.0  0.809645853006498  0.23220565253357314  0.9763288524593098  1.0000
  H   H486      1.0  0.8220742156467602  0.2143658145818978  0.9384646945894412  1.0000
  H   H487      1.0  0.8429840160301776  0.22188926006240753  0.04300308923815927  1.0000
  H   H488      1.0  0.8416887231093371  0.2568906841710405  0.033701545214375545  1.0000
  H   H489      1.0  0.8785625124502969  0.25859058575933375  0.03646970600819251  1.0000
  H   H490      1.0  0.8605129726822832  0.1978692440433767  0.989908442657425  1.0000
  H   H491      1.0  0.896287620877665  0.23432212136756153  0.983388726773277  1.0000
  H   H492      1.0  0.8725237344508989  0.21606844001232622  0.9421221318999914  1.0000
  N   N30       1.0  0.9423532070178853  0.1376184773239535  0.7427695316577316  1.0000
  C   C333      1.0  0.9649566557521173  0.1277517120048019  0.7527158445028213  1.0000
  C   C334      1.0  0.9128203482136646  0.11874601527375994  0.7657985101742978  1.0000
  C   C335      1.0  0.9366309308403853  0.13259682567381545  0.7003258766721917  1.0000
  C   C336      1.0  0.9550099130751517  0.17127479423847236  0.7521512830375702  1.0000
  H   H493      1.0  0.987520888116237  0.14153083577529782  0.7357594606776958  1.0000
  H   H494      1.0  0.9561529311128121  0.10248152602697892  0.7459048890067882  1.0000
  H   H495      1.0  0.969850115817937  0.13121557453585064  0.7845448310997502  1.0000
  H   H496      1.0  0.8951982391938106  0.12548451134434066  0.7588891333149174  1.0000
  H   H497      1.0  0.902394765510196  0.09325767288310377  0.7589526467349945  1.0000
  H   H498      1.0  0.9160821049466711  0.12170760782470476  0.7980090175368633  1.0000
  H   H499      1.0  0.92036399387355  0.1406535553086591  0.6915566674467407  1.0000
  H   H500      1.0  0.9258873299393627  0.10726661891777073  0.6925114362713533  1.0000
  H   H501      1.0  0.9585154228102712  0.1455011912362924  0.6819844724801193  1.0000
  H   H502      1.0  0.9394505679914787  0.18011465413300196  0.7429290965030941  1.0000
  H   H503      1.0  0.978093133813334  0.18602249995091366  0.7368650097251381  1.0000
  H   H504      1.0  0.9581187746101258  0.17572103696866476  0.7842410722553218  1.0000
  N   N31       1.0  0.20463058791546615  0.24787231024461903  0.3759535166147102  1.0000
  C   C337      1.0  0.17650657682160942  0.23964594953687957  0.3543338653444523  1.0000
  C   C338      1.0  0.21575365668452576  0.22552875646506707  0.36553561207315705  1.0000
  C   C339      1.0  0.19706968437395347  0.24626882739320183  0.4187237702887499  1.0000
  C   C340      1.0  0.22917836157596935  0.28006864131436265  0.36521027082777585  1.0000
  H   H505      1.0  0.15760983551774105  0.21536496327659044  0.3611472730202756  1.0000
  H   H506      1.0  0.18142067113131577  0.24117500137894357  0.3219923887723571  1.0000
  H   H507      1.0  0.16730303449041842  0.2558348040530562  0.36169207478691184  1.0000
  H   H508      1.0  0.23742892512274363  0.23139157854936693  0.38042468221959236  1.0000
  H   H509      1.0  0.19802567391637993  0.20100435823737678  0.37356982701270663  1.0000
  H   H510      1.0  0.22106341958205997  0.22583952697206183  0.33338463579514654  1.0000
  H   H511      1.0  0.21782482799576086  0.2526642209102533  0.43595763812024196  1.0000
  H   H512      1.0  0.17861474163614444  0.22232082558427693  0.42789211958397777  1.0000
  H   H513      1.0  0.18843444321694364  0.26277903596236557  0.42731782092256065  1.0000
  H   H514      1.0  0.22176732254766748  0.29763425254964715  0.37301394564305745  1.0000
  H   H515      1.0  0.23495644088105025  0.28232280741766197  0.3330772555115767  1.0000
  H   H516      1.0  0.2509385495296374  0.28691894469859075  0.3804068734000311  1.0000
  N   N32       1.0  0.7900808436307989  0.06079458579650642  0.5793823726547244  1.0000
  C   C341      1.0  0.7809218207223066  0.027423312764456396  0.5849478798379238  1.0000
  C   C342      1.0  0.7880292196077783  0.06674528260076788  0.5375402658481109  1.0000
  C   C343      1.0  0.8223639766489476  0.08082507499316785  0.5912146894656949  1.0000
  C   C344      1.0  0.7690620224913548  0.06828307127644918  0.6038817791341966  1.0000
  H   H517      1.0  0.7828227953966647  0.02239568238223054  0.6161137232042141  1.0000
  H   H518      1.0  0.7959966660896248  0.02078004143081682  0.566525784606758  1.0000
  H   H519      1.0  0.7564493674774434  0.011540502534287657  0.5771631557204996  1.0000
  H   H520      1.0  0.7946343263841298  0.09175020692697068  0.5326061424777618  1.0000
  H   H521      1.0  0.8038667920267257  0.06175122697894231  0.5181615806461493  1.0000
  H   H522      1.0  0.7640216882479828  0.051976002713185004  0.5274740518305765  1.0000
  H   H523      1.0  0.8303050045815096  0.10612014595720444  0.5865728572726066  1.0000
  H   H524      1.0  0.8388099127922507  0.07531051284133335  0.5741099106574257  1.0000
  H   H525      1.0  0.8245856959517304  0.07771125099412193  0.6228939169682762  1.0000
  H   H526      1.0  0.7700868591770407  0.06421597479958396  0.6356475757656488  1.0000
  H   H527      1.0  0.7445044967700515  0.053662087075241734  0.5957428402594608  1.0000
  H   H528      1.0  0.7753893563694251  0.09333940194295913  0.6005352274036322  1.0000
  N   N33       1.0  0.06042524520758168  0.29994029759008844  0.5750950319446204  1.0000
  C   C345      1.0  0.026685443957908107  0.27752406508758504  0.5780092279040878  1.0000
  C   C346      1.0  0.07768439985766301  0.2829981081848477  0.5808470212671161  1.0000
  C   C347      1.0  0.068222599244867  0.32423459494592616  0.6057578106039532  1.0000
  C   C348      1.0  0.06917578344721527  0.31504470711199245  0.5358640838855578  1.0000
  H   H529      1.0  0.019528653605335462  0.2656243665338522  0.6072277204454023  1.0000
  H   H530      1.0  0.019860408079958983  0.2589066228547713  0.5552401858821706  1.0000
  H   H531      1.0  0.012849073610058373  0.2895090014870607  0.5744249585964498  1.0000
  H   H532      1.0  0.10320559196365421  0.2989717002530535  0.577910870806554  1.0000
  H   H533      1.0  0.07253867674190054  0.2722761274995902  0.6106158629182906  1.0000
  H   H534      1.0  0.0717970109141298  0.26388498917623654  0.5589919058834997  1.0000
  H   H535      1.0  0.09359287046651923  0.34142775103169226  0.6046364063298989  1.0000
  H   H536      1.0  0.061798576397786145  0.3136619627891154  0.6357705440675883  1.0000
  H   H537      1.0  0.055800621275524556  0.33765091394378977  0.6021681696082687  1.0000
  H   H538      1.0  0.09442073638984756  0.3325960942839925  0.5332943774854154  1.0000
  H   H539      1.0  0.05625564800815352  0.32764536457030985  0.5301603530455212  1.0000
  H   H540      1.0  0.06451404724013532  0.2975827603740024  0.5119870206973213  1.0000
  N   N34       1.0  0.5063089949549309  0.3207247085567719  0.8407005964727376  1.0000
  C   C349      1.0  0.517295906018496  0.30052151226615437  0.8572601847891106  1.0000
  C   C350      1.0  0.5220310689677949  0.33255079525198017  0.8017109010450265  1.0000
  C   C351      1.0  0.5135452241876959  0.34746948477339307  0.8673954172383568  1.0000
  C   C352      1.0  0.4723640613532322  0.30230104648838596  0.8365376858457836  1.0000
  H   H541      1.0  0.5051310725696543  0.29039410519198633  0.8860201121420959  1.0000
  H   H542      1.0  0.5426113773500484  0.3138863624865489  0.8624345779461599  1.0000
  H   H543      1.0  0.5128350914351768  0.2803455389341843  0.8376342107895732  1.0000
  H   H544      1.0  0.5144356600963825  0.3480591740361802  0.7884365106658495  1.0000
  H   H545      1.0  0.5477163656156376  0.3463493690209268  0.8038840904139337  1.0000
  H   H546      1.0  0.5168422157630888  0.31287638720948  0.7808634587795645  1.0000
  H   H547      1.0  0.5027430068357754  0.339294135221362  0.8974673931577584  1.0000
  H   H548      1.0  0.5050583888863935  0.3629494181332603  0.8564137903581948  1.0000
  H   H549      1.0  0.5390358557713455  0.3621634535155704  0.8708610167174813  1.0000
  H   H550      1.0  0.46319407438509097  0.31655745669999275  0.8235768056501565  1.0000
  H   H551      1.0  0.4598597246075249  0.29344107184803664  0.865603995818411  1.0000
  H   H552      1.0  0.46595853111493923  0.2815166162156476  0.8172232922859  1.0000
  N   N35       1.0  0.1123835768825877  0.7449871303479629  0.7643948656209851  1.0000
  C   C353      1.0  0.09717292020339369  0.7397738328261938  0.726585653396016  1.0000
  C   C354      1.0  0.10924138562717577  0.7695522752579536  0.7868153931667893  1.0000
  C   C355      1.0  0.14566564765139908  0.755114781219871  0.7566831297551267  1.0000
  C   C356      1.0  0.09740330602842337  0.7155417971201743  0.7875291489463226  1.0000
  H   H553      1.0  0.09868232515231896  0.7211425378645424  0.7089328586184902  1.0000
  H   H554      1.0  0.10811944517652661  0.7615749812559772  0.7084197604311074  1.0000
  H   H555      1.0  0.07216003865218583  0.7328043746373634  0.7312781142835555  1.0000
  H   H556      1.0  0.12007749293550665  0.7739037482893434  0.8157861009414299  1.0000
  H   H557      1.0  0.12043500054686591  0.7921329153186527  0.7702905363623195  1.0000
  H   H558      1.0  0.08439957950122111  0.7629829559550799  0.7924039739646382  1.0000
  H   H559      1.0  0.15801611853204575  0.7779105988585728  0.7404912854958593  1.0000
  H   H560      1.0  0.14894807962672807  0.7376352180114302  0.7386926416235255  1.0000
  H   H561      1.0  0.15769939003303354  0.758251999109792  0.7845522352770898  1.0000
  H   H562      1.0  0.10836606995239413  0.7187945246697017  0.8163175692006911  1.0000
  H   H563      1.0  0.09936488067984298  0.6964572808956947  0.7715791457758416  1.0000
  H   H564      1.0  0.07226176998322845  0.7072817242038999  0.7938834425244763  1.0000
  N   N36       1.0  0.8639813976609436  0.6094457812149976  0.6451858854359486  1.0000
  C   C357      1.0  0.8786729311620834  0.6175897578433829  0.6836082128906923  1.0000
  C   C358      1.0  0.8516281071950099  0.5756356889741457  0.6374753727741769  1.0000
  C   C359      1.0  0.8872270045544217  0.6280936438689928  0.6136546473176707  1.0000
  C   C360      1.0  0.8382815133063445  0.6165681096869887  0.6459929019843331  1.0000
  H   H565      1.0  0.8883687599594713  0.6430069992935009  0.6902580120402951  1.0000
  H   H566      1.0  0.8980207817024457  0.6123012378527881  0.6844034811771099  1.0000
  H   H567      1.0  0.8616189225065243  0.6045445444763774  0.7082672352735817  1.0000
  H   H568      1.0  0.8339230397983723  0.5610124386287382  0.6607271744871098  1.0000
  H   H569      1.0  0.8403497924678086  0.568809469782336  0.6086952813295747  1.0000
  H   H570      1.0  0.8703973161265398  0.5693785966155962  0.636683384943697  1.0000
  H   H571      1.0  0.8766669654889879  0.6232078107810053  0.5843858916587449  1.0000
  H   H572      1.0  0.906882139682005  0.6231748485720768  0.6116495824813183  1.0000
  H   H573      1.0  0.8970647020567639  0.6537650689967559  0.6187498875487628  1.0000
  H   H574      1.0  0.820610483084034  0.6037659090537746  0.6701199814933307  1.0000
  H   H575      1.0  0.8264532414893158  0.610654485942992  0.6175730922855124  1.0000
  H   H576      1.0  0.8471635852288126  0.6419846630297382  0.6506861422221996  1.0000
