data_image0
_chemical_formula_structural       FeS2FeS2FeSFeS3FeS2FeS2FeSFeS3FeS2FeS2FeSFeS3FeS2FeS2FeSFeS3FeS2FeS2FeSFeS3FeS2FeS2FeSFeS3FeS2FeS2FeSFeS3FeS2FeS2FeSFeS3FeS2FeS2FeSFeS3FeS2FeS2FeSFeS3FeS2FeS2FeSFeS3FeS2FeS2FeSFeS3C6H4C6H4C6H4C6H4C6H4C6H4C6H4C6H4C6H4C6H4C6H4C6H4C6H4C6H4C6H4C6H4C6H4C6H4C6H4C6H4C6H4C6H4C6H4C6H4NC4H12NC4H12NC4H12NC4H12NC4H12NC4H12NC4H12NC4H12NC4H12NC4H12NC4H12NC4H12NC4H12NC4H12NC4H12NC4H12NC4H12NC4H12NC4H12NC4H12NC4H12NC4H12NC4H12NC4H12
_chemical_formula_sum              "Fe48 S96 C240 H384 N24"
_cell_length_a       31.747006491290573
_cell_length_b       33.742258801135364
_cell_length_c       28.73689807532274
_cell_angle_alpha    95.34789771623022
_cell_angle_beta     90.99493883798996
_cell_angle_gamma    89.63399291287122

_space_group_name_H-M_alt    "P 1"
_space_group_IT_number       1

loop_
  _space_group_symop_operation_xyz
  'x, y, z'

loop_
  _atom_site_type_symbol
  _atom_site_label
  _atom_site_symmetry_multiplicity
  _atom_site_fract_x
  _atom_site_fract_y
  _atom_site_fract_z
  _atom_site_occupancy
  Fe  Fe1       1.0  0.9819318883704713  0.9398801853242749  0.4254012568472074  1.0000
  S   S1        1.0  0.9332091903763969  0.9337303549733835  0.4797474842268098  1.0000
  S   S2        1.0  0.01740045783110067  0.8848769065434078  0.39852350071039844  1.0000
  Fe  Fe2       1.0  0.9563298314438755  0.024887651886138062  0.4123652071154218  1.0000
  S   S3        1.0  0.9052204976117453  0.025714643057068276  0.46549125855991813  1.0000
  S   S4        1.0  0.9690703207809485  0.07910444424999019  0.3750328820824736  1.0000
  Fe  Fe3       1.0  0.9529006593180834  0.995184451469224  0.5079587032560184  1.0000
  S   S5        1.0  0.963795623824947  0.016353372159329194  0.583719782998219  1.0000
  Fe  Fe4       1.0  0.8903647044465116  0.9646967635383882  0.43178380497439084  1.0000
  S   S6        1.0  0.8254748273390237  0.9405129713375145  0.41471192357495484  1.0000
  S   S7        1.0  0.005657596782192131  0.9989210631879739  0.4575167121787436  1.0000
  S   S8        1.0  0.9378212678871315  0.9662434973710908  0.375221081580258  1.0000
  Fe  Fe5       1.0  0.8968372509522953  0.9224585632897442  0.7936344859922034  1.0000
  S   S9        1.0  0.9287670631764646  0.9777910092451129  0.8242948600757273  1.0000
  S   S10       1.0  0.8727074038221836  0.9095963832817557  0.7200231224689562  1.0000
  Fe  Fe6       1.0  0.8982185175669534  0.8851152247919134  0.8840718562882586  1.0000
  S   S11       1.0  0.9311850282277335  0.9364341795339642  0.924504818403595  1.0000
  S   S12       1.0  0.8806557608161301  0.8276033791251408  0.9122312322828582  1.0000
  Fe  Fe7       1.0  0.8871628379346299  0.9740784102181648  0.885584164880049  1.0000
  S   S13       1.0  0.8616786960099079  0.03187235050819459  0.9180892097801168  1.0000
  Fe  Fe8       1.0  0.9712313764922123  0.9372276249813924  0.8611204321468845  1.0000
  S   S14       1.0  0.03795666538499942  0.9585328247141238  0.8675113687982965  1.0000
  S   S15       1.0  0.8501350893054017  0.922970155867147  0.851158467495234  1.0000
  S   S16       1.0  0.9433441041950709  0.8817798639584776  0.8244344952419822  1.0000
  Fe  Fe9       1.0  0.7902914102634866  0.7460511677989471  0.14145576754224587  1.0000
  S   S17       1.0  0.7818511996395742  0.7781206444788985  0.2126561506478142  1.0000
  S   S18       1.0  0.8276104930450287  0.6890508853168044  0.13522963694020707  1.0000
  Fe  Fe10      1.0  0.7358812496457366  0.8046138540534371  0.09333629046267289  1.0000
  S   S19       1.0  0.7208263333120898  0.8411819510140216  0.1600980799420968  1.0000
  S   S20       1.0  0.7122418706286402  0.8231801272702179  0.02444160051638722  1.0000
  Fe  Fe11      1.0  0.7894486191499777  0.833910273447958  0.1768520547667559  1.0000
  S   S21       1.0  0.8286526279434122  0.8873046929894989  0.20025612943132362  1.0000
  Fe  Fe12      1.0  0.7142878430006813  0.7824505968136198  0.1900168041627397  1.0000
  S   S22       1.0  0.6632738598209692  0.7617110963036976  0.234527436486611  1.0000
  S   S23       1.0  0.8053549372228324  0.8014664763690237  0.10787951141249108  1.0000
  S   S24       1.0  0.7218442412897711  0.7465411704708128  0.12129507889181013  1.0000
  Fe  Fe13      1.0  0.8312019144038107  0.24922282505219298  0.4230321322323885  1.0000
  S   S25       1.0  0.7951872667969611  0.3004378987172018  0.4588310997255841  1.0000
  S   S26       1.0  0.810473073315416  0.1857184526472366  0.4175357042040465  1.0000
  Fe  Fe14      1.0  0.9026200853454673  0.30025136131095337  0.39617753080542245  1.0000
  S   S27       1.0  0.8734657126064516  0.35651361791251385  0.4285814795104787  1.0000
  S   S28       1.0  0.9625181122436324  0.30217467072934673  0.3560410164908015  1.0000
  Fe  Fe15      1.0  0.8583769838099932  0.32042030442511776  0.48774753249363895  1.0000
  S   S29       1.0  0.8723591964789729  0.3461840096619463  0.5610240907699937  1.0000
  Fe  Fe16      1.0  0.8130952769078532  0.33209818519872925  0.3967369800964829  1.0000
  S   S30       1.0  0.7676130274388506  0.3718643339412996  0.362271670112119  1.0000
  S   S31       1.0  0.8928677335025302  0.2659904007709723  0.4581955486563317  1.0000
  S   S32       1.0  0.8435218718082579  0.27899612157100245  0.35829316582052856  1.0000
  Fe  Fe17      1.0  0.9897548773777634  0.20075813969705072  0.8394015939342101  1.0000
  S   S33       1.0  0.9249019448957362  0.22728645281326487  0.8356747331693944  1.0000
  S   S34       1.0  0.008546959377512264  0.14421993056723176  0.8696615704305324  1.0000
  Fe  Fe18      1.0  0.029550570016135147  0.26412417009133393  0.7863978591030945  1.0000
  S   S35       1.0  0.9684210979733514  0.29574799097063703  0.777969543240032  1.0000
  S   S36       1.0  0.08841765073311114  0.29291335263725077  0.764160212490237  1.0000
  Fe  Fe19      1.0  0.958132282052054  0.2855545229559373  0.8525300734168825  1.0000
  S   S37       1.0  0.9406266212978632  0.3402948637192019  0.8982957195874253  1.0000
  Fe  Fe20      1.0  0.9411880718411828  0.234786022086907  0.7613307770932788  1.0000
  S   S38       1.0  0.8941188162880489  0.21625720249227662  0.7039451990237767  1.0000
  S   S39       1.0  0.02177691750502997  0.25839257240031893  0.862604725473741  1.0000
  S   S40       1.0  0.00354011134005372  0.2036832061709206  0.7635919068355564  1.0000
  Fe  Fe21      1.0  0.7498412291547056  0.4050533264702401  0.038869338202253356  1.0000
  S   S41       1.0  0.7902171214634396  0.4588228019915559  0.05811483468414958  1.0000
  S   S42       1.0  0.7565500504005277  0.35879802031741076  0.9775571724885802  1.0000
  Fe  Fe22      1.0  0.6924537044571971  0.4232045328966302  0.12177095950528306  1.0000
  S   S43       1.0  0.7275204367433163  0.4782408998516272  0.14846535390256774  1.0000
  S   S44       1.0  0.6360654998906002  0.4052758428996592  0.16059942140596015  1.0000
  Fe  Fe23      1.0  0.7288700395499088  0.4905251844904325  0.07327345502753402  1.0000
  S   S45       1.0  0.7095762242332919  0.5501951562926773  0.051143685799760474  1.0000
  Fe  Fe24      1.0  0.7852691691154033  0.44145578286707  0.13143139807313683  1.0000
  S   S46       1.0  0.8397641428617117  0.43697074905957806  0.18148010281587024  1.0000
  S   S47       1.0  0.6887551643109701  0.43836288770440807  0.04779323230374377  1.0000
  S   S48       1.0  0.7498638679666101  0.38510612538143835  0.11115166541779362  1.0000
  Fe  Fe25      1.0  0.23980233237999826  0.931788965838247  0.45982305950104424  1.0000
  S   S49       1.0  0.31005731469405917  0.9341150483359832  0.46807251589023924  1.0000
  S   S50       1.0  0.20596923686668916  0.8747072810965584  0.467072898241988  1.0000
  Fe  Fe26      1.0  0.2326247118242384  0.017246964997109426  0.4371177058140786  1.0000
  S   S51       1.0  0.30234534300963  0.027168422646110635  0.44202919522613965  1.0000
  S   S52       1.0  0.18801904744857637  0.0669474801498029  0.42493477111934896  1.0000
  Fe  Fe27      1.0  0.30670650272954036  0.9664155143170851  0.40339292722262654  1.0000
  S   S53       1.0  0.3481402898906227  0.9518678925201769  0.34179551497480104  1.0000
  Fe  Fe28      1.0  0.2987382788692158  0.9943787529382081  0.5058704673089298  1.0000
  S   S54       1.0  0.32790157414283555  0.018644607493885523  0.5739616220910898  1.0000
  S   S55       1.0  0.2370920341596536  0.9596739394539631  0.39217489125663374  1.0000
  S   S56       1.0  0.2285281800111854  0.9887691621649031  0.5041503514201393  1.0000
  Fe  Fe29      1.0  0.3099157669042587  0.8881663298610992  0.7641043768403531  1.0000
  S   S57       1.0  0.24422436736109898  0.9097051374582693  0.7775895919139681  1.0000
  S   S58       1.0  0.33271622733195844  0.8712026235769541  0.6918872079587584  1.0000
  Fe  Fe30      1.0  0.3350119012921265  0.8953951275640428  0.8657566187754039  1.0000
  S   S59       1.0  0.27153555113415173  0.9181431075291994  0.8893741905710125  1.0000
  S   S60       1.0  0.3871668963770609  0.8902815271020588  0.9188145768415139  1.0000
  Fe  Fe31      1.0  0.2460101213351922  0.8709074944812559  0.8364445038338688  1.0000
  S   S61       1.0  0.18848196906250148  0.8352621590976155  0.849186165129798  1.0000
  Fe  Fe32      1.0  0.27463231402842536  0.955122867067102  0.8288274912366019  1.0000
  S   S62       1.0  0.24801504521395545  0.016591475141208623  0.8287311062995144  1.0000
  S   S63       1.0  0.30916165645141114  0.8445122050619811  0.8180106730794617  1.0000
  S   S64       1.0  0.3406818559970927  0.9373470560891121  0.8099731309700888  1.0000
  Fe  Fe33      1.0  0.4427277626946225  0.7833146735250813  0.15840798857831806  1.0000
  S   S65       1.0  0.4489072132993413  0.7292476495222973  0.10759333937096138  1.0000
  S   S66       1.0  0.4914321178039094  0.8314232609532557  0.16605703482356726  1.0000
  Fe  Fe34      1.0  0.35772211303821  0.7601716401588842  0.19201543277553212  1.0000
  S   S67       1.0  0.3550351045474902  0.703670618597186  0.14410973763522694  1.0000
  S   S68       1.0  0.30902160258946126  0.779885070331867  0.24530305378076248  1.0000
  Fe  Fe35      1.0  0.42285728137136747  0.6962958679271976  0.16475315029495952  1.0000
  S   S69       1.0  0.44951822653145573  0.6369231313843986  0.17985253312526295  1.0000
  Fe  Fe36      1.0  0.3811732071022838  0.7408007423099955  0.0905927603117791  1.0000
  S   S70       1.0  0.3598502021713138  0.7342669004838249  0.015671878682351537  1.0000
  S   S71       1.0  0.42336827250202  0.7494056448183525  0.21786127056301124  1.0000
  S   S72       1.0  0.37705204458693453  0.79812666769637  0.13628802439381116  1.0000
  Fe  Fe37      1.0  0.1861239276238614  0.2942252017954701  0.42823206514587586  1.0000
  S   S73       1.0  0.2068923892215831  0.35735636925120473  0.4263044190644529  1.0000
  S   S74       1.0  0.13078439414214976  0.27729768802504295  0.46935515926914095  1.0000
  Fe  Fe38      1.0  0.2614814450276525  0.26021953349221116  0.37521345874543827  1.0000
  S   S75       1.0  0.2901374127200953  0.3197582824508749  0.3691381209169897  1.0000
  S   S76       1.0  0.2905166324663807  0.20341895498543627  0.3445829152247323  1.0000
  Fe  Fe39      1.0  0.27071542196065074  0.3333501261765592  0.4434562303921596  1.0000
  S   S77       1.0  0.3103723770626209  0.3616584447333038  0.5020350167707787  1.0000
  Fe  Fe40      1.0  0.2240319565447658  0.33833080399855764  0.3519760565234254  1.0000
  S   S78       1.0  0.20931614839294327  0.37167318387439713  0.2894581692864846  1.0000
  S   S79       1.0  0.24852081110798077  0.2717078214068787  0.45147629119169896  1.0000
  S   S80       1.0  0.19685655860217777  0.27713069799780726  0.3520671482140337  1.0000
  Fe  Fe41      1.0  0.3244625997518489  0.2667319434915165  0.7391252736665195  1.0000
  S   S81       1.0  0.2960300483456965  0.21337106806792125  0.7665606150704213  1.0000
  S   S82       1.0  0.3133091287447776  0.32891167670766014  0.7718442553736753  1.0000
  Fe  Fe42      1.0  0.3657459268013539  0.21784125872693297  0.6583544835341222  1.0000
  S   S83       1.0  0.3409444245685131  0.16008374380399454  0.6785745088520779  1.0000
  S   S84       1.0  0.39807937619021966  0.2179331252298614  0.590025896143191  1.0000
  Fe  Fe43      1.0  0.28100242738613673  0.194012429932816  0.6915346218112218  1.0000
  S   S85       1.0  0.21783963810476162  0.17113792286767945  0.6669782054134261  1.0000
  Fe  Fe44      1.0  0.3586507825277665  0.1846386741534667  0.7514483105573242  1.0000
  S   S86       1.0  0.38645288590722504  0.14555748335280919  0.8031572154969143  1.0000
  S   S87       1.0  0.3040107043657611  0.249854051852091  0.6650734649970906  1.0000
  S   S88       1.0  0.3891599201542961  0.23988808298405132  0.7301988337130336  1.0000
  Fe  Fe45      1.0  0.3969160390694986  0.44467716236631316  0.03644252745598942  1.0000
  S   S89       1.0  0.3994322883239324  0.3898154654956765  0.9860121462171274  1.0000
  S   S90       1.0  0.40519595826263377  0.506267575710011  0.014594511696860657  1.0000
  Fe  Fe46      1.0  0.3831267187632955  0.3984930038368487  0.1196426016836106  1.0000
  S   S91       1.0  0.3845634912203053  0.33905025105542164  0.07761114880430586  1.0000
  S   S92       1.0  0.3816924990094836  0.4079954001588797  0.19787549987109923  1.0000
  Fe  Fe47      1.0  0.4387289049526639  0.36401810835834886  0.0411496138622629  1.0000
  S   S93       1.0  0.49774240969665673  0.33062325644569474  0.020528469600428867  1.0000
  Fe  Fe48      1.0  0.34475547027624487  0.3693943832623704  0.025865652243469484  1.0000
  S   S94       1.0  0.2909090118564612  0.335267979624005  0.9898039149258467  1.0000
  S   S95       1.0  0.4412485844238878  0.42066039672819655  0.0879193065500723  1.0000
  S   S96       1.0  0.3382657420199595  0.4268399686227145  0.07142906605152467  1.0000
  C   C1        1.0  0.29347585612157784  0.3354305878653921  0.9290116988279841  1.0000
  C   C2        1.0  0.2788857041225994  0.3024424312499481  0.9002822315458824  1.0000
  C   C3        1.0  0.28379230793147625  0.3007499357897366  0.8517732090964216  1.0000
  C   C4        1.0  0.3028735435672522  0.33219628090302933  0.8318150068408262  1.0000
  C   C5        1.0  0.3151974775249797  0.3661738846436033  0.8603453615098696  1.0000
  C   C6        1.0  0.3107768514229271  0.36768758502472426  0.9089728490769687  1.0000
  H   H1        1.0  0.2650009757275994  0.2776440219223367  0.9156944653577862  1.0000
  H   H2        1.0  0.27258768739378736  0.2752272218496633  0.8299093316429418  1.0000
  H   H3        1.0  0.3294115412790117  0.39086418753246477  0.8449915419780877  1.0000
  H   H4        1.0  0.3208796689676751  0.39381293996574823  0.930888981907637  1.0000
  C   C7        1.0  0.25578585206185267  0.3864460847517137  0.264181854840093  1.0000
  C   C8        1.0  0.2579086252288223  0.38713499957627046  0.21559536003340488  1.0000
  C   C9        1.0  0.2964386257428457  0.394416077241983  0.1947623125651962  1.0000
  C   C10       1.0  0.33264332847638195  0.4013689038571355  0.2226881129070841  1.0000
  C   C11       1.0  0.3301736418278227  0.40196999750383194  0.2712796950672117  1.0000
  C   C12       1.0  0.2918019485024153  0.39452551591785595  0.2919928679218502  1.0000
  H   H5        1.0  0.2300675230770055  0.3807112630434218  0.1940025244301488  1.0000
  H   H6        1.0  0.29822789322404003  0.3938161663540893  0.15715542136949476  1.0000
  H   H7        1.0  0.3581127871173318  0.4075984633147787  0.29297441579631506  1.0000
  H   H8        1.0  0.29007520812919424  0.3950566217247483  0.3295866166930537  1.0000
  C   C13       1.0  0.33938672194365244  0.3236886973222328  0.5253995667609697  1.0000
  C   C14       1.0  0.34918420920720367  0.3264908715590761  0.5732053732414182  1.0000
  C   C15       1.0  0.3686869051514688  0.2944345985470529  0.5928342999657522  1.0000
  C   C16       1.0  0.37915149273829396  0.2598846196451358  0.5645302164658013  1.0000
  C   C17       1.0  0.3708122650628903  0.25767237827760947  0.5164091944141845  1.0000
  C   C18       1.0  0.350454464174696  0.28938784790979016  0.496931921403917  1.0000
  H   H9        1.0  0.3408574595720471  0.3530503571932533  0.5952368378797173  1.0000
  H   H10       1.0  0.37561159496953866  0.2964611508941471  0.6299735750382195  1.0000
  H   H11       1.0  0.3790841517427739  0.23111349967249625  0.4944058566906965  1.0000
  H   H12       1.0  0.34340208025979824  0.2873443503772118  0.45983469640982927  1.0000
  C   C19       1.0  0.44013553995676186  0.6013163706497409  0.1323907069479382  1.0000
  C   C20       1.0  0.41920657359662866  0.6118296992783249  0.09208188180128697  1.0000
  C   C21       1.0  0.4092332759225626  0.5825569972253688  0.055698333813308805  1.0000
  C   C22       1.0  0.4194574613164292  0.5426214259615844  0.05983347536215678  1.0000
  C   C23       1.0  0.44109100271744717  0.5322869174497478  0.09983584598954565  1.0000
  C   C24       1.0  0.4517151339584685  0.561598892193032  0.1358669080516699  1.0000
  H   H13       1.0  0.41037934368761364  0.6424687011249034  0.0888998841477069  1.0000
  H   H14       1.0  0.3928347266928723  0.5908369102353334  0.02466831148839233  1.0000
  H   H15       1.0  0.4499383490474338  0.5018485044269294  0.1030646664246  1.0000
  H   H16       1.0  0.46822791121371293  0.5534053400335819  0.16683600724441483  1.0000
  C   C25       1.0  0.287230753499434  0.051603526936724986  0.8221388154012177  1.0000
  C   C26       1.0  0.32563727220969474  0.050751954693069035  0.846748112705078  1.0000
  C   C27       1.0  0.3559024943507653  0.08030324788650083  0.8421061657201666  1.0000
  C   C28       1.0  0.34813845429732204  0.10980944571779679  0.8118006146485267  1.0000
  C   C29       1.0  0.3101456014168022  0.10973676733239666  0.786467447602295  1.0000
  C   C30       1.0  0.27957597189980515  0.08110009055357992  0.7920763072979188  1.0000
  H   H17       1.0  0.3315532660744592  0.02789309676484475  0.870125928051929  1.0000
  H   H18       1.0  0.38528703530580216  0.08009872839935772  0.8617223230110772  1.0000
  H   H19       1.0  0.30420583100291526  0.13133581003530115  0.7618771765242344  1.0000
  H   H20       1.0  0.2503787592637037  0.08133678582752535  0.7721458946754965  1.0000
  C   C31       1.0  0.3875815731937983  0.8442984042717647  0.9426023063492002  1.0000
  C   C32       1.0  0.4023260729045614  0.8419734650774975  0.9884587912414329  1.0000
  C   C33       1.0  0.39700120037545455  0.8068412500967636  0.010196300346598797  1.0000
  C   C34       1.0  0.37686960594453983  0.7741373233639697  0.9860488449868869  1.0000
  C   C35       1.0  0.3658255906289923  0.7752898827622673  0.9389282538720279  1.0000
  C   C36       1.0  0.3708407177550328  0.8104564525061525  0.9173421847691267  1.0000
  H   H21       1.0  0.4159533651664397  0.8679216644464105  0.007908477650348411  1.0000
  H   H22       1.0  0.4069134053409024  0.805757992215883  0.04611412561014738  1.0000
  H   H23       1.0  0.3517755202847349  0.749480670832891  0.9196217073520464  1.0000
  H   H24       1.0  0.3615058567531706  0.8113442058948211  0.8812793637657088  1.0000
  C   C37       1.0  0.21505045447417565  0.10398627310548303  0.3992824975947068  1.0000
  C   C38       1.0  0.20166297928892923  0.14344775337420868  0.4073901327204713  1.0000
  C   C39       1.0  0.22407284757929535  0.1737764040393806  0.38908016871131035  1.0000
  C   C40       1.0  0.26043230857613786  0.1648119363424074  0.3632590663689733  1.0000
  C   C41       1.0  0.2735610426187025  0.1252150619952291  0.35451114809224676  1.0000
  C   C42       1.0  0.25075347942025455  0.09473785827843284  0.37244994398655074  1.0000
  H   H25       1.0  0.17480406659219844  0.15072097077265934  0.4291559098311669  1.0000
  H   H26       1.0  0.21361247118613338  0.20415053827104776  0.39597563581478495  1.0000
  H   H27       1.0  0.3016025713821677  0.11813399493234154  0.3344537720833742  1.0000
  H   H28       1.0  0.2607715562366038  0.0641175925913231  0.3653610392598434  1.0000
  C   C43       1.0  0.32065913992910244  0.8274578384232559  0.2722696476363111  1.0000
  C   C44       1.0  0.34033826013056045  0.855688570484399  0.24748072441692845  1.0000
  C   C45       1.0  0.34855696390434876  0.8939340557785185  0.26892669519590257  1.0000
  C   C46       1.0  0.33690902403406975  0.9041770986017432  0.3152027212634098  1.0000
  C   C47       1.0  0.3172232910398383  0.8760052632415524  0.3401241146475515  1.0000
  C   C48       1.0  0.30929510013156924  0.837613666779175  0.31869964980744603  1.0000
  H   H29       1.0  0.34858405482001675  0.8484368105678155  0.21149013521477353  1.0000
  H   H30       1.0  0.36349860022534497  0.9157427706994636  0.24941103113124277  1.0000
  H   H31       1.0  0.3085380160135303  0.8835979823730233  0.37607300153295714  1.0000
  H   H32       1.0  0.2946754475273707  0.8156391295725843  0.33823705376464464  1.0000
  C   C49       1.0  0.3315891472849924  0.9787302360911744  0.6081499126978608  1.0000
  C   C50       1.0  0.3132691870201437  0.9813862908022618  0.6522501417519796  1.0000
  C   C51       1.0  0.31478950847377174  0.9486830604417783  0.6788729510936982  1.0000
  C   C52       1.0  0.33432803765801844  0.9132994999695923  0.6611324676784848  1.0000
  C   C53       1.0  0.3530826787431932  0.9108564205583195  0.6172906915944227  1.0000
  C   C54       1.0  0.3515385457019361  0.9435444853329215  0.5906747470081019  1.0000
  H   H33       1.0  0.29703498321525124  0.008356622235918376  0.6653423907608185  1.0000
  H   H34       1.0  0.30004258599105166  0.950636629225314  0.7126364557454776  1.0000
  H   H35       1.0  0.3680302845367235  0.8834066347589407  0.6035213220473016  1.0000
  H   H36       1.0  0.3657244429104932  0.9414874559211044  0.5565653549064963  1.0000
  C   C55       1.0  0.5992352375141143  0.37949532424609367  0.12341013113376881  1.0000
  C   C56       1.0  0.5577112021814208  0.37649246756012333  0.13805285604279652  1.0000
  C   C57       1.0  0.5268177960759496  0.3596975891125033  0.10700823771357588  1.0000
  C   C58       1.0  0.5374584507527078  0.3455899913610433  0.06141028681721573  1.0000
  C   C59       1.0  0.5794897110134738  0.34646271237299986  0.04760489547303882  1.0000
  C   C60       1.0  0.6103767372566096  0.3637029349618944  0.07853361763289435  1.0000
  H   H37       1.0  0.5490970490005571  0.38830533444641874  0.17292852625837893  1.0000
  H   H38       1.0  0.4946442450387525  0.3579416660102462  0.11832776602557982  1.0000
  H   H39       1.0  0.5879230162451746  0.33521521693767053  0.012473342943017274  1.0000
  H   H40       1.0  0.6426568979287547  0.3651456534180089  0.06738959497275988  1.0000
  C   C61       1.0  0.1233434492423493  0.2592048969548767  0.7352918292458647  1.0000
  C   C62       1.0  0.10917923048243483  0.2233263282625957  0.7121042872874368  1.0000
  C   C63       1.0  0.13808669030073029  0.19630291740914363  0.6902809806007849  1.0000
  C   C64       1.0  0.18109803726106702  0.20508601644944593  0.6922404984814972  1.0000
  C   C65       1.0  0.195003169953431  0.24121811978304036  0.7149187990105558  1.0000
  C   C66       1.0  0.16618559289083557  0.2683945883617519  0.7360051198564576  1.0000
  H   H41       1.0  0.07599942160485273  0.21660129131227976  0.7103925703488029  1.0000
  H   H42       1.0  0.12720745360423974  0.16850673424089235  0.6724075808880974  1.0000
  H   H43       1.0  0.22801092874803508  0.24838581442565202  0.7165033275871391  1.0000
  H   H44       1.0  0.17732347341526  0.2962060987845594  0.7535304612071377  1.0000
  C   C67       1.0  0.8902320585959567  0.34339545983485453  0.9224669493322927  1.0000
  C   C68       1.0  0.8611422672658023  0.31243602021796746  0.914230368850606  1.0000
  C   C69       1.0  0.8199678443218784  0.3173608253568037  0.9310599962434338  1.0000
  C   C70       1.0  0.8082309816486923  0.3527535447042862  0.9572105000147261  1.0000
  C   C71       1.0  0.8375971988945287  0.3832933469091798  0.9659578465605381  1.0000
  C   C72       1.0  0.8784039964517414  0.37870882534678735  0.9484386952282151  1.0000
  H   H45       1.0  0.8702463497342616  0.28476480110122887  0.8950336910516996  1.0000
  H   H46       1.0  0.7973664859288897  0.293538951058602  0.9245335692139957  1.0000
  H   H47       1.0  0.828735903311525  0.410805679217918  0.9854837604184338  1.0000
  H   H48       1.0  0.9007657965177243  0.4027631807417108  0.9548425879605944  1.0000
  C   C73       1.0  0.008784344409370037  0.2972278627310038  0.38912767901952267  1.0000
  C   C74       1.0  0.047589816693788256  0.3040285102414998  0.3690575581603122  1.0000
  C   C75       1.0  0.08508993671513654  0.2994270057862627  0.3944110587076225  1.0000
  C   C76       1.0  0.08392514847863364  0.2868572770492389  0.4393680694927661  1.0000
  C   C77       1.0  0.04515621142115123  0.2804170029010757  0.4596831184381871  1.0000
  C   C78       1.0  0.007576720949336702  0.28608124190311784  0.4347538521540372  1.0000
  H   H49       1.0  0.048706834403890786  0.3129136318521416  0.33387971212277257  1.0000
  H   H50       1.0  0.11484957485600786  0.30520220010211235  0.37884294574850025  1.0000
  H   H51       1.0  0.04413591147544693  0.27113722160241016  0.4946881673642909  1.0000
  H   H52       1.0  0.9778502413993891  0.2814258568391818  0.45077004143434823  1.0000
  C   C79       1.0  0.7897439460847167  0.39193072127901674  0.3143102081935495  1.0000
  C   C80       1.0  0.8262954311448041  0.375300105778461  0.29399536216558436  1.0000
  C   C81       1.0  0.8414150527552363  0.3890916967674423  0.25291686475206143  1.0000
  C   C82       1.0  0.8205919771667135  0.42000733801045237  0.23270531835733066  1.0000
  C   C83       1.0  0.7842423195075133  0.43682154845065185  0.25318624885038216  1.0000
  C   C84       1.0  0.7689348649278491  0.42290105637134046  0.29407735224511  1.0000
  H   H53       1.0  0.8421625506996075  0.35102892500279337  0.3090899508271731  1.0000
  H   H54       1.0  0.8685190025103233  0.3751458357170489  0.23597958862829263  1.0000
  H   H55       1.0  0.7681574314227443  0.4608490973710535  0.2377952656165819  1.0000
  H   H56       1.0  0.7407048186770073  0.4358899285704311  0.30978856999859344  1.0000
  C   C85       1.0  0.8787466775486348  0.309091986778005  0.599179272753879  1.0000
  C   C86       1.0  0.9114411078272461  0.31236721874881646  0.6324664798797524  1.0000
  C   C87       1.0  0.9169033147186664  0.283219250843514  0.6636411845328538  1.0000
  C   C88       1.0  0.8885399952363908  0.2517363835544198  0.6632599463324618  1.0000
  C   C89       1.0  0.8556676779027208  0.24842098368019994  0.6299812138875078  1.0000
  C   C90       1.0  0.8512207679536583  0.27672143679835476  0.5973271196100218  1.0000
  H   H57       1.0  0.9332433736687198  0.33697372605963777  0.6332772713676519  1.0000
  H   H58       1.0  0.9436086011951057  0.28486600735561723  0.687204739153228  1.0000
  H   H59       1.0  0.8335556767978253  0.2241329757247236  0.629544615833868  1.0000
  H   H60       1.0  0.8258248900323135  0.2742329285398378  0.5715959456758282  1.0000
  C   C91       1.0  0.6152025119422136  0.7817660003118737  0.21773015776105464  1.0000
  C   C92       1.0  0.6129398844100465  0.8209747157310008  0.2058508390544389  1.0000
  C   C93       1.0  0.5745852771048404  0.8364241452954783  0.19070199276362976  1.0000
  C   C94       1.0  0.5387597542409579  0.8123628428374853  0.18652577691671368  1.0000
  C   C95       1.0  0.5410139117598449  0.773163667141111  0.19842475741575694  1.0000
  C   C96       1.0  0.5791602154887183  0.7580012082428734  0.21458147673033512  1.0000
  H   H61       1.0  0.640612822049291  0.8395950106904825  0.2090673944369852  1.0000
  H   H62       1.0  0.5727981425404322  0.8669165348607005  0.1819757127342181  1.0000
  H   H63       1.0  0.5135001976929293  0.7543583691596512  0.19501798760997313  1.0000
  H   H64       1.0  0.5808878226538068  0.7276128079275042  0.22365400427912352  1.0000
  C   C97       1.0  0.7991912094376117  0.6494354141081226  0.10588396135285083  1.0000
  C   C98       1.0  0.7666146881809068  0.656872490376694  0.07444568555336685  1.0000
  C   C99       1.0  0.7401735680950936  0.6258897923405977  0.056206676364704895  1.0000
  C   C100      1.0  0.7465353483646632  0.5872401574453402  0.06890902420030676  1.0000
  C   C101      1.0  0.780466720073566  0.5792969209304597  0.098445223810673  1.0000
  C   C102      1.0  0.8067308180943876  0.6104228959475004  0.11698498809655455  1.0000
  H   H65       1.0  0.7618903644813528  0.6864972867872129  0.06399962585764674  1.0000
  H   H66       1.0  0.714420956010805  0.6319913837570837  0.03273177249550697  1.0000
  H   H67       1.0  0.785723371695997  0.5494236983302487  0.10817077969864797  1.0000
  H   H68       1.0  0.8320804383214755  0.604447886345295  0.1410477263387322  1.0000
  C   C103      1.0  0.07835713481206508  0.9227969412567072  0.8636879078368501  1.0000
  C   C104      1.0  0.11987480999350031  0.936256689684007  0.8653522772539572  1.0000
  C   C105      1.0  0.153391465318921  0.9092978310556377  0.8606533421444932  1.0000
  C   C106      1.0  0.145710725229671  0.8684300054711704  0.8552885496551104  1.0000
  C   C107      1.0  0.10411537709374631  0.8545797099934934  0.8547678399185288  1.0000
  C   C108      1.0  0.07028603361253061  0.8818521395073142  0.8586331551287734  1.0000
  H   H69       1.0  0.12612113782270917  0.967686033624377  0.8701474017050066  1.0000
  H   H70       1.0  0.18516850331249318  0.9203759266603074  0.8611957364580825  1.0000
  H   H71       1.0  0.09804286211638448  0.822929129240348  0.8506372283515627  1.0000
  H   H72       1.0  0.038182722792243995  0.8712675683054187  0.8576068085006298  1.0000
  C   C109      1.0  0.9027356564485084  0.06579857056649763  0.9134982010655468  1.0000
  C   C110      1.0  0.8941903445268581  0.10580035660295906  0.9075160690770923  1.0000
  C   C111      1.0  0.9268163396692857  0.13086735281287723  0.8957749921780215  1.0000
  C   C112      1.0  0.9679091787469343  0.11595495188025405  0.8904870906085959  1.0000
  C   C113      1.0  0.9766552910499214  0.07669297484804317  0.899265699906305  1.0000
  C   C114      1.0  0.9441857360174084  0.051689640217302824  0.9105596718249678  1.0000
  H   H73       1.0  0.8621917478595963  0.11693673447431552  0.9100815894246076  1.0000
  H   H74       1.0  0.9200015818351451  0.16146612742558517  0.890409235951702  1.0000
  H   H75       1.0  0.008368875357628536  0.06506530912243759  0.895990672559187  1.0000
  H   H76       1.0  0.9513228224636194  0.021134012981058437  0.9161178552582676  1.0000
  C   C115      1.0  0.8312063333665977  0.8244976515955728  0.9382342458350796  1.0000
  C   C116      1.0  0.7996525948595139  0.853097552345037  0.9332907839000739  1.0000
  C   C117      1.0  0.7617047655381193  0.8512610300061829  0.9574681815939368  1.0000
  C   C118      1.0  0.7557529195328171  0.8214110083388699  0.9874293388171453  1.0000
  C   C119      1.0  0.7865874570247103  0.7920378378951339  0.9908274471039146  1.0000
  C   C120      1.0  0.8240913320910452  0.7934462549608275  0.9660855616701065  1.0000
  H   H77       1.0  0.8047054537777951  0.8771596225741994  0.9118757887207507  1.0000
  H   H78       1.0  0.7378522505525578  0.8740143424370894  0.954697749358026  1.0000
  H   H79       1.0  0.7817925734849281  0.7683453518083436  0.013069348448201179  1.0000
  H   H80       1.0  0.8482112912358598  0.7710797025589678  0.9698716465042407  1.0000
  C   C121      1.0  0.06886444769878364  0.883167124721874  0.42091616946696025  1.0000
  C   C122      1.0  0.08730858207564363  0.8461487395199339  0.4266265413690134  1.0000
  C   C123      1.0  0.12888320068790457  0.8439219748577411  0.4431808573776424  1.0000
  C   C124      1.0  0.15251527215177474  0.8786293758547438  0.45254450522824186  1.0000
  C   C125      1.0  0.1342391893131236  0.9157251002845909  0.44668847393922506  1.0000
  C   C126      1.0  0.09217682228465751  0.9180148808954369  0.4313247293501838  1.0000
  H   H81       1.0  0.0693152831093522  0.8191832845221002  0.41856795552944887  1.0000
  H   H82       1.0  0.1431049031785722  0.8152108668484948  0.4473895073253591  1.0000
  H   H83       1.0  0.15252803805997847  0.9426448430722381  0.4534920216529954  1.0000
  H   H84       1.0  0.07820532902833466  0.9466433423472684  0.4263265606652869  1.0000
  C   C127      1.0  0.9225799708810014  0.10738571082464965  0.3742719254707369  1.0000
  C   C128      1.0  0.9247968722801544  0.14850424934180695  0.37166985667737495  1.0000
  C   C129      1.0  0.8894417887154583  0.1725310632597858  0.3822313321998745  1.0000
  C   C130      1.0  0.8518462774923058  0.15544998141597077  0.3951909199158798  1.0000
  C   C131      1.0  0.8486269297743524  0.11404357210573489  0.3937226121848156  1.0000
  C   C132      1.0  0.883900440896155  0.08998386175829531  0.38270735033281905  1.0000
  H   H85       1.0  0.9540990164345453  0.16209974069745292  0.36345134923090433  1.0000
  H   H86       1.0  0.8917036951993978  0.20435656565250143  0.38146556403469123  1.0000
  H   H87       1.0  0.8192988861621102  0.10062149167745991  0.40257257115804174  1.0000
  H   H88       1.0  0.8814073558426415  0.05803330270098517  0.3821853664791802  1.0000
  C   C133      1.0  0.8183617923778638  0.931174376033851  0.3539824976927892  1.0000
  C   C134      1.0  0.8404882023450633  0.9533197915300767  0.3237937455259321  1.0000
  C   C135      1.0  0.8416788781754221  0.9408596454776492  0.2759349775298005  1.0000
  C   C136      1.0  0.8201064265513368  0.9065917891509421  0.2580753611702221  1.0000
  C   C137      1.0  0.7948092254480265  0.8864735511462747  0.28748456327483213  1.0000
  C   C138      1.0  0.794021493969885  0.8987493325627626  0.3355662793577396  1.0000
  H   H89       1.0  0.8574014182837211  0.979670837524433  0.33747170720826764  1.0000
  H   H90       1.0  0.8605119788565473  0.957060652099079  0.2531205458095226  1.0000
  H   H91       1.0  0.7773710201752755  0.860451606776214  0.2736328099926052  1.0000
  H   H92       1.0  0.7762134551811546  0.8819979290642629  0.3587567816510386  1.0000
  C   C139      1.0  0.9398421394054224  0.9845806702479726  0.6201357759544487  1.0000
  C   C140      1.0  0.9567129231726927  0.9810874604714627  0.6648875534154272  1.0000
  C   C141      1.0  0.9366835751617513  0.9573018075174468  0.6952729657579998  1.0000
  C   C142      1.0  0.8994554542636943  0.937358234203363  0.6811790235660482  1.0000
  C   C143      1.0  0.8829886964724216  0.9403109700940088  0.6361032486782162  1.0000
  C   C144      1.0  0.9032119582149448  0.9638567719681733  0.605540055557658  1.0000
  H   H93       1.0  0.9854936156522333  0.9965004707921125  0.6758642759719263  1.0000
  H   H94       1.0  0.950390910097514  0.9539787999031287  0.7293309375825479  1.0000
  H   H95       1.0  0.8542890543782038  0.9248097157806564  0.624970466134674  1.0000
  H   H96       1.0  0.8899372646216507  0.966593726671017  0.5710491822175295  1.0000
  N   N1        1.0  0.18427577162909375  0.8626475964751524  0.29669685008071567  1.0000
  C   C145      1.0  0.19535875398803346  0.8604482651801875  0.34646042488944495  1.0000
  C   C146      1.0  0.13874624256199633  0.8714629321663883  0.29239896918636865  1.0000
  C   C147      1.0  0.19406811121041692  0.824140159244507  0.27014333371520927  1.0000
  C   C148      1.0  0.20889602202275703  0.8946041809901762  0.2782191639619165  1.0000
  H   H97       1.0  0.22955141902880424  0.8552369878124927  0.35194031346985577  1.0000
  H   H98       1.0  0.17838838870763818  0.835968787046513  0.3614141483541935  1.0000
  H   H99       1.0  0.18725697639648037  0.8886194423508005  0.36756850049859513  1.0000
  H   H100      1.0  0.1288858104265704  0.8732264464684747  0.25531133156004127  1.0000
  H   H101      1.0  0.1193327848733496  0.8482287660856704  0.30682396290164804  1.0000
  H   H102      1.0  0.1304488311994461  0.9003640548921001  0.3122695377195339  1.0000
  H   H103      1.0  0.18668448030613263  0.8247529968592611  0.2322402966378001  1.0000
  H   H104      1.0  0.17602251315857884  0.7993490066926673  0.283111202451479  1.0000
  H   H105      1.0  0.22810607024780505  0.8164753719878898  0.2733689588684296  1.0000
  H   H106      1.0  0.20145364009436642  0.8971287906226686  0.240649640431694  1.0000
  H   H107      1.0  0.24340872928716326  0.8889701561891646  0.2812995228123123  1.0000
  H   H108      1.0  0.20243747502850612  0.9240664980070955  0.29765596067343436  1.0000
  N   N2        1.0  0.9602966825639363  0.4128623275881972  0.30974409765975225  1.0000
  C   C149      1.0  0.9224478281764238  0.4386534011922742  0.3098761614931433  1.0000
  C   C150      1.0  0.9712459640252334  0.4048150217432585  0.3582097967504825  1.0000
  C   C151      1.0  0.995888165135761  0.4329789222533343  0.2894453861475135  1.0000
  C   C152      1.0  0.9516286821855517  0.3748850429942914  0.2813736582533898  1.0000
  H   H109      1.0  0.9122470200801861  0.4441747633151845  0.27368109865920054  1.0000
  H   H110      1.0  0.9281508740059943  0.4680442683125394  0.32978113279075527  1.0000
  H   H111      1.0  0.8954003540558023  0.4248083263374595  0.3263862687390159  1.0000
  H   H112      1.0  0.9451954013938676  0.3891475185792883  0.37427452044374476  1.0000
  H   H113      1.0  0.9995599334627354  0.3852310556962993  0.359451521950199  1.0000
  H   H114      1.0  0.9777452766269257  0.43271629810554507  0.3808626074000348  1.0000
  H   H115      1.0  0.02483524103591006  0.4140813792401257  0.2886081833227069  1.0000
  H   H116      1.0  0.003551915288122931  0.46165455236468456  0.3100907850704355  1.0000
  H   H117      1.0  0.9884858744810067  0.4395704245967453  0.2529014349283462  1.0000
  H   H118      1.0  0.9792348691460407  0.35433837820900516  0.2812458787960534  1.0000
  H   H119      1.0  0.9437759143870723  0.3796754710525362  0.24440610498301707  1.0000
  H   H120      1.0  0.924731307750929  0.3589606143009288  0.29551504785710847  1.0000
  N   N3        1.0  0.3314712204049577  0.2675427124271799  0.2357446722241919  1.0000
  C   C153      1.0  0.35754166054704584  0.2808614257197453  0.2773413805784649  1.0000
  C   C154      1.0  0.2866715020906361  0.27651750569446126  0.24555158574286814  1.0000
  C   C155      1.0  0.3368901348047495  0.2241773617114032  0.2245593613089165  1.0000
  C   C156      1.0  0.34477044656618827  0.28863183545335364  0.1956384594693806  1.0000
  H   H121      1.0  0.3915953834264061  0.2749371276316788  0.27116646820407714  1.0000
  H   H122      1.0  0.3485802661602875  0.26520843201834515  0.3081851923255114  1.0000
  H   H123      1.0  0.3538180549045449  0.31344926938106427  0.2870423092855854  1.0000
  H   H124      1.0  0.2754149482933588  0.26058345364873486  0.2751737523399372  1.0000
  H   H125      1.0  0.2815762792622558  0.3088291845030668  0.2551904133993715  1.0000
  H   H126      1.0  0.26598678460681047  0.26773340787421795  0.2147324669896511  1.0000
  H   H127      1.0  0.31740974768864705  0.21308199623625448  0.19355476619860254  1.0000
  H   H128      1.0  0.32722492244439283  0.2074360341730929  0.25425493973188024  1.0000
  H   H129      1.0  0.37033841469479745  0.2162741197461783  0.21710060555395103  1.0000
  H   H130      1.0  0.3253142612048967  0.2799869482608652  0.1637590305674196  1.0000
  H   H131      1.0  0.3783596254507666  0.2824117437917668  0.18702471756671454  1.0000
  H   H132      1.0  0.3416673247335613  0.32139116469394247  0.20330776671109502  1.0000
  N   N4        1.0  0.148571144532073  0.3328373863430981  0.8888241442340035  1.0000
  C   C157      1.0  0.10296469984426676  0.34205041653716645  0.890597900621885  1.0000
  C   C158      1.0  0.15467872035789249  0.2894768546631333  0.8782259898683812  1.0000
  C   C159      1.0  0.16861879696102183  0.3457921338185797  0.9345144034986028  1.0000
  C   C160      1.0  0.16801253004363684  0.35399982932419033  0.8518905011792233  1.0000
  H   H133      1.0  0.09706701775244553  0.37449465006955457  0.8985921352906185  1.0000
  H   H134      1.0  0.08708017835594295  0.32624838905201164  0.9177102695210235  1.0000
  H   H135      1.0  0.08684431817280093  0.33288066103156666  0.8565949679665511  1.0000
  H   H136      1.0  0.1887152974106357  0.2815014167113605  0.8763220493113639  1.0000
  H   H137      1.0  0.14031127012106617  0.27248961294474733  0.9052500812784943  1.0000
  H   H138      1.0  0.1398860664625702  0.2787542036903232  0.8439721133321609  1.0000
  H   H139      1.0  0.20306173694749496  0.3394359943779622  0.9344967999730118  1.0000
  H   H140      1.0  0.15487439940544429  0.33029729122833523  0.9632004276862416  1.0000
  H   H141      1.0  0.16471183215159593  0.37838544778461863  0.9436079674214964  1.0000
  H   H142      1.0  0.20233790823549486  0.34723360054490665  0.8490301002815376  1.0000
  H   H143      1.0  0.16453081621533275  0.3868300332155792  0.8589659233233353  1.0000
  H   H144      1.0  0.15306487517730324  0.34531321548487576  0.8170925278544888  1.0000
  N   N5        1.0  0.9112746352436617  0.08229577588689047  0.7494460250467698  1.0000
  C   C161      1.0  0.9008941710852665  0.07297088703139476  0.6992645104476076  1.0000
  C   C162      1.0  0.8785657512361805  0.06550950370045938  0.7778095608442183  1.0000
  C   C163      1.0  0.9130093110090325  0.12593268270908398  0.7604835784154812  1.0000
  C   C164      1.0  0.9526817871103436  0.06477254592100379  0.7603040178801216  1.0000
  H   H145      1.0  0.926154333965489  0.08298553520480206  0.6766837860801196  1.0000
  H   H146      1.0  0.8708969817808159  0.08752003199197407  0.6894537956668157  1.0000
  H   H147      1.0  0.8970540702245927  0.04035172133809506  0.6903189779051275  1.0000
  H   H148      1.0  0.8860217546595202  0.07087310992379738  0.8158318601765577  1.0000
  H   H149      1.0  0.8470838436264869  0.07891453392528021  0.7716821699912293  1.0000
  H   H150      1.0  0.8757148291530169  0.03271073943422765  0.7695334284339864  1.0000
  H   H151      1.0  0.9365228369056091  0.13966866266024602  0.7387132284956061  1.0000
  H   H152      1.0  0.921988946069798  0.13396506004830816  0.7977654213161472  1.0000
  H   H153      1.0  0.8820579390078896  0.14032215905642384  0.7540352917367055  1.0000
  H   H154      1.0  0.9526437757384293  0.0319201642393583  0.7522392795775167  1.0000
  H   H155      1.0  0.9612394854447962  0.07096270069607515  0.7980372284268293  1.0000
  H   H156      1.0  0.9781875491309889  0.07696573164156775  0.739803240524471  1.0000
  N   N6        1.0  0.2091442225761604  0.8868730934348503  0.6087456563777486  1.0000
  C   C165      1.0  0.2509708061864484  0.890559954780939  0.5879160038867983  1.0000
  C   C166      1.0  0.18028618825547627  0.9173460250427643  0.5921791082939879  1.0000
  C   C167      1.0  0.21347542164022415  0.8928414820953733  0.66020924162029  1.0000
  C   C168      1.0  0.19214501107100457  0.8467621307283404  0.5948147008623609  1.0000
  H   H157      1.0  0.27406640270913973  0.8692254590439915  0.6013724205154262  1.0000
  H   H158      1.0  0.26363179054169517  0.9211048714796645  0.5956084760729908  1.0000
  H   H159      1.0  0.2497920071747597  0.8844150157736554  0.5493673845703504  1.0000
  H   H160      1.0  0.14839426279295886  0.9154548172331841  0.6072670692586954  1.0000
  H   H161      1.0  0.19239902010266907  0.9479659686623405  0.6018381399195925  1.0000
  H   H162      1.0  0.1764088694612762  0.913723174022983  0.5534467075509628  1.0000
  H   H163      1.0  0.18272157463249084  0.8898558835679062  0.6775381879003239  1.0000
  H   H164      1.0  0.22615753806418404  0.9229013733400815  0.6718160307086213  1.0000
  H   H165      1.0  0.23567554480994013  0.8707129921802248  0.6737876997188831  1.0000
  H   H166      1.0  0.16066227656932197  0.8428159493851103  0.6101264923795959  1.0000
  H   H167      1.0  0.21346249321339617  0.8231620693970043  0.6065271124188037  1.0000
  H   H168      1.0  0.1884977777652561  0.84141087550471  0.5560925654263033  1.0000
  N   N7        1.0  0.4129264284932121  0.26398425694478034  0.8924498815154244  1.0000
  C   C169      1.0  0.4367798767058384  0.23581749560800805  0.8602463384271342  1.0000
  C   C170      1.0  0.3724912693671458  0.24577694592151933  0.9034258544672641  1.0000
  C   C171      1.0  0.40463815164551326  0.30102663835925136  0.8700603640787047  1.0000
  C   C172      1.0  0.4377359698175526  0.2733632458211141  0.9360608390005642  1.0000
  H   H169      1.0  0.4432199561104454  0.2073078795701293  0.8757652541220652  1.0000
  H   H170      1.0  0.46751405725727785  0.24848927610528124  0.8511420195345062  1.0000
  H   H171      1.0  0.4188304869527653  0.2281455700286085  0.8270683900071291  1.0000
  H   H172      1.0  0.35419780055784944  0.2658278178832615  0.9287094850698931  1.0000
  H   H173      1.0  0.35250998460632454  0.23930123146023338  0.871376913610781  1.0000
  H   H174      1.0  0.37751507685798724  0.21712755213697202  0.9190829754979373  1.0000
  H   H175      1.0  0.3868991594245306  0.3229795075883079  0.8936071926644232  1.0000
  H   H176      1.0  0.38567311041135155  0.29525255165971803  0.8371462337079535  1.0000
  H   H177      1.0  0.4344072780435968  0.3155595165056956  0.8610845405436777  1.0000
  H   H178      1.0  0.42067228481099767  0.29461470243784743  0.9612086278057816  1.0000
  H   H179      1.0  0.46841999108757126  0.2873884144113434  0.9292251554890401  1.0000
  H   H180      1.0  0.4447542498223527  0.24621594758335738  0.9540539924364854  1.0000
  N   N8        1.0  0.2031104998678257  0.3123367867654963  0.5968277543953664  1.0000
  C   C173      1.0  0.22765101055304648  0.3282298526731715  0.6385824725236678  1.0000
  C   C174      1.0  0.1590551258369115  0.3054644662280634  0.6098106408115371  1.0000
  C   C175      1.0  0.22198045236049135  0.2743242327555958  0.5774341491244818  1.0000
  C   C176      1.0  0.20383254270462148  0.3412563382775486  0.561249175072329  1.0000
  H   H181      1.0  0.2612462556351296  0.3330776996771878  0.6299699866280374  1.0000
  H   H182      1.0  0.2273643567299728  0.307488006324513  0.6664762833091511  1.0000
  H   H183      1.0  0.21476287094431679  0.3572516746779817  0.6537401570138851  1.0000
  H   H184      1.0  0.14394612361040382  0.33332957000978763  0.6254055998205492  1.0000
  H   H185      1.0  0.1396337050275991  0.2941815853792499  0.5787057352226382  1.0000
  H   H186      1.0  0.15721995615543727  0.2830742244848067  0.6358336492749961  1.0000
  H   H187      1.0  0.20409047621493892  0.261644427666291  0.5458476539441012  1.0000
  H   H188      1.0  0.22185981090355833  0.2517801950262902  0.6034228233641522  1.0000
  H   H189      1.0  0.25524650085112865  0.278492489690136  0.5670494409795719  1.0000
  H   H190      1.0  0.18961576186743212  0.3702720246367379  0.5744239221068815  1.0000
  H   H191      1.0  0.18602963073474754  0.3301118744422522  0.5289978176083463  1.0000
  H   H192      1.0  0.2366172990897919  0.3472078041402224  0.5508095949963955  1.0000
  N   N9        1.0  0.12729509448261944  0.0696419264863577  0.8406697051355531  1.0000
  C   C177      1.0  0.15390861292029467  0.07341187655564796  0.799620802089403  1.0000
  C   C178      1.0  0.15267768913348978  0.05289068162345534  0.8778028856412426  1.0000
  C   C179      1.0  0.0914586363769383  0.04300883181804105  0.8270879082274348  1.0000
  C   C180      1.0  0.11117907158017193  0.10929845462932364  0.8583041310853594  1.0000
  H   H193      1.0  0.16686743047705388  0.04397298491900958  0.7856889009351631  1.0000
  H   H194      1.0  0.1813635861546079  0.09313713183710548  0.8088498952238664  1.0000
  H   H195      1.0  0.13590752295111153  0.08604167150285225  0.7708361283514484  1.0000
  H   H196      1.0  0.13350802173937315  0.0490078352504284  0.9091165322811999  1.0000
  H   H197      1.0  0.16589674256213116  0.023265857928287836  0.8653862203566877  1.0000
  H   H198      1.0  0.18004903852386334  0.07218279345986622  0.8889183365828714  1.0000
  H   H199      1.0  0.07148650970400783  0.038512747162031014  0.8576187457428398  1.0000
  H   H200      1.0  0.10233662334078697  0.012987589323847137  0.8126103605799668  1.0000
  H   H201      1.0  0.07077267169930268  0.055337892394360155  0.8002751092367939  1.0000
  H   H202      1.0  0.09054965346915855  0.107430667922509  0.8890102717174962  1.0000
  H   H203      1.0  0.09197561651442077  0.12298600698956186  0.8311539696058748  1.0000
  H   H204      1.0  0.13727681016901316  0.13014002862299767  0.8692348551235377  1.0000
  N   N10       1.0  0.5584504968212769  0.4770913458300615  0.031058071613689234  1.0000
  C   C181      1.0  0.5909825327998705  0.5071016415799642  0.024202366415439828  1.0000
  C   C182      1.0  0.5169367104121706  0.4916494275470295  0.015681739167872966  1.0000
  C   C183      1.0  0.5570778941719056  0.4702769296119932  0.08109651303834366  1.0000
  C   C184      1.0  0.5686800544670692  0.43928307429378416  0.0032507862569421953  1.0000
  H   H205      1.0  0.5840245096384628  0.5360597044886265  0.04447868389903498  1.0000
  H   H206      1.0  0.5933163730943215  0.5126836515141853  0.986775096785739  1.0000
  H   H207      1.0  0.6227299049144118  0.49741802641072336  0.035854130239217685  1.0000
  H   H208      1.0  0.4914581321327015  0.4700920884155867  0.021069034020578362  1.0000
  H   H209      1.0  0.508287158820353  0.5204685413309867  0.03529288770228734  1.0000
  H   H210      1.0  0.516429527410594  0.49643157085179274  0.9778807338776854  1.0000
  H   H211      1.0  0.5882290692976321  0.46007739363134476  0.09410811653909847  1.0000
  H   H212      1.0  0.5337604376985368  0.4469250367458768  0.08732114935762138  1.0000
  H   H213      1.0  0.5481937731031357  0.497847256645208  0.10310839443781085  1.0000
  H   H214      1.0  0.5442949814177462  0.41624345400914886  0.0071371368994157525  1.0000
  H   H215      1.0  0.5993950187829031  0.42692520866749717  0.014500436831560437  1.0000
  H   H216      1.0  0.5707124103137308  0.44330351489714587  0.9653732737589446  1.0000
  N   N11       1.0  0.24546183362282653  0.8186974251773896  0.9750879076966661  1.0000
  C   C185      1.0  0.25548620417543977  0.7961490997605736  0.9300232400034154  1.0000
  C   C186      1.0  0.28212093707631875  0.8430385516007791  0.9921187778278998  1.0000
  C   C187      1.0  0.23548782958808645  0.7904216998782103  0.0096072387861037  1.0000
  C   C188      1.0  0.20884100903105998  0.8450238444950874  0.9685750222473991  1.0000
  H   H217      1.0  0.22758322100857534  0.7796653219370383  0.9144592184913293  1.0000
  H   H218      1.0  0.28088598126455  0.7739375882631069  0.9342225123364116  1.0000
  H   H219      1.0  0.2660115403027023  0.8162005223538411  0.9039257845492383  1.0000
  H   H220      1.0  0.2749988522163899  0.862117225374737  0.024704308597959912  1.0000
  H   H221      1.0  0.30944125933150646  0.8239774518796313  6.606674260867251e-05  1.0000
  H   H222      1.0  0.29261893528009725  0.8628198207695302  0.9656512804288742  1.0000
  H   H223      1.0  0.22793599194092684  0.8062529342633672  0.044163467717428295  1.0000
  H   H224      1.0  0.26272163475490506  0.7701484252845391  0.015129390087719408  1.0000
  H   H225      1.0  0.20811000916092828  0.7714278988447922  0.9976975571739485  1.0000
  H   H226      1.0  0.1997109036987202  0.8619836799730357  0.0019205849643839645  1.0000
  H   H227      1.0  0.18089486173950972  0.8278116750981558  0.9543156561990084  1.0000
  H   H228      1.0  0.21576334471988318  0.8670032039162452  0.9431842951959087  1.0000
  N   N12       1.0  0.5779303714371699  0.7978177577146248  0.04410144442392605  1.0000
  C   C189      1.0  0.5356743047989186  0.7800556667922071  0.04694092240050729  1.0000
  C   C190      1.0  0.6078010971399247  0.7785497649364829  0.0751175282854899  1.0000
  C   C191      1.0  0.5755861137700666  0.8409133126804453  0.05889542597225894  1.0000
  C   C192      1.0  0.5927647477165379  0.7918828088317957  0.9954565540183958  1.0000
  H   H229      1.0  0.5121512466756536  0.79416143888351  0.02434769378016388  1.0000
  H   H230      1.0  0.5237026762427572  0.7839854318894528  0.08328544737115351  1.0000
  H   H231      1.0  0.5360540040470443  0.7475458161285217  0.035952506508303506  1.0000
  H   H232      1.0  0.6397967001332159  0.7918920728903107  0.07455980781271077  1.0000
  H   H233      1.0  0.5972717509063848  0.7818228417964513  0.11196688433094182  1.0000
  H   H234      1.0  0.6110604133043225  0.7461506611686587  0.06443783975367512  1.0000
  H   H235      1.0  0.6071700162208763  0.8551037360928453  0.05831376011732203  1.0000
  H   H236      1.0  0.5634175805697463  0.8465059208940914  0.09499707673274882  1.0000
  H   H237      1.0  0.553955597612043  0.8565391922482984  0.03568062548340212  1.0000
  H   H238      1.0  0.6245939238277533  0.8050744712172071  0.9922561698887084  1.0000
  H   H239      1.0  0.5709941256140586  0.8060368742816056  0.9710314969418825  1.0000
  H   H240      1.0  0.5951590275952899  0.7596946436668095  0.9831571774574249  1.0000
  N   N13       1.0  0.8516503811343007  0.9240511016893633  0.05250920749213783  1.0000
  C   C193      1.0  0.8566124685279649  0.9653051110022507  0.04000159324159491  1.0000
  C   C194      1.0  0.86950233646571  0.9206015280926327  0.09979308676823662  1.0000
  C   C195      1.0  0.8741066612546425  0.8963850174290691  0.018455490703417343  1.0000
  C   C196      1.0  0.806421857476327  0.9137525124681284  0.051794666936299194  1.0000
  H   H241      1.0  0.843395811398699  0.9690008045278294  0.004433520096865928  1.0000
  H   H242      1.0  0.8903970540422074  0.9739579756955478  0.03979821223567437  1.0000
  H   H243      1.0  0.8402182780362427  0.9870547069499594  0.06510696929566873  1.0000
  H   H244      1.0  0.8668459312996708  0.8895973266793417  0.10979333364610211  1.0000
  H   H245      1.0  0.9034014231303874  0.9287838988878394  0.10208715876919405  1.0000
  H   H246      1.0  0.8526552070155222  0.9402719217901103  0.12678590449662286  1.0000
  H   H247      1.0  0.8696397985045666  0.8647711919357548  0.0255252533972965  1.0000
  H   H248      1.0  0.9085825642667706  0.9021965911762534  0.019236344989653542  1.0000
  H   H249      1.0  0.8625799375145379  0.8993125239054548  0.9821913806675188  1.0000
  H   H250      1.0  0.7916178105417427  0.9170501218307157  0.01699630745315206  1.0000
  H   H251      1.0  0.7887216940329083  0.9331343523754491  0.07826733705419087  1.0000
  H   H252      1.0  0.8015870388706807  0.88238334044249  0.059658445675947025  1.0000
  N   N14       1.0  0.8355011577093835  0.7964887587877436  0.7739225600841331  1.0000
  C   C197      1.0  0.8815172675148456  0.8029047333101689  0.7749131077712839  1.0000
  C   C198      1.0  0.814179655123989  0.8325598940831559  0.7953004917002306  1.0000
  C   C199      1.0  0.8257000127118687  0.7624309299315453  0.8006973460139382  1.0000
  C   C200      1.0  0.8207411967238513  0.7883434586862694  0.7249216457034579  1.0000
  H   H253      1.0  0.8987003066088384  0.7765782696210933  0.7583654896499303  1.0000
  H   H254      1.0  0.893810718685801  0.8084509673751261  0.8114614813749789  1.0000
  H   H255      1.0  0.889994319366027  0.8290172003895288  0.7559349157628172  1.0000
  H   H256      1.0  0.824653759175067  0.8394784368919255  0.8322679509577668  1.0000
  H   H257      1.0  0.821125394485391  0.8589828344465676  0.7762002968015239  1.0000
  H   H258      1.0  0.7793827529498883  0.8289160802871604  0.7952242970208935  1.0000
  H   H259      1.0  0.836577460031924  0.7680665038164365  0.8378870373808845  1.0000
  H   H260      1.0  0.8414748950225434  0.7346632536270867  0.7858149269966669  1.0000
  H   H261      1.0  0.7912086087029517  0.7567988513012747  0.8009843105800494  1.0000
  H   H262      1.0  0.8279939918523631  0.8137647021789292  0.7041621674241019  1.0000
  H   H263      1.0  0.7860710260822553  0.7836334235082685  0.722740765618896  1.0000
  H   H264      1.0  0.8362138208776282  0.7613373408245766  0.7075641509041395  1.0000
  N   N15       1.0  0.6865215406468385  0.6415875507505802  0.2012088394667242  1.0000
  C   C201      1.0  0.6587808832747482  0.6475968872568786  0.2420794174321732  1.0000
  C   C202      1.0  0.6658142303677123  0.6578438477294025  0.16056822576105656  1.0000
  C   C203      1.0  0.6946221465250124  0.5985584942059394  0.19017075362708047  1.0000
  C   C204      1.0  0.7268622413228892  0.6624152486273848  0.21195790856063623  1.0000
  H   H265      1.0  0.6522254189524039  0.679807823083444  0.25143665197468623  1.0000
  H   H266      1.0  0.6734243220985033  0.6356495692648243  0.27337725447464645  1.0000
  H   H267      1.0  0.6278885955011534  0.6325970619835435  0.2350463126421538  1.0000
  H   H268      1.0  0.6861912254250008  0.6542098832495802  0.12930325256249486  1.0000
  H   H269      1.0  0.6354979725365143  0.6425646689714187  0.15106573766296094  1.0000
  H   H270      1.0  0.6589493177371932  0.690211167045777  0.1679040247103778  1.0000
  H   H271      1.0  0.710710478439222  0.5852664993658034  0.21976948362910176  1.0000
  H   H272      1.0  0.7151707574049064  0.5930248297137883  0.1593095347326532  1.0000
  H   H273      1.0  0.6649353978198705  0.5818280790582208  0.1817818649405325  1.0000
  H   H274      1.0  0.7483941149134968  0.6588043966398038  0.1817496761741899  1.0000
  H   H275      1.0  0.7436816052088205  0.6507985385086746  0.24215308482465026  1.0000
  H   H276      1.0  0.721956652901428  0.6949679421754443  0.22048297765275615  1.0000
  N   N16       1.0  0.9037369708920384  0.14943524198881863  0.5380103477586504  1.0000
  C   C205      1.0  0.8980503167721865  0.11263729286376481  0.5613741606091603  1.0000
  C   C206      1.0  0.8620354773845785  0.16595965165622786  0.5262286966419267  1.0000
  C   C207      1.0  0.9276651658807942  0.14012009064970446  0.49472790073135475  1.0000
  C   C208      1.0  0.9271865765497257  0.17893279909893167  0.5695435202884436  1.0000
  H   H277      1.0  0.8796876333826662  0.09007283301952365  0.5388154901637767  1.0000
  H   H278      1.0  0.8807881836114984  0.11866107514427036  0.5946568550898188  1.0000
  H   H279      1.0  0.9288882802786258  0.09864882059993937  0.5695253743312043  1.0000
  H   H280      1.0  0.8650226719114955  0.19366570735506142  0.5083022191836017  1.0000
  H   H281      1.0  0.8436043531955338  0.14460931165483343  0.5020128383605118  1.0000
  H   H282      1.0  0.842936931846822  0.17341372669319283  0.5579411497507855  1.0000
  H   H283      1.0  0.9317111383681244  0.16699361424044654  0.47553941440485004  1.0000
  H   H284      1.0  0.9110028962819844  0.11749595092112056  0.47073903278686535  1.0000
  H   H285      1.0  0.95940807809105  0.12768838405768146  0.5019598680841522  1.0000
  H   H286      1.0  0.9595514245666198  0.16824119011634994  0.5773201401228865  1.0000
  H   H287      1.0  0.9111292342287518  0.18495432032889564  0.6035422052961857  1.0000
  H   H288      1.0  0.9299542649818835  0.20789550225564646  0.5540955004798063  1.0000
  N   N17       1.0  0.29324095091937696  0.14222606663522774  0.5271798623198588  1.0000
  C   C209      1.0  0.28484550136618747  0.18007894380396627  0.5556581574128026  1.0000
  C   C210      1.0  0.30560048628415526  0.15071873020707915  0.4797766055063962  1.0000
  C   C211      1.0  0.2547201486023314  0.11763494288369403  0.5243074516018926  1.0000
  C   C212      1.0  0.32781419667382283  0.1206465805171324  0.5491274816157932  1.0000
  H   H289      1.0  0.2764427315895044  0.17478814191147318  0.5919686448276185  1.0000
  H   H290      1.0  0.2583907057957795  0.19664955566005382  0.5404954729041583  1.0000
  H   H291      1.0  0.3129316377760345  0.19974321054456778  0.5578796030939461  1.0000
  H   H292      1.0  0.31023485527130323  0.12282386507050091  0.45648966961240967  1.0000
  H   H293      1.0  0.28119486426490337  0.16871337883244797  0.4630866412378273  1.0000
  H   H294      1.0  0.3355304888667583  0.16783361877092373  0.48069471468163444  1.0000
  H   H295      1.0  0.25997181248260115  0.0884356665300543  0.5039365000413285  1.0000
  H   H296      1.0  0.2282316304312011  0.13255059137080583  0.506872038458401  1.0000
  H   H297      1.0  0.24412588482536446  0.11146002110549413  0.5596894931517774  1.0000
  H   H298      1.0  0.35679644653277864  0.1391572205719911  0.5539647292499311  1.0000
  H   H299      1.0  0.33618608423588414  0.09272568063542574  0.5274548859398188  1.0000
  H   H300      1.0  0.3188459746075254  0.11205008039829689  0.5840829346854018  1.0000
  N   N18       1.0  0.9097704601357071  0.8308992007287108  0.34068481859815103  1.0000
  C   C213      1.0  0.8716941151664436  0.8102852173654846  0.3207523320896355  1.0000
  C   C214      1.0  0.9195269380404875  0.8646391061756854  0.31344938289683233  1.0000
  C   C215      1.0  0.945673771346975  0.8027362032633968  0.3387156306746625  1.0000
  C   C216      1.0  0.9022015906740128  0.846045776134346  0.3898072956780353  1.0000
  H   H301      1.0  0.8755084551010133  0.7999867059628953  0.2830813382947433  1.0000
  H   H302      1.0  0.8437970425778507  0.8303188520482908  0.323244754403636  1.0000
  H   H303      1.0  0.8640813767751794  0.7839593662347152  0.3395775534941201  1.0000
  H   H304      1.0  0.8938294709005459  0.887137629783864  0.31588847445567253  1.0000
  H   H305      1.0  0.9488405878685859  0.8801280273539294  0.3266717127693719  1.0000
  H   H306      1.0  0.9235869235979989  0.8548842661181583  0.2757267337809649  1.0000
  H   H307      1.0  0.9395349154040811  0.7770259118734484  0.3591758142436445  1.0000
  H   H308      1.0  0.9749267812010707  0.8174005927193626  0.35347728281909263  1.0000
  H   H309      1.0  0.952209211676047  0.7909231742917731  0.30208034615752494  1.0000
  H   H310      1.0  0.9303462938423656  0.8617528932819838  0.4058826866385475  1.0000
  H   H311      1.0  0.8945188546777961  0.8216167841280427  0.4116032288607472  1.0000
  H   H312      1.0  0.8755438266972922  0.8677598074304276  0.39248037059225716  1.0000
  N   N19       1.0  0.417907022742742  0.03280490319338859  0.7164777612344593  1.0000
  C   C217      1.0  0.3762056711693502  0.05116427521895118  0.7092339239385115  1.0000
  C   C218      1.0  0.4165349228761997  0.9900603226673161  0.6997053064738105  1.0000
  C   C219      1.0  0.42912529250610193  0.037126205220279436  0.7668150753509958  1.0000
  C   C220      1.0  0.44970205515472217  0.05298488648564592  0.6901787027441803  1.0000
  H   H313      1.0  0.3764236671651322  0.0835041513837998  0.7210236145207132  1.0000
  H   H314      1.0  0.351319080217635  0.03718768647719872  0.7290659839097166  1.0000
  H   H315      1.0  0.36659697300866073  0.0483482012909442  0.6716214079527132  1.0000
  H   H316      1.0  0.44745422805610874  0.9752095379935806  0.7046778415654307  1.0000
  H   H317      1.0  0.39275343898896276  0.9740127919465404  0.718863137147794  1.0000
  H   H318      1.0  0.40811476060691904  0.9855952625611192  0.6618379156786687  1.0000
  H   H319      1.0  0.46034618554448714  0.023503500179478998  0.7736980342931185  1.0000
  H   H320      1.0  0.40546438814408764  0.022417429676049774  0.7875888636638623  1.0000
  H   H321      1.0  0.43051780550630875  0.06904130910829887  0.7806949536482912  1.0000
  H   H322      1.0  0.441897536293847  0.05035878174386444  0.6520489789647809  1.0000
  H   H323      1.0  0.4816588686167569  0.0400203510199062  0.6947141904287021  1.0000
  H   H324      1.0  0.45136645907764467  0.08535108133992308  0.7021049044099194  1.0000
  N   N20       1.0  0.47389898700723776  0.8731558697490633  0.31048434781894224  1.0000
  C   C221      1.0  0.4478631247694937  0.8455555414232954  0.2792687025061718  1.0000
  C   C222      1.0  0.49016883098200675  0.8521870346324498  0.3500505970142893  1.0000
  C   C223      1.0  0.44800178924474765  0.907577288681603  0.328474159262883  1.0000
  C   C224      1.0  0.5095725105073153  0.8871463714855669  0.28408493157883913  1.0000
  H   H325      1.0  0.4665854747381981  0.819295634580815  0.26512342212216644  1.0000
  H   H326      1.0  0.4353944280242671  0.8601764101933589  0.24863305174925962  1.0000
  H   H327      1.0  0.4203288905634128  0.8345014473466766  0.2977084338198961  1.0000
  H   H328      1.0  0.5101505141106825  0.8720772834224235  0.37424472441193035  1.0000
  H   H329      1.0  0.463946736330145  0.8412866865821964  0.37067528094873325  1.0000
  H   H330      1.0  0.5096804269962798  0.825866406519055  0.33759146086749525  1.0000
  H   H331      1.0  0.46660992795721906  0.9294348670135933  0.35166111107441084  1.0000
  H   H332      1.0  0.4211324505108162  0.8980840107861803  0.34914413437714786  1.0000
  H   H333      1.0  0.4344336738823549  0.92368003938728  0.2995354111857391  1.0000
  H   H334      1.0  0.5290307866470431  0.9093308767127537  0.3058309858418777  1.0000
  H   H335      1.0  0.49839530136451277  0.9011898585145496  0.2524684404073779  1.0000
  H   H336      1.0  0.5306472424547957  0.8620080164562651  0.2718049133915965  1.0000
  N   N21       1.0  0.34213935569694237  0.5322212692414021  0.20571191202150535  1.0000
  C   C225      1.0  0.29747279888729244  0.5419287703516669  0.19654385605737898  1.0000
  C   C226      1.0  0.3582700469918676  0.5058335190279952  0.16599150605478386  1.0000
  C   C227      1.0  0.3457156037336753  0.5116656387092724  0.24886592617116493  1.0000
  C   C228      1.0  0.3669990411660661  0.569306990373678  0.2112973882815358  1.0000
  H   H337      1.0  0.28417342156067665  0.5617564972865824  0.2258502830005679  1.0000
  H   H338      1.0  0.27785667840978  0.5145201594688509  0.1919881227370049  1.0000
  H   H339      1.0  0.29380037045528806  0.5573937843608331  0.16408804385556527  1.0000
  H   H340      1.0  0.3917755276939035  0.49735830599981223  0.17186246383152437  1.0000
  H   H341      1.0  0.3400352590405244  0.4776765164217629  0.16093310629747562  1.0000
  H   H342      1.0  0.3563655194345727  0.5202816789673744  0.13269073806092022  1.0000
  H   H343      1.0  0.37879061697032484  0.5021645457431941  0.25554027585682126  1.0000
  H   H344      1.0  0.3261045094088523  0.48430019548735503  0.24632804880533474  1.0000
  H   H345      1.0  0.3352627588615739  0.5310761078376335  0.2799921542989763  1.0000
  H   H346      1.0  0.4009060526498473  0.5631815497421896  0.21832436111560136  1.0000
  H   H347      1.0  0.3556613350851099  0.5901323630058734  0.24077833819930916  1.0000
  H   H348      1.0  0.365210707786434  0.5854513095960054  0.17920963967715992  1.0000
  N   N22       1.0  0.6996129690132186  0.32223717161979304  0.23316902433015108  1.0000
  C   C229      1.0  0.7459599507885271  0.31829888944242996  0.23095183008141815  1.0000
  C   C230      1.0  0.6883476343994761  0.36307519264148763  0.25214413326625623  1.0000
  C   C231      1.0  0.6831051465836582  0.2935132364738452  0.2640612812059562  1.0000
  C   C232      1.0  0.6810571799507128  0.31414479569405995  0.18571550116670185  1.0000
  H   H349      1.0  0.7598943237620945  0.3413278201630709  0.21049978507346387  1.0000
  H   H350      1.0  0.7556461609029055  0.2886097289560541  0.21438233543127427  1.0000
  H   H351      1.0  0.7606192875900362  0.321780710156289  0.2665401619233495  1.0000
  H   H352      1.0  0.6536119738446342  0.3677657120790344  0.25224435773400816  1.0000
  H   H353      1.0  0.7002107625553002  0.36956976272179887  0.28871433949164643  1.0000
  H   H354      1.0  0.7018372622526075  0.3857288266879524  0.23087456516692592  1.0000
  H   H355      1.0  0.6482007191564014  0.2956839487184752  0.2665029984089734  1.0000
  H   H356      1.0  0.6964494486862242  0.29916203714412576  0.30025251430489136  1.0000
  H   H357      1.0  0.6913551936616911  0.262358466182424  0.251142377355097  1.0000
  H   H358      1.0  0.6931563582112208  0.33524987375897625  0.16164004138933274  1.0000
  H   H359      1.0  0.6461502336849875  0.31771208662547373  0.18589082722448633  1.0000
  H   H360      1.0  0.688504562729494  0.28349215993310334  0.1703133193010756  1.0000
  N   N23       1.0  0.07014840190106786  0.1600791101626556  0.37975776499195885  1.0000
  C   C233      1.0  0.10413185434985794  0.18957503590814395  0.3775917529295282  1.0000
  C   C234      1.0  0.03761555111071724  0.17655233068743112  0.412412043028047  1.0000
  C   C235      1.0  0.08758587193152567  0.12300944734900054  0.39628467450531474  1.0000
  C   C236      1.0  0.05108818331768261  0.15124379858873357  0.3326546978486256  1.0000
  H   H361      1.0  0.1298410335137583  0.17786540122874603  0.35421249311129605  1.0000
  H   H362      1.0  0.11840251758424003  0.1980337238960841  0.41276070938143367  1.0000
  H   H363      1.0  0.09203774872623405  0.21745110026276052  0.3641812271820151  1.0000
  H   H364      1.0  0.05138247037528032  0.1855410459798607  0.44768368414891335  1.0000
  H   H365      1.0  0.022241208171713378  0.2034050380852963  0.39973747763255585  1.0000
  H   H366      1.0  0.012549367391063715  0.15429038527912364  0.41660024471387946  1.0000
  H   H367      1.0  0.06280340025017428  0.09982339400016997  0.3971971225376554  1.0000
  H   H368      1.0  0.10137508326399813  0.12823480430244302  0.4321831426597721  1.0000
  H   H369      1.0  0.11295789938707146  0.11006558439855169  0.3731600049146373  1.0000
  H   H370      1.0  0.07481707888487121  0.13889859298857676  0.30711288894764915  1.0000
  H   H371      1.0  0.03708089679350435  0.17843613145283707  0.31931597224171354  1.0000
  H   H372      1.0  0.025428194181300157  0.12893493079534238  0.33286796242512  1.0000
  N   N24       1.0  0.8470502093672652  0.3490275150138373  0.7764944498636626  1.0000
  C   C237      1.0  0.8570020981601248  0.3084197962975823  0.7887385209143476  1.0000
  C   C238      1.0  0.8865551771065721  0.3696592882283474  0.7671995471077977  1.0000
  C   C239      1.0  0.8252530237269106  0.37130999635558115  0.8159103652222969  1.0000
  C   C240      1.0  0.8196322881602923  0.3465847327824695  0.7342025131062899  1.0000
  H   H373      1.0  0.8792854315859807  0.30919508747280083  0.8190672465092512  1.0000
  H   H374      1.0  0.8719305217552986  0.2902412490569146  0.7591705688988635  1.0000
  H   H375      1.0  0.8282556710032156  0.29244004241802124  0.7981408846440902  1.0000
  H   H376      1.0  0.8803351634556486  0.40054495165176457  0.758197404581025  1.0000
  H   H377      1.0  0.908193353740391  0.3715797231251921  0.7983601900743537  1.0000
  H   H378      1.0  0.9037235743201057  0.3537415587088912  0.7374942198677935  1.0000
  H   H379      1.0  0.7960404553954987  0.3559449332505737  0.8252099616417502  1.0000
  H   H380      1.0  0.8163443017928437  0.4018465349736471  0.8076613239185076  1.0000
  H   H381      1.0  0.8456816225765948  0.37447383854164706  0.8479458108197369  1.0000
  H   H382      1.0  0.8353329279843154  0.3299000665810213  0.7038630777834779  1.0000
  H   H383      1.0  0.8115733575177669  0.37668164420953576  0.723701548728897  1.0000
  H   H384      1.0  0.7896238263854598  0.33100895094651167  0.7399512595103377  1.0000
