data_image0
_chemical_formula_structural       FeS2FeS2FeSFeS3FeS2FeS2FeSFeS3FeS2FeS2FeSFeS3FeS2FeS2FeSFeS3FeS2FeS2FeSFeS3FeS2FeS2FeSFeS3FeS2FeS2FeSFeS3FeS2FeS2FeSFeS3FeS2FeS2FeSFeS3FeS2FeS2FeSFeS3FeS2FeS2FeSFeS3FeS2FeS2FeSFeS3FeS2FeS2FeSFeS3FeS2FeS2FeSFeS3FeS2FeS2FeSFeS3FeS2FeS2FeSFeS3FeS2FeS2FeSFeS3FeS2FeS2FeSFeS3FeS2FeS2FeSFeS3FeS2FeS2FeSFeS3FeS2FeS2FeSFeS3FeS2FeS2FeSFeS3FeS2FeS2FeSFeS3FeS2FeS2FeSFeS3C6H4C6H4C6H4C6H4C6H4C6H4C6H4C6H4C6H4C6H4C6H4C6H4C6H4C6H4C6H4C6H4C6H4C6H4C6H4C6H4C6H4C6H4C6H4C6H4C6H4C6H4C6H4C6H4C6H4C6H4C6H4C6H4C6H4C6H4C6H4C6H4C6H4C6H4C6H4C6H4C6H4C6H4C6H4C6H4C6H4C6H4C6H4C6H4NC4H12NC4H12NC4H12NC4H12NC4H12NC4H12NC4H12NC4H12NC4H12NC4H12NC4H12NC4H12NC4H12NC4H12NC4H12NC4H12NC4H12NC4H12NC4H12NC4H12NC4H12NC4H12NC4H12NC4H12NC4H12NC4H12NC4H12NC4H12NC4H12NC4H12NC4H12NC4H12NC4H12NC4H12NC4H12NC4H12NC4H12NC4H12NC4H12NC4H12NC4H12NC4H12NC4H12NC4H12NC4H12NC4H12NC4H12NC4H12
_chemical_formula_sum              "Fe96 S192 C480 H768 N48"
_cell_length_a       51.2676548886603
_cell_length_b       50.622488688644296
_cell_length_c       33.83383035581908
_cell_angle_alpha    89.71113093562903
_cell_angle_beta     89.83181741644968
_cell_angle_gamma    87.6035206474415

_space_group_name_H-M_alt    "P 1"
_space_group_IT_number       1

loop_
  _space_group_symop_operation_xyz
  'x, y, z'

loop_
  _atom_site_type_symbol
  _atom_site_label
  _atom_site_symmetry_multiplicity
  _atom_site_fract_x
  _atom_site_fract_y
  _atom_site_fract_z
  _atom_site_occupancy
  Fe  Fe1       1.0  0.35920903227208195  0.9186473775442805  0.07302137399547771  1.0000
  S   S1        1.0  0.3160307981089586  0.9246375394437264  0.08158097179499853  1.0000
  S   S2        1.0  0.3865278358831788  0.919413601565068  0.12540531624339338  1.0000
  Fe  Fe2       1.0  0.3541044701487743  0.9143932833419508  0.9831785915202351  1.0000
  S   S3        1.0  0.31038948985249515  0.9195305499396492  0.9851984657438484  1.0000
  S   S4        1.0  0.37532251612717255  0.9127323799441119  0.9244894097965134  1.0000
  Fe  Fe3       1.0  0.3177589814092681  0.9518290779739134  0.02897661723807965  1.0000
  S   S5        1.0  0.2951815237599079  0.9912131354375099  0.025625716682279753  1.0000
  Fe  Fe4       1.0  0.313120973335755  0.8919845652732862  0.03748061503043654  1.0000
  S   S6        1.0  0.2912758419904701  0.8554364425949554  0.05234564133740533  1.0000
  S   S7        1.0  0.36124231701051324  0.9484340154724182  0.023676381285035353  1.0000
  S   S8        1.0  0.3565180145650805  0.884252563300505  0.032001204165902575  1.0000
  Fe  Fe5       1.0  0.29237061987127316  0.17950685197596847  0.013509311013465197  1.0000
  S   S9        1.0  0.3228999919022811  0.2084334976695114  0.9987754650428476  1.0000
  S   S10       1.0  0.2500317622757207  0.1890242553125875  0.0004262396880869712  1.0000
  Fe  Fe6       1.0  0.33101333609317507  0.1390509182596114  0.04894620532885088  1.0000
  S   S11       1.0  0.36445983019863454  0.16549977562967047  0.038499997582985834  1.0000
  S   S12       1.0  0.3434088491329276  0.09937458632210047  0.07598656524298952  1.0000
  Fe  Fe7       1.0  0.3377163336095043  0.19847972491977114  0.059713900412653606  1.0000
  S   S13       1.0  0.3497175012101881  0.23317706442236674  0.09593960158361835  1.0000
  Fe  Fe8       1.0  0.34681407305394485  0.1729028095020153  0.9786987343410865  1.0000
  S   S14       1.0  0.37649985214992165  0.1698548468852461  0.9292286574952384  1.0000
  S   S15       1.0  0.3055838186163438  0.17168445011636782  0.07593933338633238  1.0000
  S   S16       1.0  0.31482411736977123  0.14448844172753983  0.9877418348458473  1.0000
  Fe  Fe9       1.0  0.8826016919929429  0.749392970747902  0.06550502305238519  1.0000
  S   S17       1.0  0.9150462553617202  0.7756087751627233  0.047108868616260784  1.0000
  S   S18       1.0  0.8600468412561048  0.7510761674077971  0.1229925165703505  1.0000
  Fe  Fe10      1.0  0.8749270244900818  0.7278592134894227  0.9823446011287268  1.0000
  S   S19       1.0  0.9062990172953792  0.7522342292079699  0.9565716183421131  1.0000
  S   S20       1.0  0.8459251858225235  0.7020055872238803  0.9526191915766736  1.0000
  Fe  Fe11      1.0  0.9295042519908435  0.7406720139332105  0.010918883868848539  1.0000
  S   S21       1.0  0.9710574712530765  0.7255236566521795  0.9987694726166048  1.0000
  Fe  Fe12      1.0  0.8897735043171877  0.7851500259192798  0.9944297283852741  1.0000
  S   S22       1.0  0.8827565784919861  0.8259565811639994  0.9688988521699787  1.0000
  S   S23       1.0  0.8991082527035903  0.7134691125495157  0.03398187212436521  1.0000
  S   S24       1.0  0.8563990426773763  0.7619238427478828  0.015371003607209  1.0000
  Fe  Fe13      1.0  0.16652916592312858  0.7904545902455159  0.9974247396486634  1.0000
  S   S25       1.0  0.1917035865427608  0.7537236636238704  0.006870578671912098  1.0000
  S   S26       1.0  0.18282415826718434  0.8290553530590092  0.9767384735934994  1.0000
  Fe  Fe14      1.0  0.11713619049434067  0.764804016826352  0.028946164400094787  1.0000
  S   S27       1.0  0.13889523827641345  0.7260396008831883  0.04113935615513845  1.0000
  S   S28       1.0  0.07657286748177655  0.7764907673639915  0.05265607590693633  1.0000
  Fe  Fe15      1.0  0.17087457685404844  0.7503829983302627  0.06499219424814869  1.0000
  S   S29       1.0  0.19342006432882616  0.7474451769070843  0.12243850809940754  1.0000
  Fe  Fe16      1.0  0.15785354160417597  0.7327456817989003  0.9817894046347473  1.0000
  S   S30       1.0  0.16651918654684017  0.6977150281378304  0.9419775238360594  1.0000
  S   S31       1.0  0.14802780915910835  0.788634545318768  0.05709014948713185  1.0000
  S   S32       1.0  0.13374945362582993  0.7698700970283203  0.9676816054180042  1.0000
  Fe  Fe17      1.0  0.7661932995765179  0.9128549186102952  0.03823041311623654  1.0000
  S   S33       1.0  0.7322404778146926  0.8869917321007653  0.03060934090824774  1.0000
  S   S34       1.0  0.8001611609877061  0.8931882189010032  0.07062795994110926  1.0000
  Fe  Fe18      1.0  0.7381861384559895  0.9600207361770807  0.9987960108719673  1.0000
  S   S35       1.0  0.7023088781263924  0.9371657434452498  0.9869918992413619  1.0000
  S   S36       1.0  0.7357575782487765  0.0023483292470776185  0.9761326307319824  1.0000
  Fe  Fe19      1.0  0.7077757681780164  0.9223779529940949  0.04914343206558947  1.0000
  S   S37       1.0  0.67198427455916  0.9196025544856145  0.0876334467231055  1.0000
  Fe  Fe20      1.0  0.7300523214417296  0.9039003870665162  0.9692744866599114  1.0000
  S   S38       1.0  0.7267443980080717  0.8734231350612434  0.9210341876136383  1.0000
  S   S39       1.0  0.7418201351203563  0.9472772789490185  0.06237283267223934  1.0000
  S   S40       1.0  0.765796752043846  0.9277082753889011  0.9755994225639812  1.0000
  Fe  Fe21      1.0  0.7302166004832892  0.14495552086063815  0.0635783696390555  1.0000
  S   S41       1.0  0.6923233499414798  0.16576745825226777  0.08140345269622995  1.0000
  S   S42       1.0  0.7432415722209441  0.10380599393072086  0.08462438176674292  1.0000
  Fe  Fe22      1.0  0.7505258426118244  0.19369540785462402  0.022511296608474174  1.0000
  S   S43       1.0  0.7144183698147302  0.21827373069673361  0.03576097258864275  1.0000
  S   S44       1.0  0.7845050268952876  0.2103502687135501  0.9892236800538716  1.0000
  Fe  Fe23      1.0  0.7166974488367296  0.20010366896183318  0.09637419095604538  1.0000
  S   S45       1.0  0.7113869296375855  0.22925340432362212  0.14628784971431513  1.0000
  Fe  Fe24      1.0  0.6928886669605306  0.1823302455033146  0.019608735805176414  1.0000
  S   S46       1.0  0.6556499711796352  0.18839539777538789  0.985165764633194  1.0000
  S   S47       1.0  0.7547169377070234  0.17808357540615222  0.08425591993209842  1.0000
  S   S48       1.0  0.7288836080903843  0.15896004850932574  0.00031417197570715594  1.0000
  Fe  Fe25      1.0  0.8205576034202748  0.6688227110789918  0.7352459659348687  1.0000
  S   S49       1.0  0.7874557206338303  0.6440452429230128  0.7549886907925543  1.0000
  S   S50       1.0  0.8574374534937566  0.6750524591827215  0.7699984506714355  1.0000
  Fe  Fe26      1.0  0.7949814072412114  0.6831332056316234  0.655758265060649  1.0000
  S   S51       1.0  0.7597198670725276  0.660138239775486  0.6695244794406444  1.0000
  S   S52       1.0  0.7957539290672566  0.7069868968129266  0.5990268892582364  1.0000
  Fe  Fe27      1.0  0.7620750693612234  0.677371132044775  0.7301990750693029  1.0000
  S   S53       1.0  0.7281451134678564  0.6964924100796669  0.76300502003695  1.0000
  Fe  Fe28      1.0  0.7882012879064209  0.6290389376693348  0.6924940112951167  1.0000
  S   S54       1.0  0.7836320152620224  0.5879141634221906  0.6692010532642944  1.0000
  S   S55       1.0  0.7950721028140965  0.7031938618499294  0.7148567915892664  1.0000
  S   S56       1.0  0.8235961623413954  0.6509076376845353  0.6745557754886449  1.0000
  Fe  Fe29      1.0  0.620140192071252  0.863826948819931  0.6512573373269244  1.0000
  S   S57       1.0  0.6172605116483814  0.8199445062828701  0.6523361226892448  1.0000
  S   S58       1.0  0.6089304210221069  0.8888281983186331  0.5984307120425397  1.0000
  Fe  Fe30      1.0  0.6416853766743379  0.8659195664085649  0.7344180243658298  1.0000
  S   S59       1.0  0.6408356598881336  0.8218227340621302  0.7433699189412932  1.0000
  S   S60       1.0  0.6531077636699625  0.8991241059936969  0.7741565636482399  1.0000
  Fe  Fe31      1.0  0.6564620098582619  0.8196501929822214  0.6813028970866406  1.0000
  S   S61       1.0  0.6867428397241634  0.7911570204859559  0.6561930105994461  1.0000
  Fe  Fe32      1.0  0.6015103044882056  0.8254121023140476  0.7137402195442305  1.0000
  S   S62       1.0  0.5683855798220824  0.7999823860585239  0.7326600617548289  1.0000
  S   S63       1.0  0.6608470947204667  0.8632108847511041  0.6748416133555667  1.0000
  S   S64       1.0  0.6009408679106905  0.8696555538580103  0.7103259094178075  1.0000
  Fe  Fe33      1.0  0.6536322534958652  0.22655592494457613  0.7652757797690221  1.0000
  S   S65       1.0  0.6438582365982527  0.26574418593482235  0.7932498609739955  1.0000
  S   S66       1.0  0.654338401300173  0.18810431669322267  0.7991237445605661  1.0000
  Fe  Fe34      1.0  0.665982498964958  0.251107852447927  0.6851293428960757  1.0000
  S   S67       1.0  0.6579657629454816  0.2922455766736049  0.7071841288085376  1.0000
  S   S68       1.0  0.6817637464425306  0.2468692499761741  0.6232362053285095  1.0000
  Fe  Fe35      1.0  0.6795597189950655  0.27887021595554423  0.7616697563308372  1.0000
  S   S69       1.0  0.7123163414238868  0.2985515708085713  0.7924028276238594  1.0000
  Fe  Fe36      1.0  0.6231124673229719  0.2749715936080024  0.736191859257069  1.0000
  S   S70       1.0  0.5845402178140204  0.2975445743266177  0.7330817156531161  1.0000
  S   S71       1.0  0.690740006882173  0.2390485168378498  0.7372210992084554  1.0000
  S   S72       1.0  0.6296920596637685  0.23444194109160962  0.7104473265797608  1.0000
  Fe  Fe37      1.0  0.8339865559624147  0.3909785273100319  0.7464923429150422  1.0000
  S   S73       1.0  0.801311954744544  0.41816066641686206  0.7679350598593556  1.0000
  S   S74       1.0  0.8570740419189662  0.35949891342345824  0.7805674469360279  1.0000
  Fe  Fe38      1.0  0.8327992377282243  0.41414231832328297  0.6636243849502433  1.0000
  S   S75       1.0  0.8004252684514974  0.44386471004046907  0.6776335939347266  1.0000
  S   S76       1.0  0.8540483986465486  0.4078874066528852  0.6057545371037287  1.0000
  Fe  Fe39      1.0  0.8216963908083997  0.44974230583631464  0.734641361603811  1.0000
  S   S77       1.0  0.8257520806760817  0.4884755392617171  0.7660001761609116  1.0000
  Fe  Fe40      1.0  0.7825715670809109  0.4102325217580254  0.7098014418266787  1.0000
  S   S78       1.0  0.7395633141110721  0.40435439331275885  0.7050513234300726  1.0000
  S   S79       1.0  0.8559219720957413  0.42330265919122195  0.7177937541800511  1.0000
  S   S80       1.0  0.8130738593798399  0.3798826550675596  0.6911110081412483  1.0000
  Fe  Fe41      1.0  0.2354733162625556  0.62978453737346  0.70424530685672  1.0000
  S   S81       1.0  0.21268569579514182  0.6637727440193041  0.6756442367446042  1.0000
  S   S82       1.0  0.2191489270272196  0.5893949409456363  0.6967412116755095  1.0000
  Fe  Fe42      1.0  0.27709738120721616  0.6649104979723656  0.7346129601261485  1.0000
  S   S83       1.0  0.2580280107666203  0.7011513159034987  0.7080962430072267  1.0000
  S   S84       1.0  0.3125902393770743  0.6736807718785299  0.7699309926884788  1.0000
  Fe  Fe43      1.0  0.2208433482955052  0.685537265093695  0.7317304919175371  1.0000
  S   S85       1.0  0.19460040584393387  0.7164345488193058  0.7615569186238771  1.0000
  Fe  Fe44      1.0  0.25192953738852447  0.6761878018070527  0.6548941359036804  1.0000
  S   S86       1.0  0.26401789255744756  0.6926291877662543  0.5957791786112457  1.0000
  S   S87       1.0  0.24036731442376266  0.6506421096048853  0.7622172850612277  1.0000
  S   S88       1.0  0.2742747308745923  0.6407916548586605  0.6794682573656721  1.0000
  Fe  Fe45      1.0  0.37082670796499934  0.8196945570844973  0.7464402115784062  1.0000
  S   S89       1.0  0.40892991994913963  0.7963690922530202  0.7405936203609097  1.0000
  S   S90       1.0  0.35105668010704005  0.8204767160981442  0.8063357353553761  1.0000
  Fe  Fe46      1.0  0.3681837534800982  0.8317891526391897  0.6573156607567243  1.0000
  S   S91       1.0  0.4062370508063531  0.810262246038566  0.6453535897191672  1.0000
  S   S92       1.0  0.3447033448830755  0.8447716204545572  0.6040202555160347  1.0000
  Fe  Fe47      1.0  0.3911056819638412  0.7794716305546863  0.6859721208408835  1.0000
  S   S93       1.0  0.3880380535927827  0.7385914376353988  0.6619021140578794  1.0000
  Fe  Fe48      1.0  0.419835903329768  0.8296513880893406  0.7004522062653736  1.0000
  S   S94       1.0  0.45618838346553414  0.8528208608363849  0.702679599524917  1.0000
  S   S95       1.0  0.3522382512228256  0.7998784792373158  0.6952430885614245  1.0000
  S   S96       1.0  0.3826749331260511  0.854170898345593  0.709469800591081  1.0000
  Fe  Fe49      1.0  0.26233384108345764  0.38891347468133664  0.7577243588680865  1.0000
  S   S97       1.0  0.21891112942846766  0.3875893334852372  0.7503331725857199  1.0000
  S   S98       1.0  0.2817225717170547  0.3488586957162107  0.7687721889886019  1.0000
  Fe  Fe50      1.0  0.2620105885239852  0.44847652145662553  0.7438470735825429  1.0000
  S   S99       1.0  0.21865661098401348  0.4511335722001877  0.7358023507936999  1.0000
  S   S100      1.0  0.2854691284044928  0.4852714105135641  0.7412673658873369  1.0000
  Fe  Fe51      1.0  0.2173951757624567  0.4238535304928835  0.7882382479591098  1.0000
  S   S101      1.0  0.19135284599712915  0.4346415439462865  0.8403664836234634  1.0000
  Fe  Fe52      1.0  0.22508581336385008  0.4148014655876923  0.6987439073927681  1.0000
  S   S102      1.0  0.20438365821860974  0.4096893824608577  0.6403874395455069  1.0000
  S   S103      1.0  0.2605358776093534  0.42349571350316406  0.798932458186295  1.0000
  S   S104      1.0  0.26868997428884606  0.4136498257785231  0.7036370258380737  1.0000
  Fe  Fe53      1.0  0.39219302963382985  0.23737013435102883  0.7304643697087836  1.0000
  S   S105      1.0  0.41589296804385517  0.2625607997899613  0.7694747657377906  1.0000
  S   S106      1.0  0.35687653265148045  0.22017273447586105  0.759406573511586  1.0000
  Fe  Fe54      1.0  0.4244092823245005  0.25026010252391584  0.6566000711335983  1.0000
  S   S107      1.0  0.4498817604004233  0.2769276222762296  0.6906843364437737  1.0000
  S   S108      1.0  0.43708201071837494  0.24338871854544078  0.5930460726948256  1.0000
  Fe  Fe55      1.0  0.45041721101169585  0.2450640700283074  0.7368770587942594  1.0000
  S   S109      1.0  0.48711270802666984  0.22851542868711208  0.7658856993808173  1.0000
  Fe  Fe56      1.0  0.4126857336877537  0.29162694329309613  0.7195660737667225  1.0000
  S   S110      1.0  0.40218330851977163  0.3342841157775309  0.731821338527696  1.0000
  S   S111      1.0  0.4271048962406387  0.2171810833548421  0.7014118664865483  1.0000
  S   S112      1.0  0.38690703407629884  0.26761771622456765  0.68177924782875  1.0000
  Fe  Fe57      1.0  0.8799059272228644  0.31205814916360325  0.07071991219832219  1.0000
  S   S113      1.0  0.8644760291953004  0.3540378218440908  0.06917922948310928  1.0000
  S   S114      1.0  0.8502137129189924  0.2852615833662755  0.09722005008892798  1.0000
  Fe  Fe58      1.0  0.9324161289427754  0.3264946064883483  0.036878743128683444  1.0000
  S   S115      1.0  0.9202289345715116  0.3694951619122527  0.03178856269574282  1.0000
  S   S116      1.0  0.9730430523422514  0.3159805914934792  0.013174080686553014  1.0000
  Fe  Fe59      1.0  0.9033350990194025  0.3643798286513352  0.09229006417106181  1.0000
  S   S117      1.0  0.906379286027079  0.39824465066825127  0.1347605007385278  1.0000
  Fe  Fe60      1.0  0.8824405925344861  0.3555889976321788  0.008890336312517011  1.0000
  S   S118      1.0  0.8579248599555958  0.3793277282147979  0.96525840047856  1.0000
  S   S119      1.0  0.9179585860443166  0.3222164007740753  0.09945807751398344  1.0000
  S   S120      1.0  0.8953526913718277  0.31270697954471893  0.008432108609414346  1.0000
  Fe  Fe61      1.0  0.1735590114389321  0.30848819320281845  0.0884064923915193  1.0000
  S   S121      1.0  0.18853965247526952  0.34487862401002295  0.059908909568779305  1.0000
  S   S122      1.0  0.20412335673957838  0.2791327409931798  0.11178385236443066  1.0000
  Fe  Fe62      1.0  0.11635652219505653  0.3304824970769612  0.08717588623120746  1.0000
  S   S123      1.0  0.12753135754067377  0.368617482582794  0.05867902891659013  1.0000
  S   S124      1.0  0.07648689710185148  0.32489364410540245  0.11503527059612156  1.0000
  Fe  Fe63      1.0  0.15372699092366707  0.3426522496501011  0.02011651852519125  1.0000
  S   S125      1.0  0.1587052245028229  0.34120437362191436  0.953592814502087  1.0000
  Fe  Fe64      1.0  0.16133121293358138  0.3669524996216159  0.10132577398045034  1.0000
  S   S126      1.0  0.17317476681901325  0.4014891316322331  0.1386391975494817  1.0000
  S   S127      1.0  0.14034545942588408  0.3042535988955259  0.046144036398830135  1.0000
  S   S128      1.0  0.14849225591715376  0.33068106808618397  0.1320615480097616  1.0000
  Fe  Fe65      1.0  0.8197562795083412  0.6585657973430967  0.38613515338281906  1.0000
  S   S129      1.0  0.7768427365673066  0.6664444937862187  0.37810991089434776  1.0000
  S   S130      1.0  0.8368137684180198  0.6469233097280485  0.4453470957440675  1.0000
  Fe  Fe66      1.0  0.8307221021023896  0.6619971354551525  0.2965994843684778  1.0000
  S   S131      1.0  0.7884117627452691  0.6693856954669475  0.28179793228321925  1.0000
  S   S132      1.0  0.8630829543820344  0.660066184662468  0.25108758517648566  1.0000
  Fe  Fe67      1.0  0.7884277322861937  0.6969734848953343  0.33364734328423007  1.0000
  S   S133      1.0  0.7763510575966297  0.7402926841209054  0.3312012537366629  1.0000
  Fe  Fe68      1.0  0.7814084538455085  0.6379013783707367  0.3275221348329714  1.0000
  S   S134      1.0  0.7549075188522619  0.6035437989784613  0.3243133866212989  1.0000
  S   S135      1.0  0.83136017898962  0.69128426459066  0.3458997191198909  1.0000
  S   S136      1.0  0.8238041373330811  0.62834807811152  0.33812303784090536  1.0000
  Fe  Fe69      1.0  0.6502339794385554  0.8212790761686166  0.31371066234528644  1.0000
  S   S137      1.0  0.6815142284350829  0.8457543009731104  0.3380473309631379  1.0000
  S   S138      1.0  0.6605426405909322  0.7797490916707656  0.2924707566689705  1.0000
  Fe  Fe70      1.0  0.6084498168191758  0.8641835553224143  0.33121234316953707  1.0000
  S   S139      1.0  0.6373529296521054  0.8915871726889317  0.3572730731529211  1.0000
  S   S140      1.0  0.5666327371071239  0.8801243660537145  0.3310366167011961  1.0000
  Fe  Fe71      1.0  0.6621134169948945  0.8794385842385706  0.30500564886237047  1.0000
  S   S141      1.0  0.6900232062682189  0.9047121474230354  0.27148536524269046  1.0000
  Fe  Fe72      1.0  0.6537042740144667  0.8549845481384393  0.38738659473506637  1.0000
  S   S142      1.0  0.6711131630749171  0.8475345098655507  0.44761110461710735  1.0000
  S   S143      1.0  0.6323399710764003  0.8543628418486656  0.2767382433224191  1.0000
  S   S144      1.0  0.6231542461219186  0.8283980569999667  0.36526278130265594  1.0000
  Fe  Fe73      1.0  0.6163282074366608  0.25629150878899876  0.423952737460783  1.0000
  S   S145      1.0  0.6181233062598986  0.2996719029504264  0.412177913855809  1.0000
  S   S146      1.0  0.5999089423635227  0.24452285485217093  0.4833203178897836  1.0000
  Fe  Fe74      1.0  0.6344558712964101  0.24231553206000872  0.3393300662047216  1.0000
  S   S147      1.0  0.6372236145699166  0.2849724733777355  0.3215830027625448  1.0000
  S   S148      1.0  0.6457849621646127  0.20742830045001018  0.30030109788000986  1.0000
  Fe  Fe75      1.0  0.6558475090641169  0.289424122056261  0.38106883010575493  1.0000
  S   S149      1.0  0.6941157158794952  0.30733497817440814  0.3960041853372631  1.0000
  Fe  Fe76      1.0  0.5991617029577867  0.29054307001821  0.35436548733737594  1.0000
  S   S150      1.0  0.5644348872526919  0.3161213275451935  0.3350033635021226  1.0000
  S   S151      1.0  0.6554878459357998  0.24637293128155607  0.3969788830312674  1.0000
  S   S152      1.0  0.5950167398537507  0.24755316399511096  0.3680616329191863  1.0000
  Fe  Fe77      1.0  0.8020414770774263  0.4294671781176744  0.39120773567506995  1.0000
  S   S153      1.0  0.7750434390805816  0.44716821220623465  0.34486169705567754  1.0000
  S   S154      1.0  0.7861909740322416  0.43526093955991446  0.4531793933884048  1.0000
  Fe  Fe78      1.0  0.8395485184144946  0.40607663370373975  0.3291665139451686  1.0000
  S   S155      1.0  0.8154415786083414  0.4223004052472381  0.27909957174753736  1.0000
  S   S156      1.0  0.8728397933981398  0.37798799475624106  0.3120994625965467  1.0000
  Fe  Fe79      1.0  0.8118070622127035  0.45927145838209177  0.315208637006147  1.0000
  S   S157      1.0  0.8201563696780736  0.4979926395485225  0.2856501652380516  1.0000
  Fe  Fe80      1.0  0.7814181167627291  0.40835964111813017  0.31374608630541356  1.0000
  S   S158      1.0  0.7496996517602446  0.3867562026800253  0.2825681854966358  1.0000
  S   S159      1.0  0.8386889143887053  0.4441424551388473  0.36344219525067434  1.0000
  S   S160      1.0  0.8056997646754386  0.38979058813977324  0.36205369961352374  1.0000
  Fe  Fe81      1.0  0.19902782406743683  0.6698928460127882  0.3079252984975048  1.0000
  S   S161      1.0  0.24207521172142923  0.6638555062549962  0.29828576205132573  1.0000
  S   S162      1.0  0.17229773060544795  0.6632233879269841  0.2564093967762229  1.0000
  Fe  Fe82      1.0  0.2058824340810456  0.68168208099239  0.39558749165322066  1.0000
  S   S163      1.0  0.2494840867005359  0.6768940529126951  0.39241223980274476  1.0000
  S   S164      1.0  0.1850334461497915  0.6872577018322927  0.45367390427003645  1.0000
  Fe  Fe83      1.0  0.24512978596748458  0.6999650527137277  0.33571840717704676  1.0000
  S   S165      1.0  0.2685015107529008  0.7336360277914554  0.3133464102692243  1.0000
  Fe  Fe84      1.0  0.24182547358190362  0.6413695478117919  0.35561558360241236  1.0000
  S   S166      1.0  0.26457797917528875  0.6026225722382909  0.3638842187721195  1.0000
  S   S167      1.0  0.20181108176126766  0.7076398903986376  0.34176065604913014  1.0000
  S   S168      1.0  0.19846444742054764  0.6445347056186022  0.36235581188602656  1.0000
  Fe  Fe85      1.0  0.4074215416171906  0.8470156098647724  0.4024373762745136  1.0000
  S   S169      1.0  0.4271709909113023  0.806776333715233  0.40150943306709574  1.0000
  S   S170      1.0  0.4171969474829032  0.8696349086452798  0.4572132906614739  1.0000
  Fe  Fe86      1.0  0.38174726397214653  0.8394818247790666  0.32234432167694765  1.0000
  S   S171      1.0  0.39933356499026107  0.798396305633631  0.3160757857726641  1.0000
  S   S172      1.0  0.3533914505121662  0.8513771243153094  0.2736747816914747  1.0000
  Fe  Fe87      1.0  0.38880884648776304  0.7934598416424447  0.3798392318484138  1.0000
  S   S173      1.0  0.37150752836671924  0.7575038919562631  0.406627704074991  1.0000
  Fe  Fe88      1.0  0.4359155825754596  0.8158755914340385  0.33825179957175716  1.0000
  S   S174      1.0  0.4743021977636704  0.8024211891891028  0.3111121756248356  1.0000
  S   S175      1.0  0.3681496412046728  0.8330704519875789  0.3849314196927158  1.0000
  S   S176      1.0  0.4193117644070657  0.8575875981204198  0.3402747264916572  1.0000
  Fe  Fe89      1.0  0.24936407348192444  0.41394751416802616  0.42572025522777  1.0000
  S   S177      1.0  0.26347333147184765  0.45274030776294294  0.4039617938746139  1.0000
  S   S178      1.0  0.2692025815027828  0.39852829364445236  0.4811566487418829  1.0000
  Fe  Fe90      1.0  0.21355280500006357  0.4081261293129621  0.35458701702002865  1.0000
  S   S179      1.0  0.2245140741003963  0.44662581601665974  0.3277078391338028  1.0000
  S   S180      1.0  0.18787236883074374  0.38033597346458264  0.3222058483494655  1.0000
  Fe  Fe91      1.0  0.26524587157995977  0.4334564895725122  0.34456701676027496  1.0000
  S   S181      1.0  0.29772118196441144  0.4403924029277243  0.30180107239597764  1.0000
  Fe  Fe92      1.0  0.2215475364661954  0.46216069844440205  0.3895409228729932  1.0000
  S   S182      1.0  0.20156504556384566  0.5011353611694122  0.40548872358435994  1.0000
  S   S183      1.0  0.2547441229168975  0.3937581549816528  0.3671942335810993  1.0000
  S   S184      1.0  0.20693781952239143  0.4246111910458387  0.4157758364003727  1.0000
  Fe  Fe93      1.0  0.36986463801907615  0.25879310356860485  0.3144423205353203  1.0000
  S   S185      1.0  0.40245897490857363  0.2789061451533179  0.2842475015884774  1.0000
  S   S186      1.0  0.3489849133210536  0.22676725872686804  0.2825863003186894  1.0000
  Fe  Fe94      1.0  0.38030586638930636  0.28553072543956065  0.3932424367347733  1.0000
  S   S187      1.0  0.4142446718050573  0.30723825127006865  0.3692736821167035  1.0000
  S   S188      1.0  0.36643697231002  0.2932063610568033  0.45569116791832265  1.0000
  Fe  Fe95      1.0  0.38816285657116156  0.31499910760703165  0.3169149044246027  1.0000
  S   S189      1.0  0.38926835315906944  0.35385730257549686  0.2850385995573109  1.0000
  Fe  Fe96      1.0  0.4252769555401325  0.26910472560748394  0.3389276693226271  1.0000
  S   S190      1.0  0.4644937381224912  0.24808236463255778  0.3319265425058629  1.0000
  S   S191      1.0  0.3531960093224387  0.2959908931431136  0.34269659145300835  1.0000
  S   S192      1.0  0.3936037052250415  0.2464950085973664  0.3675558664117737  1.0000
  C   C1        1.0  0.32242757384768805  0.41553444572609527  0.2974697584536648  1.0000
  C   C2        1.0  0.3458904463012155  0.4218369428246701  0.27935837177200346  1.0000
  C   C3        1.0  0.36609852307919283  0.40259771850710635  0.27536115290405405  1.0000
  C   C4        1.0  0.36293073183537794  0.3768662597976534  0.28919054338329864  1.0000
  C   C5        1.0  0.3391419292295385  0.370192706206138  0.3061266586891054  1.0000
  C   C6        1.0  0.3188959284050343  0.38958181464030595  0.31042945955699147  1.0000
  H   H1        1.0  0.3486500120014575  0.4417730620874951  0.2688878152098605  1.0000
  H   H2        1.0  0.3844058047836258  0.40776477042360837  0.26193181336734667  1.0000
  H   H3        1.0  0.3364131556864082  0.35012694842201125  0.3157662527784736  1.0000
  H   H4        1.0  0.3006325918556321  0.38435260250521713  0.32346459464103366  1.0000
  C   C7        1.0  0.2468984741244256  0.5745681426733994  0.3758030929333054  1.0000
  C   C8        1.0  0.25815027117075123  0.549331101680516  0.3687096975502585  1.0000
  C   C9        1.0  0.2443083859402855  0.5266439249269641  0.3774526338634873  1.0000
  C   C10       1.0  0.21929416919996755  0.5291240946378344  0.3939522015118522  1.0000
  C   C11       1.0  0.2081553847060321  0.5543342701168077  0.40151093587876097  1.0000
  C   C12       1.0  0.22187949243050514  0.5769914523360664  0.3923536707947205  1.0000
  H   H5        1.0  0.2775249543491001  0.5472913643605847  0.35595965635506627  1.0000
  H   H6        1.0  0.25302141142758583  0.5072837387166858  0.37126251668962185  1.0000
  H   H7        1.0  0.1888125155963718  0.5563532800865306  0.4143480132285893  1.0000
  H   H8        1.0  0.2131014918753328  0.5962292497292165  0.39857552970434973  1.0000
  C   C13       1.0  0.2969437119842692  0.7398894342758587  0.3400010952776919  1.0000
  C   C14       1.0  0.3060815023849905  0.7228061123890561  0.3700221425224704  1.0000
  C   C15       1.0  0.32897365159525266  0.7282569841279147  0.3906593641720511  1.0000
  C   C16       1.0  0.34279479814594016  0.7507267466488434  0.38113546425437733  1.0000
  C   C17       1.0  0.33364937412278484  0.7677642702367221  0.3511191757889617  1.0000
  C   C18       1.0  0.3107914416721941  0.7623522047382119  0.3306237363130826  1.0000
  H   H9        1.0  0.29573082523483546  0.7052796497776544  0.3770601600858571  1.0000
  H   H10       1.0  0.33607926886788697  0.7149586225524159  0.41369545800763335  1.0000
  H   H11       1.0  0.3441093973016976  0.7852154241709004  0.3437160192093287  1.0000
  H   H12       1.0  0.3038143111929517  0.7757373998231162  0.3076922180893932  1.0000
  C   C19       1.0  0.5361981417114005  0.2982931827219577  0.3273292916143875  1.0000
  C   C20       1.0  0.5115280722387638  0.3104181697281017  0.3342504796501891  1.0000
  C   C21       1.0  0.4890855375900027  0.2953989816514422  0.3337871131507055  1.0000
  C   C22       1.0  0.49136280627991363  0.2682128850529821  0.32661474250999184  1.0000
  C   C23       1.0  0.5158419507080656  0.2563791517237879  0.3178440638308292  1.0000
  C   C24       1.0  0.5381630487060203  0.2714606186817996  0.31771023321080566  1.0000
  H   H13       1.0  0.5098832076367651  0.3312622583732168  0.34123764669333423  1.0000
  H   H14       1.0  0.4702096166068881  0.3047295513651452  0.3401847026427393  1.0000
  H   H15       1.0  0.5176929943439009  0.23540144749709377  0.31190575509487534  1.0000
  H   H16       1.0  0.556973159328041  0.26220895259264354  0.3107896852344871  1.0000
  C   C25       1.0  0.7097341906133566  0.32693693974117394  0.36105390052514197  1.0000
  C   C26       1.0  0.6967783533768909  0.3373916528143454  0.3277746710782155  1.0000
  C   C27       1.0  0.7095707419013435  0.35486566522919183  0.30247359664985213  1.0000
  C   C28       1.0  0.7351526521933149  0.36199456267677543  0.3107014162057351  1.0000
  C   C29       1.0  0.748376432579763  0.35027537306553486  0.3427028950983642  1.0000
  C   C30       1.0  0.73573519089812  0.3328241227585358  0.36776348879847126  1.0000
  H   H17       1.0  0.6766931346863695  0.3327715669227045  0.32226200122580995  1.0000
  H   H18       1.0  0.6992573444942224  0.3637029507430556  0.27751154849171683  1.0000
  H   H19       1.0  0.7683300719798473  0.3546746976374552  0.3483979611627031  1.0000
  H   H20       1.0  0.7460009251208775  0.324330153141536  0.39302087545049985  1.0000
  C   C31       1.0  0.5414593139644016  0.8582479213603911  0.3235408261187866  1.0000
  C   C32       1.0  0.5466458986924368  0.8311236222722059  0.3187782177321761  1.0000
  C   C33       1.0  0.5258908992762228  0.8140907824291289  0.31448583658590556  1.0000
  C   C34       1.0  0.49997816593933286  0.8240840823409329  0.31572153732970315  1.0000
  C   C35       1.0  0.4948411995556203  0.8512243407833806  0.32019964940319573  1.0000
  C   C36       1.0  0.5155506851907934  0.8682743720858827  0.3237666061744676  1.0000
  H   H21       1.0  0.5666085336522348  0.8232852536891216  0.31848008296469504  1.0000
  H   H22       1.0  0.5299399977534379  0.7930919659876502  0.3107973529868885  1.0000
  H   H23       1.0  0.47497088985501557  0.8591569063686131  0.3204970058178879  1.0000
  H   H24       1.0  0.5115283594376815  0.8893147199257769  0.32691523604700246  1.0000
  C   C37       1.0  0.7716349696226759  0.5738956849555775  0.310638240428507  1.0000
  C   C38       1.0  0.7622228015791174  0.5494679356645105  0.3226373723234719  1.0000
  C   C39       1.0  0.7766438380602574  0.5258257270319258  0.3145621706824661  1.0000
  C   C40       1.0  0.800262419339828  0.5265996609728044  0.29379370571809615  1.0000
  C   C41       1.0  0.8091263206509463  0.550948313679348  0.2806832113253219  1.0000
  C   C42       1.0  0.79497040428401  0.5745241085866997  0.28929773706755935  1.0000
  H   H25       1.0  0.7440551739453913  0.548899473939939  0.3389001869716496  1.0000
  H   H26       1.0  0.7696078547209634  0.5070942156782885  0.32453827805249935  1.0000
  H   H27       1.0  0.8273024289264803  0.5516334356329917  0.26442339178018126  1.0000
  H   H28       1.0  0.8020673968788548  0.5931890711365755  0.2791144426330443  1.0000
  C   C43       1.0  0.7445762883245217  0.7501338327650671  0.31667757473988306  1.0000
  C   C44       1.0  0.7251939175187306  0.7319465962068225  0.31044471216544994  1.0000
  C   C45       1.0  0.6994314881139294  0.7410709688325385  0.3021536513254704  1.0000
  C   C46       1.0  0.6931153454243424  0.7682941845892866  0.3000841257197032  1.0000
  C   C47       1.0  0.7128663275251131  0.7861854309037868  0.30459332064557515  1.0000
  C   C48       1.0  0.7384125347643444  0.777205224012939  0.31309083226035117  1.0000
  H   H29       1.0  0.7298854829945552  0.7109528387802445  0.3129415496094655  1.0000
  H   H30       1.0  0.6843127209915741  0.7270345865288057  0.29814008159557953  1.0000
  H   H31       1.0  0.7086221191400635  0.8069875868856045  0.30118567054531037  1.0000
  H   H32       1.0  0.7533822893310429  0.7913508672477422  0.3174686236090049  1.0000
  C   C49       1.0  0.17818288839736376  0.3953918782791676  0.1894692731120725  1.0000
  C   C50       1.0  0.17822832175622402  0.4167218021231087  0.21573611286016875  1.0000
  C   C51       1.0  0.18143137740452076  0.41230627341440446  0.25651833908154936  1.0000
  C   C52       1.0  0.18450750397503654  0.3864874785188304  0.271252837320876  1.0000
  C   C53       1.0  0.1846848114857244  0.3651803321558112  0.24497038753115105  1.0000
  C   C54       1.0  0.1819130485890454  0.369639772712055  0.20416984861345744  1.0000
  H   H33       1.0  0.1754607550906175  0.4367137790932011  0.20456705872232056  1.0000
  H   H34       1.0  0.18097317575905972  0.42885255403385114  0.27663320148175974  1.0000
  H   H35       1.0  0.1873600546975597  0.345181852211121  0.25617075664886807  1.0000
  H   H36       1.0  0.18303664668570774  0.35312121330104745  0.1841500870288765  1.0000
  C   C55       1.0  0.001890749986872553  0.31724309565813147  0.041664083414622244  1.0000
  C   C56       1.0  0.025535530011335128  0.32281918438432716  0.022893210453527546  1.0000
  C   C57       1.0  0.04865042990697948  0.3248947570310279  0.04489084855849823  1.0000
  C   C58       1.0  0.048302693825752654  0.3211884102413602  0.08587055010714528  1.0000
  C   C59       1.0  0.024760226541439723  0.31518766118135416  0.10457246638673265  1.0000
  C   C60       1.0  0.0017044516396811371  0.31299586808296115  0.08254421356282249  1.0000
  H   H37       1.0  0.02593374554930561  0.32578193278291756  0.9911952070640092  1.0000
  H   H38       1.0  0.06668690750059136  0.32941999063390837  0.03011155830409229  1.0000
  H   H39       1.0  0.024390204846156394  0.311947171925888  0.13619014021057005  1.0000
  H   H40       1.0  0.9837656926682572  0.3079533833044242  0.09714712500621915  1.0000
  C   C61       1.0  0.8977511868090702  0.392228950679004  0.18418263786758057  1.0000
  C   C62       1.0  0.8891607515573663  0.4134843072997484  0.2078829661490423  1.0000
  C   C63       1.0  0.8816056659674703  0.40919904279443303  0.24721422490742803  1.0000
  C   C64       1.0  0.8833638255559527  0.3837289875830783  0.2634030083360138  1.0000
  C   C65       1.0  0.8926202655786423  0.3625165150351957  0.24000540660188233  1.0000
  C   C66       1.0  0.8994441320248775  0.3666886109309285  0.20023371627309206  1.0000
  H   H41       1.0  0.8878840887793449  0.43329666245044357  0.19564727890503603  1.0000
  H   H42       1.0  0.874677787967738  0.42570708668787144  0.26515334310474675  1.0000
  H   H43       1.0  0.8940676402454348  0.3427902838757863  0.2524878734281061  1.0000
  H   H44       1.0  0.9062841815698021  0.35022477477181335  0.18219731312545662  1.0000
  C   C67       1.0  0.4174396120311334  0.25767387550117654  0.5551966100257795  1.0000
  C   C68       1.0  0.42469375911411744  0.2536428678197673  0.5155637220568541  1.0000
  C   C69       1.0  0.4092659246530155  0.2645980169662049  0.4847990828120018  1.0000
  C   C70       1.0  0.38644519292091034  0.27958587335577956  0.49356894844372196  1.0000
  C   C71       1.0  0.37935228592888004  0.28384510922269823  0.5331741333630525  1.0000
  C   C72       1.0  0.39481926868089545  0.2729581472040263  0.5639183974878138  1.0000
  H   H45       1.0  0.442070361540839  0.24171530319224654  0.5086241471512882  1.0000
  H   H46       1.0  0.4148287328167245  0.2611749369644775  0.4543341995340871  1.0000
  H   H47       1.0  0.361751575282655  0.29542620244155177  0.5401242316601268  1.0000
  H   H48       1.0  0.3891297964655919  0.276254188903589  0.5943176408880426  1.0000
  C   C73       1.0  0.22271394940489742  0.4064195562758729  0.5964066473040462  1.0000
  C   C74       1.0  0.24970982154590346  0.40939886757747984  0.5960004646647176  1.0000
  C   C75       1.0  0.2638537558687828  0.4066380934260157  0.5605713820184403  1.0000
  C   C76       1.0  0.2509821286662059  0.4016725697943355  0.5250824825225165  1.0000
  C   C77       1.0  0.22391982214571168  0.39926145436108285  0.5251927637648798  1.0000
  C   C78       1.0  0.2098631133335426  0.4014040949746032  0.5608541421841651  1.0000
  H   H49       1.0  0.2597005225192495  0.4141512027045071  0.6228093532148278  1.0000
  H   H50       1.0  0.28476231718023914  0.4088471471714798  0.5605640186925108  1.0000
  H   H51       1.0  0.21387766490455748  0.39518974959469805  0.49794785426166177  1.0000
  H   H52       1.0  0.18895550709371983  0.39915686378990667  0.5609058798232751  1.0000
  C   C79       1.0  0.18380332312349723  0.40860377900323075  0.872842286127474  1.0000
  C   C80       1.0  0.17441922145552138  0.4143065634682012  0.9110619003091651  1.0000
  C   C81       1.0  0.167439944875678  0.3937958261987534  0.936828004566712  1.0000
  C   C82       1.0  0.16921156252541322  0.36755440763615727  0.924019289042306  1.0000
  C   C83       1.0  0.17869344490766798  0.3618991090413472  0.8858964104905732  1.0000
  C   C84       1.0  0.18629182400364147  0.38229148630563264  0.8605951013624062  1.0000
  H   H53       1.0  0.1723926487445083  0.4346271726625762  0.9206895548516593  1.0000
  H   H54       1.0  0.15999433711086272  0.39833994103398573  0.9660690958173725  1.0000
  H   H55       1.0  0.1798742480610557  0.34169503694171416  0.8756246379512826  1.0000
  H   H56       1.0  0.19332792120866135  0.3777053930129623  0.8311721014381711  1.0000
  C   C85       1.0  0.31525896046137414  0.34560211105166616  0.7589838841501559  1.0000
  C   C86       1.0  0.3267374670935312  0.3201941125041211  0.7551713232980939  1.0000
  C   C87       1.0  0.35336298329703286  0.31676548517275405  0.7465860740939227  1.0000
  C   C88       1.0  0.36871698213421605  0.3387420644256371  0.741926271976709  1.0000
  C   C89       1.0  0.3572598376121005  0.36423657487432537  0.7457556344336504  1.0000
  C   C90       1.0  0.3304521828209465  0.367697447306126  0.7540610319362588  1.0000
  H   H57       1.0  0.3149532293446127  0.3030724084050625  0.7584039116270466  1.0000
  H   H58       1.0  0.3620469193207466  0.297057293246005  0.7440140682748857  1.0000
  H   H59       1.0  0.3691124039221132  0.3812948866773282  0.7421980330851462  1.0000
  H   H60       1.0  0.32163747558111333  0.3874051549528095  0.7569175979773579  1.0000
  C   C91       1.0  0.3645805664839041  0.8529797473448271  0.5634992823235662  1.0000
  C   C92       1.0  0.3546833341578092  0.8517060913175248  0.5250214315698672  1.0000
  C   C93       1.0  0.37073996261420616  0.8566928063282909  0.49230045054624605  1.0000
  C   C94       1.0  0.3966578581857837  0.863474168410295  0.49787509621500203  1.0000
  C   C95       1.0  0.40643794063811434  0.8651200968439862  0.5363968241698496  1.0000
  C   C96       1.0  0.39054288465942466  0.8595989171756034  0.5690976413507984  1.0000
  H   H61       1.0  0.3346041026493334  0.8467175713995068  0.5204510013143504  1.0000
  H   H62       1.0  0.3628402242565581  0.8558734105885839  0.46281803109488256  1.0000
  H   H63       1.0  0.4263876538105457  0.8705087587909454  0.5410384358765917  1.0000
  H   H64       1.0  0.39828793665464884  0.8609340190705334  0.5986929657986303  1.0000
  C   C97       1.0  0.2406541740607936  0.6939115480123468  0.5578784449011271  1.0000
  C   C98       1.0  0.21577241297559854  0.6842433395929771  0.5636029335987256  1.0000
  C   C99       1.0  0.19831693205389336  0.683334876198331  0.5317745170610556  1.0000
  C   C100      1.0  0.20578475051486395  0.6918338156273717  0.4940871512199389  1.0000
  C   C101      1.0  0.23042511224367848  0.7021594930385721  0.48864635950489893  1.0000
  C   C102      1.0  0.24779410565097484  0.7032550835237409  0.5205059536496769  1.0000
  H   H65       1.0  0.2100793407134146  0.676999751284881  0.5922842805773781  1.0000
  H   H66       1.0  0.17924524832805272  0.6753743076275169  0.5361386165332519  1.0000
  H   H67       1.0  0.2360607553000327  0.7093976125442123  0.45989884374063694  1.0000
  H   H68       1.0  0.26697755563720943  0.7108703501808814  0.5159099265832778  1.0000
  C   C103      1.0  0.23917063990297135  0.5610797639664838  0.706409912978272  1.0000
  C   C104      1.0  0.23011896438522358  0.5363257256297707  0.696055873278911  1.0000
  C   C105      1.0  0.24477799987532295  0.5131197076002797  0.705266258561543  1.0000
  C   C106      1.0  0.2683548025184855  0.514414203377292  0.7256535265414871  1.0000
  C   C107      1.0  0.2777554936824166  0.5392230343742043  0.7352524900719849  1.0000
  C   C108      1.0  0.263220153296319  0.562569549301803  0.7255556248644477  1.0000
  H   H69       1.0  0.2116471121852649  0.5351163170136881  0.6809217331650217  1.0000
  H   H70       1.0  0.23790269226985725  0.49426242935775977  0.6962492797705573  1.0000
  H   H71       1.0  0.29609670158412094  0.5403761406905765  0.7507788907023663  1.0000
  H   H72       1.0  0.27036176817728796  0.5816315963880362  0.733552066951646  1.0000
  C   C109      1.0  0.3673735281837759  0.7204257389242359  0.6921864857230581  1.0000
  C   C110      1.0  0.35364284711370697  0.6997181022268016  0.6761069662030196  1.0000
  C   C111      1.0  0.33644245121303135  0.6856535404425882  0.6998061027584493  1.0000
  C   C112      1.0  0.33372832175408756  0.6915655980062954  0.7400086444838683  1.0000
  C   C113      1.0  0.34759272118124085  0.7121664271030002  0.7561608073880136  1.0000
  C   C114      1.0  0.36402821013667697  0.7269132417201658  0.7320970782999228  1.0000
  H   H73       1.0  0.35609802972442967  0.6946900754732324  0.6452469225555069  1.0000
  H   H74       1.0  0.3257912076821373  0.6697601378178408  0.6871868118874127  1.0000
  H   H75       1.0  0.3454440659445803  0.7169137430513136  0.7871573905558394  1.0000
  H   H76       1.0  0.37452091407324184  0.7429568475934536  0.7446358011938253  1.0000
  C   C115      1.0  0.8351639864230715  0.4150506619302788  0.5631683646129187  1.0000
  C   C116      1.0  0.8465070198120557  0.41251769818126954  0.5254684515649918  1.0000
  C   C117      1.0  0.8316969114347801  0.4184553790589147  0.49131361406465307  1.0000
  C   C118      1.0  0.8055049797208305  0.4270490221954808  0.49483935809426016  1.0000
  C   C119      1.0  0.7941607153900239  0.429376359575908  0.5324990461683083  1.0000
  C   C120      1.0  0.8088876990900032  0.42330896782147964  0.5665216413718782  1.0000
  H   H77       1.0  0.8668104615872283  0.4060895422384108  0.522634946969319  1.0000
  H   H78       1.0  0.8405899267414283  0.4165873480884339  0.46236084786754067  1.0000
  H   H79       1.0  0.7739195953866116  0.4359975952326939  0.5354061600517488  1.0000
  H   H80       1.0  0.7998946844712967  0.4251078550797623  0.5953196563189537  1.0000
  C   C121      1.0  0.8585095643951296  0.36536203346116125  0.8318290284943934  1.0000
  C   C122      1.0  0.8448229261698685  0.38706667979931275  0.8482924406017478  1.0000
  C   C123      1.0  0.8452415929056174  0.39122389483645065  0.8891726098460715  1.0000
  C   C124      1.0  0.8597474860837875  0.37400652064868617  0.9139568916771849  1.0000
  C   C125      1.0  0.8739895031387427  0.35250522020513353  0.8976145742770925  1.0000
  C   C126      1.0  0.8731943200672936  0.3480872489109093  0.8565621275275415  1.0000
  H   H81       1.0  0.8338425634021471  0.4007313092786543  0.82964117762251  1.0000
  H   H82       1.0  0.8343177929030252  0.4079674905113501  0.9016154013485617  1.0000
  H   H83       1.0  0.8854103133107464  0.33921861246683827  0.9165467703041225  1.0000
  H   H84       1.0  0.8839929388386861  0.3313325942423961  0.8439847045669905  1.0000
  C   C127      1.0  0.6585594023498758  0.24699729226182032  0.5849122444620579  1.0000
  C   C128      1.0  0.6669540953960428  0.24985975451056935  0.5457236837553229  1.0000
  C   C129      1.0  0.6489730553333221  0.24961614059526974  0.5145092358537567  1.0000
  C   C130      1.0  0.6225514928592355  0.24598172210981425  0.5222538952413573  1.0000
  C   C131      1.0  0.6140922185359343  0.24323853513603844  0.5614788487678083  1.0000
  C   C132      1.0  0.6320229377516234  0.24400438490916357  0.5928015856509838  1.0000
  H   H85       1.0  0.6874248464364204  0.2521641099318842  0.5393998001236203  1.0000
  H   H86       1.0  0.6556549820319095  0.25184197951052995  0.4844182760816276  1.0000
  H   H87       1.0  0.5937021137532008  0.24041520704650576  0.5676160519199599  1.0000
  H   H88       1.0  0.6253952940871677  0.24179621326548648  0.622916705598794  1.0000
  C   C133      1.0  0.5575094153995721  0.2784170223199913  0.7424912489467054  1.0000
  C   C134      1.0  0.5607875330510066  0.251218075504013  0.7490589056236805  1.0000
  C   C135      1.0  0.5390636051637591  0.23604804452908892  0.7566621011168696  1.0000
  C   C136      1.0  0.513987727761658  0.24804179203588653  0.7574795484446462  1.0000
  C   C137      1.0  0.5106040277521188  0.27517189918619867  0.7502006250779423  1.0000
  C   C138      1.0  0.5323812667050842  0.2903643349621034  0.7428000202078673  1.0000
  H   H89       1.0  0.5800602702010761  0.24188189020280743  0.7480123412936757  1.0000
  H   H90       1.0  0.541601398083623  0.21493065478520823  0.7610588621144478  1.0000
  H   H91       1.0  0.49127640368090236  0.2845760151781609  0.7510311885119533  1.0000
  H   H92       1.0  0.5297751301846381  0.3114323482607428  0.7376343381203568  1.0000
  C   C139      1.0  0.7313718761358614  0.3762630055226339  0.7322074498244578  1.0000
  C   C140      1.0  0.7504503259168479  0.3620348109650654  0.7539698880333265  1.0000
  C   C141      1.0  0.7442334098688702  0.33861570021645154  0.7735140970448429  1.0000
  C   C142      1.0  0.7190386153469215  0.3291542441129923  0.7708904124876521  1.0000
  C   C143      1.0  0.6998799037782816  0.3435164344926579  0.7494644854142791  1.0000
  C   C144      1.0  0.7060142071439984  0.3671150357879881  0.7302666012752619  1.0000
  H   H93       1.0  0.770106374357032  0.3688803677205217  0.7554910592789084  1.0000
  H   H94       1.0  0.7591445185146755  0.32754040690090835  0.7899289754522462  1.0000
  H   H95       1.0  0.6802538606950409  0.33659386812251274  0.7479988776344355  1.0000
  H   H96       1.0  0.6911825752335206  0.37808726071115684  0.7135399398836613  1.0000
  C   C145      1.0  0.6256658648379368  0.8771496640587789  0.5561353533232055  1.0000
  C   C146      1.0  0.646594055133612  0.8587194286346801  0.5599796452661205  1.0000
  C   C147      1.0  0.6604133929269642  0.8498963692805739  0.5264270538280367  1.0000
  C   C148      1.0  0.6530718503441943  0.8590169774367464  0.48875407242189145  1.0000
  C   C149      1.0  0.6318858687692918  0.8771675615173387  0.48470551270857054  1.0000
  C   C150      1.0  0.618350520449293  0.8864383230025162  0.5184735729071921  1.0000
  H   H97       1.0  0.6523155057220442  0.8513470952916264  0.5888301740550455  1.0000
  H   H98       1.0  0.6767955411758816  0.8359084443187039  0.5297319570306203  1.0000
  H   H99       1.0  0.6262062338231822  0.8843389057238277  0.45566803842942966  1.0000
  H   H100      1.0  0.602175884469002  0.9007050163146305  0.5153791211701573  1.0000
  C   C151      1.0  0.5371158006088038  0.8138829704274496  0.7218487534088146  1.0000
  C   C152      1.0  0.5149710330040681  0.7986573023060467  0.7258331010795464  1.0000
  C   C153      1.0  0.4899069860079611  0.8099706440489816  0.7182680210416286  1.0000
  C   C154      1.0  0.4870103202233838  0.8366860929962235  0.7075671731926126  1.0000
  C   C155      1.0  0.5091233621065945  0.851723752899625  0.7033985448728881  1.0000
  C   C156      1.0  0.5340622419249678  0.8402960393472612  0.710069025376394  1.0000
  H   H101      1.0  0.5171936352910346  0.778148480009427  0.7347786976178643  1.0000
  H   H102      1.0  0.47288126431524463  0.7982166313166117  0.7214648764731872  1.0000
  H   H103      1.0  0.5069793557737564  0.8723865692783563  0.6951513267919981  1.0000
  H   H104      1.0  0.5508364178226183  0.8521616673817707  0.7066505269613725  1.0000
  C   C157      1.0  0.80617571533944  0.689654412169976  0.5562714647420932  1.0000
  C   C158      1.0  0.8014901336127838  0.7008942263567585  0.518796061686664  1.0000
  C   C159      1.0  0.8102211522249047  0.6876551854240213  0.484417568481679  1.0000
  C   C160      1.0  0.824201932610311  0.6633911595686084  0.4874911843896977  1.0000
  C   C161      1.0  0.8288577723105717  0.6521911370814234  0.524930506166774  1.0000
  C   C162      1.0  0.819617658276791  0.6651186425122839  0.5591781755449275  1.0000
  H   H105      1.0  0.7911247077159616  0.7198649761922707  0.5163323266703462  1.0000
  H   H106      1.0  0.8066376556728406  0.6964455744027407  0.4556345269180805  1.0000
  H   H107      1.0  0.8396864667245332  0.6334663402892088  0.52749071033874  1.0000
  H   H108      1.0  0.8233382833819333  0.6562869053062756  0.5878200032928702  1.0000
  C   C163      1.0  0.7952765624328039  0.5606391435660049  0.696792697323311  1.0000
  C   C164      1.0  0.8025582876664791  0.5372697011720803  0.6769521786951949  1.0000
  C   C165      1.0  0.8121541135334708  0.5151004250697053  0.6980785988560962  1.0000
  C   C166      1.0  0.8142980323254  0.5161921914772325  0.7391557543816305  1.0000
  C   C167      1.0  0.8067325697284015  0.5394618955738211  0.7591408950876352  1.0000
  C   C168      1.0  0.7969587145529562  0.5616268761533916  0.737974747759478  1.0000
  H   H109      1.0  0.8011557453175218  0.5364591818265781  0.6450568635092376  1.0000
  H   H110      1.0  0.818394434505944  0.49737597124340055  0.6824437429826687  1.0000
  H   H111      1.0  0.8080546555985064  0.5401828186363781  0.791040346596907  1.0000
  H   H112      1.0  0.7904569896427037  0.5793632113716901  0.7534700369202286  1.0000
  C   C169      1.0  0.7149052255123838  0.7223706295204686  0.7340194034684494  1.0000
  C   C170      1.0  0.7150379131212987  0.7201139754953548  0.6929084817206582  1.0000
  C   C171      1.0  0.7052321696293189  0.7409769396475194  0.6693854031233741  1.0000
  C   C172      1.0  0.6958067652753483  0.7644492461382518  0.6867952095974488  1.0000
  C   C173      1.0  0.6952018624848875  0.7667079834007864  0.7279800945437546  1.0000
  C   C174      1.0  0.704553245551787  0.745511764480771  0.7516641706302698  1.0000
  H   H113      1.0  0.7224770753900575  0.7021594919310513  0.6791376310968587  1.0000
  H   H114      1.0  0.7052810165999606  0.7389799100037155  0.6375519826912615  1.0000
  H   H115      1.0  0.6883520318283142  0.7850140791703333  0.7415471418101978  1.0000
  H   H116      1.0  0.7045727129449588  0.7473310109981881  0.7835263512259382  1.0000
  C   C175      1.0  0.8031280933949945  0.2308186459897732  0.019261158800866207  1.0000
  C   C176      1.0  0.826855061208834  0.24023096565306754  0.005320429864031251  1.0000
  C   C177      1.0  0.8415840761669688  0.25689430969749066  0.028991243052302718  1.0000
  C   C178      1.0  0.8326269091396056  0.26420219850228605  0.06666453760295443  1.0000
  C   C179      1.0  0.8089806925562625  0.25468569904218163  0.08051755553360351  1.0000
  C   C180      1.0  0.7942214229954306  0.23819699449298704  0.05687439490491886  1.0000
  H   H117      1.0  0.8339630378029853  0.23449440355006634  0.9763415286276423  1.0000
  H   H118      1.0  0.8600621957209941  0.26373764059008076  0.018398531525357198  1.0000
  H   H119      1.0  0.8019182543661806  0.26019558861391606  0.10963524805161917  1.0000
  H   H120      1.0  0.7758263261230572  0.23137745250996508  0.06783102637374205  1.0000
  C   C181      1.0  0.6590932958274274  0.18877067212652812  0.9337577436339465  1.0000
  C   C182      1.0  0.6636303375224634  0.16521604495435926  0.9129848585707467  1.0000
  C   C183      1.0  0.6628819961988557  0.16532170262898369  0.8715129304200082  1.0000
  C   C184      1.0  0.6580487910477354  0.18901111281841806  0.8507264373771978  1.0000
  C   C185      1.0  0.6546648240779089  0.21269546995469318  0.8716082004897115  1.0000
  C   C186      1.0  0.6546620450924623  0.21250490205135433  0.9130412167084279  1.0000
  H   H121      1.0  0.6666747001687541  0.14676188521641356  0.9289535225199574  1.0000
  H   H122      1.0  0.6654790094073733  0.14690687614167217  0.8555609880715374  1.0000
  H   H123      1.0  0.6511556185019058  0.23108060121720692  0.8560592186824713  1.0000
  H   H124      1.0  0.6508888858926715  0.230701665102208  0.9291444671655709  1.0000
  C   C187      1.0  0.6896402166452171  0.22217816283990283  0.1848853281489279  1.0000
  C   C188      1.0  0.6871473471193669  0.19636747440522878  0.1989399371958503  1.0000
  C   C189      1.0  0.6725745163551061  0.19185085624623352  0.23346938036112957  1.0000
  C   C190      1.0  0.6601850223666222  0.21304830302457506  0.2537047374747224  1.0000
  C   C191      1.0  0.6613394059729358  0.23857559101064107  0.23806947595041678  1.0000
  C   C192      1.0  0.6764691309325626  0.2431957401564124  0.2042904880721284  1.0000
  H   H125      1.0  0.6972848007596052  0.18003924602804747  0.18414388451201796  1.0000
  H   H126      1.0  0.6715483207921237  0.17198777752475236  0.24516992753205955  1.0000
  H   H127      1.0  0.6511475762474241  0.25491474439264933  0.2525386080862817  1.0000
  H   H128      1.0  0.6781024230891337  0.26316446983582625  0.19326719367074416  1.0000
  C   C193      1.0  0.7383127444602868  0.03029048126021272  0.006658389320639557  1.0000
  C   C194      1.0  0.7294334200213889  0.05515151363920223  0.9923378341200544  1.0000
  C   C195      1.0  0.7307633706515073  0.07785503644625545  0.015935125484336732  1.0000
  C   C196      1.0  0.741207075684885  0.0758548653985214  0.053977050911575564  1.0000
  C   C197      1.0  0.7504629289919275  0.05106801106972575  0.06812479592316345  1.0000
  C   C198      1.0  0.7489266832093582  0.02831333393844937  0.04462285229350127  1.0000
  H   H129      1.0  0.7212903387067378  0.05680695833620231  0.9629026246706472  1.0000
  H   H130      1.0  0.7235631962653956  0.09682468243296251  0.004725602425399433  1.0000
  H   H131      1.0  0.7587071112792424  0.049409251803216536  0.0974891171751302  1.0000
  H   H132      1.0  0.756101546420036  0.009298121304472495  0.05574239189275754  1.0000
  C   C199      1.0  0.6769296951831462  0.9168762807236845  0.1389089713700876  1.0000
  C   C200      1.0  0.7016620221994433  0.9195926078451516  0.15530260185478922  1.0000
  C   C201      1.0  0.7052569955367503  0.9166292120220838  0.19624249856629278  1.0000
  C   C202      1.0  0.684319708734946  0.910306247487769  0.22083263768785988  1.0000
  C   C203      1.0  0.6595501719333969  0.9077393305071063  0.20447647482718112  1.0000
  C   C204      1.0  0.6558182758673017  0.9113119108386468  0.16362317850051888  1.0000
  H   H133      1.0  0.718070723225401  0.9238201534395886  0.13649413875081273  1.0000
  H   H134      1.0  0.724449925019328  0.9187071174519013  0.20881843008482817  1.0000
  H   H135      1.0  0.6432463993947833  0.9031744417839498  0.22333239218070025  1.0000
  H   H136      1.0  0.6366156163484104  0.9092850928473778  0.1510732118506091  1.0000
  C   C205      1.0  0.7059002330946677  0.8807554821579864  0.8807233947941119  1.0000
  C   C206      1.0  0.7011222758977311  0.8609010424957068  0.8531454359533149  1.0000
  C   C207      1.0  0.6847444391890523  0.8662253708188099  0.8205336749301557  1.0000
  C   C208      1.0  0.6732514526372935  0.8915336368465697  0.8151849445352639  1.0000
  C   C209      1.0  0.6781423697860204  0.9114041439133589  0.8426436183075925  1.0000
  C   C210      1.0  0.6943295061235673  0.9060191133497284  0.8754359632076305  1.0000
  H   H137      1.0  0.7100217063175673  0.8413282677971269  0.8570844071360955  1.0000
  H   H138      1.0  0.6811386341841101  0.8508236530003008  0.7994669984213971  1.0000
  H   H139      1.0  0.6693319432548136  0.9310204083321947  0.8386443979886749  1.0000
  H   H140      1.0  0.698002186094284  0.9214642649283248  0.8964236867320592  1.0000
  C   C211      1.0  0.1879447327672388  0.722751509501768  0.15794153354834914  1.0000
  C   C212      1.0  0.17132332278100015  0.7020266388686314  0.15097591689631815  1.0000
  C   C213      1.0  0.16635501102762512  0.683744270326341  0.18130583131541822  1.0000
  C   C214      1.0  0.1784182378390408  0.6858840268732393  0.21827221134105515  1.0000
  C   C215      1.0  0.19539679622232103  0.7062737198130948  0.22478651334923358  1.0000
  C   C216      1.0  0.20000588083500206  0.7246812491500272  0.19482654545825237  1.0000
  H   H141      1.0  0.16238778638550774  0.7000313103430535  0.12228342064506537  1.0000
  H   H142      1.0  0.15338604498158506  0.6678300443953074  0.17600883656211663  1.0000
  H   H143      1.0  0.20490155731027368  0.7080251461637255  0.25307054789799177  1.0000
  H   H144      1.0  0.21282675346751978  0.7405808260378477  0.20047960162105358  1.0000
  C   C217      1.0  0.1732983681835401  0.7032625600843206  0.8916175337199874  1.0000
  C   C218      1.0  0.18142093352615987  0.6817742154294681  0.867906886262205  1.0000
  C   C219      1.0  0.18772741661952105  0.6855927675989977  0.8278927719559789  1.0000
  C   C220      1.0  0.18577719881332314  0.7109253281681813  0.811252632113903  1.0000
  C   C221      1.0  0.1774618048791285  0.7324096820722894  0.8348581352460003  1.0000
  C   C222      1.0  0.17138167152356318  0.7286371733571306  0.8750263128020402  1.0000
  H   H145      1.0  0.18276679283329839  0.6620935475030836  0.8805563323971066  1.0000
  H   H146      1.0  0.193665518891072  0.6688670919975995  0.809780335924805  1.0000
  H   H147      1.0  0.17584127497868288  0.7520516207836949  0.8221076415459833  1.0000
  H   H148      1.0  0.16510332226156782  0.7453105936745802  0.8930778486743745  1.0000
  C   C223      1.0  0.8607025504362614  0.8453658078106173  0.9977349501874944  1.0000
  C   C224      1.0  0.8545024253636738  0.8375947365165677  0.036237754655971344  1.0000
  C   C225      1.0  0.8361915862706818  0.8526527821299847  0.05851374175130175  1.0000
  C   C226      1.0  0.8233938506496021  0.8751067687316119  0.04206923375004301  1.0000
  C   C227      1.0  0.8293339363631702  0.8827065636654048  0.0033494643121889656  1.0000
  C   C228      1.0  0.8482008793411481  0.8680416788073255  0.9814075036844465  1.0000
  H   H149      1.0  0.8640170450873719  0.8201308715149037  0.04910758230617929  1.0000
  H   H150      1.0  0.8317394240751596  0.8467350471648871  0.08847886985953002  1.0000
  H   H151      1.0  0.8197524390089486  0.9001661931906166  0.9906110683264977  1.0000
  H   H152      1.0  0.8528887916479135  0.8741305075219042  0.9516175406413138  1.0000
  C   C229      1.0  0.00018758675281538295  0.7392737844929711  0.015525306045443887  1.0000
  C   C230      1.0  2.1217364333692146e-05  0.7596522627149915  0.04331779915894174  1.0000
  C   C231      1.0  0.023607425133679083  0.7708289233169706  0.05437049854336129  1.0000
  C   C232      1.0  0.0475201780973187  0.7617037217090868  0.03790174204890917  1.0000
  C   C233      1.0  0.04769654664303835  0.7412359567968947  0.01033423323056648  1.0000
  C   C234      1.0  0.024119267781800735  0.7300544752632996  0.9992866349515954  1.0000
  H   H153      1.0  0.9817814300193333  0.7667238250682529  0.056404280452922784  1.0000
  H   H154      1.0  0.02333835114862803  0.7866053531230509  0.07583713691608596  1.0000
  H   H155      1.0  0.0659837093937798  0.7340111601972933  0.9974994385307543  1.0000
  H   H156      1.0  0.0244356809548254  0.7142659136379453  0.9778111308798539  1.0000
  C   C235      1.0  0.8491974409007346  0.6957121767372273  0.901488659251859  1.0000
  C   C236      1.0  0.8727817751433185  0.6991777789554074  0.8816010832289689  1.0000
  C   C237      1.0  0.8750985289609587  0.6928565702757391  0.841230526779513  1.0000
  C   C238      1.0  0.8537328303876186  0.6835666744294047  0.8203368065546679  1.0000
  C   C239      1.0  0.8300337536668192  0.6805289732618003  0.8400901746922748  1.0000
  C   C240      1.0  0.8278790645466154  0.6863141830125232  0.8806208473144811  1.0000
  H   H157      1.0  0.8893857309055918  0.7062178116714237  0.8974614026760905  1.0000
  H   H158      1.0  0.8934973167477115  0.6952124217545286  0.8261452891035808  1.0000
  H   H159      1.0  0.8134303729510031  0.6734370763474248  0.8243036386841802  1.0000
  H   H160      1.0  0.8095787252818357  0.6835804222610196  0.8957880165829853  1.0000
  C   C241      1.0  0.8603604023096236  0.7234420588799404  0.1545696047525736  1.0000
  C   C242      1.0  0.882820871906923  0.7071862604694619  0.15961575572300093  1.0000
  C   C243      1.0  0.883240614474457  0.6871394980781012  0.18856126460502617  1.0000
  C   C244      1.0  0.8612263943942712  0.6832962636916706  0.21233116874005312  1.0000
  C   C245      1.0  0.8383820435406802  0.6986943054970108  0.2057402427279801  1.0000
  C   C246      1.0  0.837947111574289  0.71863750043584  0.17679638666045527  1.0000
  H   H161      1.0  0.9001801617459796  0.7107438546060235  0.1424315994722409  1.0000
  H   H162      1.0  0.9009262426802768  0.6751395584871964  0.19344481886355044  1.0000
  H   H163      1.0  0.8212104114046885  0.6955604361441441  0.2234398606240548  1.0000
  H   H164      1.0  0.8203126371584859  0.7307208167514808  0.17209740916236158  1.0000
  C   C247      1.0  0.23719479548838476  0.2148262217947929  0.029948044974567267  1.0000
  C   C248      1.0  0.2537344170638558  0.23264491576941115  0.04743495870365089  1.0000
  C   C249      1.0  0.2432660904754033  0.25323622091626025  0.07093671707835125  1.0000
  C   C250      1.0  0.21630948767053346  0.2557552637971589  0.07771352448688443  1.0000
  C   C251      1.0  0.19974270538174665  0.2380250370883794  0.060101682213101054  1.0000
  C   C252      1.0  0.21016902340035742  0.217766496317991  0.035823759067630974  1.0000
  H   H165      1.0  0.27460320486690887  0.230621334701482  0.04277337891178257  1.0000
  H   H166      1.0  0.25609851733325845  0.26712228763276064  0.08411767173147622  1.0000
  H   H167      1.0  0.1789385220534723  0.2396648959495438  0.06572630271682853  1.0000
  H   H168      1.0  0.19734079477662203  0.2039414856338881  0.022398280779622803  1.0000
  C   C253      1.0  0.3502049037671834  0.23071532667455896  0.1476929118856846  1.0000
  C   C254      1.0  0.3464441741923614  0.20668716556317596  0.1670124027215546  1.0000
  C   C255      1.0  0.34631505603525836  0.2055922225175736  0.20853832176675308  1.0000
  C   C256      1.0  0.3498536524704117  0.22848318278810573  0.2307686086859896  1.0000
  C   C257      1.0  0.35376754682355016  0.25243094201443267  0.21139768811368892  1.0000
  C   C258      1.0  0.354023541136031  0.2535054901506259  0.1699497470064339  1.0000
  H   H169      1.0  0.3437407056631797  0.18898805002878893  0.14995114376085777  1.0000
  H   H170      1.0  0.34352916074686973  0.18696889647576825  0.22350110142829338  1.0000
  H   H171      1.0  0.35632559861428004  0.27021196163171274  0.22832778126041361  1.0000
  H   H172      1.0  0.3569241493035828  0.27214160523485503  0.1550662413578408  1.0000
  C   C259      1.0  0.3704647783139264  0.1846080988993642  0.8827268186985714  1.0000
  C   C260      1.0  0.3916515077925199  0.18882732978063066  0.857476072026062  1.0000
  C   C261      1.0  0.3876320921948696  0.19991155012479433  0.8197421555958495  1.0000
  C   C262      1.0  0.36230902416151356  0.20631533189384416  0.8066802756490505  1.0000
  C   C263      1.0  0.34105457661811406  0.20196136644780024  0.8318317147794084  1.0000
  C   C264      1.0  0.3451236094390255  0.19144764686165341  0.870023888534544  1.0000
  H   H173      1.0  0.4112926368688351  0.1834922759155276  0.8671002628592757  1.0000
  H   H174      1.0  0.4041203720611754  0.20306562677878973  0.8004800088651427  1.0000
  H   H175      1.0  0.32141050426428186  0.20673445043961547  0.8217095371730339  1.0000
  H   H176      1.0  0.3286659846800106  0.18805555150887096  0.8892142387691038  1.0000
  C   C265      1.0  0.2598084874063326  0.8499153994651508  0.03440568330296623  1.0000
  C   C266      1.0  0.2493611415560559  0.8251648024510487  0.04110913468693567  1.0000
  C   C267      1.0  0.22524292727107578  0.8190944523455534  0.024815189611671284  1.0000
  C   C268      1.0  0.2114875316494288  0.837633600213754  0.001302064699986838  1.0000
  C   C269      1.0  0.22148951404273753  0.8627896819946191  0.9956393342159429  1.0000
  C   C270      1.0  0.24560058975646892  0.8689929546331099  0.012339840052267848  1.0000
  H   H177      1.0  0.2601605955786465  0.8104115402559932  0.05842712494293645  1.0000
  H   H178      1.0  0.2175627662803541  0.7998586646021858  0.029937589233392847  1.0000
  H   H179      1.0  0.21066441317371484  0.8773518997037499  0.9780074290257147  1.0000
  H   H180      1.0  0.253335613860898  0.8883356419224434  0.007796812918267282  1.0000
  C   C271      1.0  0.30992767834544216  0.021369423133140275  0.035707258054830326  1.0000
  C   C272      1.0  0.2953631824395485  0.045265576720252554  0.0307364539435806  1.0000
  C   C273      1.0  0.3058304000595232  0.06947820627564545  0.041412548280131745  1.0000
  C   C274      1.0  0.3307189909263611  0.06983622935545057  0.058101323726535065  1.0000
  C   C275      1.0  0.34558571119229187  0.046037145232992654  0.06203865651136364  1.0000
  C   C276      1.0  0.33539315760431104  0.02193042588264693  0.05025778647814251  1.0000
  H   H181      1.0  0.2756728392101473  0.04499050874084798  0.01931715838453263  1.0000
  H   H182      1.0  0.2942009858478522  0.08770253194775106  0.03825688261430171  1.0000
  H   H183      1.0  0.3650024699988309  0.046267938141234206  0.07443799771304557  1.0000
  H   H184      1.0  0.3469352431387252  0.0037090460595670116  0.05333285030076768  1.0000
  C   C277      1.0  0.3681469469905486  0.8871100231448482  0.8919500479502817  1.0000
  C   C278      1.0  0.37061086938870036  0.8911347810785112  0.8510891103383162  1.0000
  C   C279      1.0  0.3656559068813538  0.8707157392017154  0.8244925744253992  1.0000
  C   C280      1.0  0.35830781788594035  0.8461517359480004  0.8387467022112811  1.0000
  C   C281      1.0  0.3560396859077153  0.8420627329932918  0.8796239050230233  1.0000
  C   C282      1.0  0.3610115636621804  0.8624740389135862  0.9061982047326139  1.0000
  H   H185      1.0  0.3761161595738357  0.9102092176413902  0.8399803096234165  1.0000
  H   H186      1.0  0.3671441359847377  0.8741225211600749  0.792996023362538  1.0000
  H   H187      1.0  0.35064277313102465  0.8229691999155422  0.8907625585326818  1.0000
  H   H188      1.0  0.359646486194333  0.8590872183748455  0.9377405182198348  1.0000
  C   C283      1.0  0.37751165351019333  0.9002850442484095  0.16647883980226943  1.0000
  C   C284      1.0  0.3550105364176396  0.8856507643467805  0.1655185919968202  1.0000
  C   C285      1.0  0.34771402423353426  0.8710250392011228  0.19883114379465586  1.0000
  C   C286      1.0  0.36300211416973344  0.8706451689204591  0.23314575683371222  1.0000
  C   C287      1.0  0.38556338279105046  0.885246636322204  0.23418312008671988  1.0000
  C   C288      1.0  0.39276123491499576  0.9000999956888182  0.20089529287924135  1.0000
  H   H189      1.0  0.343185570027164  0.8855377612510116  0.13909089608964928  1.0000
  H   H190      1.0  0.3302345390845718  0.8597817505252147  0.19787024805737308  1.0000
  H   H191      1.0  0.39726055614814815  0.8853006108720661  0.2607350329922221  1.0000
  H   H192      1.0  0.4100986753817206  0.9115582986106396  0.20186700264112398  1.0000
  N   N1        1.0  0.9843121126251082  0.39423017099347  0.09723390995637055  1.0000
  C   C289      1.0  0.9692085206102578  0.4096682320682337  0.0672491867520693  1.0000
  C   C290      1.0  0.9848699243474912  0.40938878495214065  0.13441918732897362  1.0000
  C   C291      1.0  0.011202856473988998  0.3887584839390026  0.08259042354267616  1.0000
  C   C292      1.0  0.9718050190882651  0.368938482841395  0.10465061459123039  1.0000
  H   H193      1.0  0.9485689295574429  0.41344995044659294  0.07694017434411944  1.0000
  H   H194      1.0  0.9687719303056793  0.3989968450087498  0.03855194908868148  1.0000
  H   H195      1.0  0.9777212475200034  0.4291762203461155  0.06153458227898209  1.0000
  H   H196      1.0  0.9941956793406395  0.428644787219501  0.13007759310430106  1.0000
  H   H197      1.0  0.9646804473148688  0.4137278996570454  0.14584850748366093  1.0000
  H   H198      1.0  0.9957779588966621  0.39816735047086216  0.15788284050128948  1.0000
  H   H199      1.0  0.023143849996355215  0.376934549060623  0.10430848282370137  1.0000
  H   H200      1.0  0.021343994697633262  0.4073242029511884  0.07631315974492651  1.0000
  H   H201      1.0  0.01120254107159302  0.3770698133515412  0.05471856364172969  1.0000
  H   H202      1.0  0.9519254573725751  0.37203529529035867  0.11711220779697958  1.0000
  H   H203      1.0  0.9831094674534087  0.35637459496261215  0.12613067111392276  1.0000
  H   H204      1.0  0.9698317203928278  0.3575815474147928  0.07686055456711444  1.0000
  N   N2        1.0  0.8472239973837656  0.7634652292996771  0.27990438731033257  1.0000
  C   C293      1.0  0.822293881132765  0.7586544086987586  0.2598694230031903  1.0000
  C   C294      1.0  0.8575926738521054  0.7884890806469194  0.2651228050858  1.0000
  C   C295      1.0  0.8662863010654424  0.7414401172748099  0.27154745110084194  1.0000
  C   C296      1.0  0.8426785653496747  0.7653205436674481  0.3229915010224074  1.0000
  H   H205      1.0  0.8244411285002224  0.7595571723115659  0.22722492253650542  1.0000
  H   H206      1.0  0.8066986632252987  0.773511609223699  0.2684425210207871  1.0000
  H   H207      1.0  0.8150370764599936  0.7388443132424124  0.267707161000383  1.0000
  H   H208      1.0  0.87630449717586  0.7928619057680816  0.2798390486226638  1.0000
  H   H209      1.0  0.8614419783921821  0.7875975297060873  0.23266934214229587  1.0000
  H   H210      1.0  0.8435512409497797  0.8054827389663525  0.27044803410819834  1.0000
  H   H211      1.0  0.8588844028475855  0.7220655379644484  0.2813216934861886  1.0000
  H   H212      1.0  0.8851477169361316  0.7440304611077784  0.28691648865328934  1.0000
  H   H213      1.0  0.870566691525768  0.7398428075875166  0.2393424988063877  1.0000
  H   H214      1.0  0.8610915805229167  0.7683779444419653  0.33934306009337456  1.0000
  H   H215      1.0  0.8342085479239439  0.7470111961122989  0.33479579445819657  1.0000
  H   H216      1.0  0.8285195567734498  0.7818476074341931  0.33038033914016296  1.0000
  N   N3        1.0  0.2770520671658108  0.8571686762147112  0.9014645316511483  1.0000
  C   C297      1.0  0.25875422693851047  0.8355750166016012  0.9065375059022012  1.0000
  C   C298      1.0  0.2968613764168755  0.8554821699084092  0.9331180902702901  1.0000
  C   C299      1.0  0.26253905119917115  0.882981510103573  0.9036832878905579  1.0000
  C   C300      1.0  0.2901300178520552  0.8547100643001958  0.862554213342731  1.0000
  H   H217      1.0  0.24309149291502286  0.8365651589463494  0.8837928942428712  1.0000
  H   H218      1.0  0.2489579929020187  0.8365135190631025  0.935935414771139  1.0000
  H   H219      1.0  0.2690320787460365  0.8158371827779205  0.9045080282836331  1.0000
  H   H220      1.0  0.2877605364174357  0.856776811817405  0.9629262487448801  1.0000
  H   H221      1.0  0.30858749703065136  0.8365125332990913  0.9320330637877932  1.0000
  H   H222      1.0  0.3105340922063704  0.8719039831197739  0.9308154613079913  1.0000
  H   H223      1.0  0.27583021548522507  0.8997027352361527  0.9001734051782578  1.0000
  H   H224      1.0  0.25248765451848054  0.8855384730601564  0.932664010262851  1.0000
  H   H225      1.0  0.24733178975686976  0.8849761074796949  0.8803289815403127  1.0000
  H   H226      1.0  0.275843630794766  0.8562175698356694  0.8378740598438745  1.0000
  H   H227      1.0  0.3011448930650044  0.8353749177506261  0.8595789316445747  1.0000
  H   H228      1.0  0.30440912662845654  0.8704730447247263  0.858053634015325  1.0000
  N   N4        1.0  0.2639581430168201  0.2150669858865159  0.1766165136474123  1.0000
  C   C301      1.0  0.2457407506124482  0.205278233380759  0.14677349579742732  1.0000
  C   C302      1.0  0.2803479078460553  0.19268700230564453  0.19217339972363962  1.0000
  C   C303      1.0  0.24890068098343415  0.22763061287613146  0.2093301081325302  1.0000
  C   C304      1.0  0.2808339070288709  0.23473928611200484  0.1583044113331535  1.0000
  H   H229      1.0  0.256320500782413  0.19714008741725647  0.12040752318627891  1.0000
  H   H230      1.0  0.23200270098173673  0.2213582147753065  0.1362782142812123  1.0000
  H   H231      1.0  0.23365038050675194  0.18940051010526127  0.1589647376130923  1.0000
  H   H232      1.0  0.29357688073070576  0.19925581831198078  0.215902552338029  1.0000
  H   H233      1.0  0.26827911979952024  0.17702572605134062  0.2050718092175102  1.0000
  H   H234      1.0  0.2927337941803896  0.1834464004962046  0.16846417303182212  1.0000
  H   H235      1.0  0.2620817165189016  0.23539755187428613  0.23227758339133658  1.0000
  H   H236      1.0  0.2360170938051605  0.21336173274477954  0.22399777299962464  1.0000
  H   H237      1.0  0.23621952709434593  0.24456608285462303  0.19844157976010598  1.0000
  H   H238      1.0  0.29550583840079125  0.24174617222735928  0.17964856460153164  1.0000
  H   H239      1.0  0.26918768774315593  0.2523984565277145  0.1477584924384992  1.0000
  H   H240      1.0  0.2918258821507365  0.22637007097496323  0.13244028398107222  1.0000
  N   N5        1.0  0.09926186605766817  0.36525750364530624  0.2172547683084961  1.0000
  C   C305      1.0  0.10812677178830248  0.3807396303841861  0.251271603553509  1.0000
  C   C306      1.0  0.1121922361980753  0.3386089329736448  0.2182785978768494  1.0000
  C   C307      1.0  0.10607295392100449  0.3788633443481212  0.18009206125853727  1.0000
  C   C308      1.0  0.07066721414539305  0.36275479418222956  0.21927528399428758  1.0000
  H   H241      1.0  0.09867994978102676  0.4009273545649809  0.2516961903322833  1.0000
  H   H242      1.0  0.12961356179154573  0.38315372717947066  0.2501905759251858  1.0000
  H   H243      1.0  0.10373374642695016  0.37090514045126965  0.27989096763774585  1.0000
  H   H244      1.0  0.1060259836809563  0.3264088154711859  0.19285680290911017  1.0000
  H   H245      1.0  0.13382178342051806  0.3396908669759935  0.21692027411853054  1.0000
  H   H246      1.0  0.10739314046652801  0.3277394982984098  0.2458394975689501  1.0000
  H   H247      1.0  0.0994572182739358  0.36795927508888293  0.15372464809864325  1.0000
  H   H248      1.0  0.12750531001827176  0.38055328324370435  0.17708526644412298  1.0000
  H   H249      1.0  0.09714040018097032  0.39923578485721667  0.1785775029627804  1.0000
  H   H250      1.0  0.06357675690796256  0.35100937112531383  0.19392404255531387  1.0000
  H   H251      1.0  0.06021591992294291  0.382450393903097  0.21837201587413144  1.0000
  H   H252      1.0  0.0647915674970285  0.35254361543876905  0.24691974421704108  1.0000
  N   N6        1.0  0.341663946320393  0.37064005273663586  0.4295345068471295  1.0000
  C   C309      1.0  0.36687879877033447  0.363121385511541  0.4104777728039602  1.0000
  C   C310      1.0  0.3342462097389859  0.3983902558710311  0.4193910242317053  1.0000
  C   C311      1.0  0.3442005111575398  0.3678765743746761  0.47288981274635233  1.0000
  C   C312      1.0  0.3212839794268168  0.35312425560940236  0.41556476797543335  1.0000
  H   H253      1.0  0.3827069698913736  0.3759056557950852  0.4203617208656964  1.0000
  H   H254      1.0  0.3657280704945288  0.3647777263985304  0.3777227759905311  1.0000
  H   H255      1.0  0.3731013205745788  0.3423341216680541  0.41756541305080624  1.0000
  H   H256      1.0  0.34893930850744903  0.4121838740103691  0.43021192028511923  1.0000
  H   H257      1.0  0.33261384227935836  0.4013042217400242  0.3868808988191467  1.0000
  H   H258      1.0  0.3150573121860989  0.40458651622783504  0.43260349357945416  1.0000
  H   H259      1.0  0.3254779722341348  0.37348383373969296  0.48810458651128047  1.0000
  H   H260      1.0  0.3595084116867468  0.38062261105077966  0.48463837066414944  1.0000
  H   H261      1.0  0.3496472896562925  0.3470757419357749  0.4814755796563542  1.0000
  H   H262      1.0  0.3186249366999111  0.3547003016765567  0.3830777108163856  1.0000
  H   H263      1.0  0.3020540271233489  0.3581914556274738  0.4296614815854056  1.0000
  H   H264      1.0  0.3264102490649502  0.3320010939919977  0.4225980956547038  1.0000
  N   N7        1.0  0.7247877880162794  0.24584319996780618  0.3135428112872114  1.0000
  C   C313      1.0  0.7244882860420719  0.23713913279968077  0.355317501580324  1.0000
  C   C314      1.0  0.726545199749348  0.22248114608467967  0.2874443077539215  1.0000
  C   C315      1.0  0.747321131531754  0.26252731937724855  0.306465995334697  1.0000
  C   C316      1.0  0.700474754203276  0.26134993113596594  0.30494316092537005  1.0000
  H   H265      1.0  0.7077343721961246  0.22433311373025797  0.36133711857883954  1.0000
  H   H266      1.0  0.7224084058219383  0.254342968272565  0.375731697562385  1.0000
  H   H267      1.0  0.7426828558325774  0.22562861282658353  0.3632435897219211  1.0000
  H   H268      1.0  0.7448722431049145  0.2104288275218803  0.2924281690400497  1.0000
  H   H269      1.0  0.709903693671875  0.2093848101817439  0.2926283302420117  1.0000
  H   H270      1.0  0.7258723679809627  0.22831444167635576  0.25561554910222584  1.0000
  H   H271      1.0  0.7660912346332268  0.25152905685135185  0.31280255090874404  1.0000
  H   H272      1.0  0.746256022617425  0.28042946030775895  0.3255662519825782  1.0000
  H   H273      1.0  0.7478941720694448  0.2694392283710136  0.2751758709784975  1.0000
  H   H274      1.0  0.683146201746961  0.24938811824242757  0.3105249394616262  1.0000
  H   H275      1.0  0.699771294678131  0.2682400005737224  0.2736681753322703  1.0000
  H   H276      1.0  0.6983716274820725  0.2791179534771882  0.32388042321587845  1.0000
  N   N8        1.0  0.7282990460088016  0.3098516196703213  0.6374294922072022  1.0000
  C   C317      1.0  0.730796337380071  0.2917364379086207  0.6717622617869664  1.0000
  C   C318      1.0  0.7458288469294083  0.33202532660659906  0.6426776067680608  1.0000
  C   C319      1.0  0.7010052339688179  0.32028677044775966  0.6343953280046828  1.0000
  C   C320      1.0  0.7355316551469332  0.2953547800359514  0.6009108198391095  1.0000
  H   H277      1.0  0.7511589642354787  0.28365856042295534  0.6753201388203423  1.0000
  H   H278      1.0  0.7179967092481312  0.2746551968586475  0.6686597978374546  1.0000
  H   H279      1.0  0.7250921034246538  0.3018969948859975  0.6997363413541587  1.0000
  H   H280      1.0  0.7443015359309464  0.34630392150318645  0.6175844240216083  1.0000
  H   H281      1.0  0.7409519279291312  0.3432503885581675  0.6700449962831442  1.0000
  H   H282      1.0  0.7666047818707945  0.32493443384324594  0.6450946458475397  1.0000
  H   H283      1.0  0.6983888227234628  0.3342080137171904  0.6090486308123133  1.0000
  H   H284      1.0  0.6947601291732807  0.3310448011308095  0.6616848731841264  1.0000
  H   H285      1.0  0.6872932208326734  0.3040447745097953  0.6299596048433714  1.0000
  H   H286      1.0  0.7559356247703712  0.2870203747249562  0.6022348887586954  1.0000
  H   H287      1.0  0.733774294740593  0.30839276561005935  0.5743905461155171  1.0000
  H   H288      1.0  0.722599086952327  0.2785230615841622  0.5960380122865173  1.0000
  N   N9        1.0  0.9742157495280325  0.802636287413114  0.9397483879433924  1.0000
  C   C321      1.0  0.0023541881254671715  0.800590669186636  0.949406659094088  1.0000
  C   C322      1.0  0.9681711205139165  0.8277253198406606  0.918508380658299  1.0000
  C   C323      1.0  0.9586801611742155  0.8020907875529044  0.9765653726118035  1.0000
  C   C324      1.0  0.9675314706372796  0.7801121350821779  0.9145759378499018  1.0000
  H   H289      1.0  0.00764942145476355  0.7815313957484369  0.9644407714044053  1.0000
  H   H290      1.0  0.00802523838089364  0.8166818198110329  0.9695557659456491  1.0000
  H   H291      1.0  0.014708923545261765  0.8015421744310691  0.9223815087496283  1.0000
  H   H292      1.0  0.9730915706111336  0.8450765564122529  0.9367303734296205  1.0000
  H   H293      1.0  0.9793031804843728  0.8287874722035835  0.8902938673085928  1.0000
  H   H294      1.0  0.9469703853707823  0.8299472121266651  0.9112996491993884  1.0000
  H   H295      1.0  0.9373820032979858  0.8044528760454075  0.9704045960078008  1.0000
  H   H296      1.0  0.963761098930206  0.8182042295858233  0.997048109466797  1.0000
  H   H297      1.0  0.9619531401992351  0.7830306641901468  0.9925593459035249  1.0000
  H   H298      1.0  0.9715591590261574  0.7608567630801405  0.9300267501028522  1.0000
  H   H299      1.0  0.9790746029138911  0.7796495651153668  0.8866766048647138  1.0000
  H   H300      1.0  0.946458622622754  0.781060173215036  0.9065886185003147  1.0000
  N   N10       1.0  0.7140598354033738  0.41042835317207316  0.41838378942052645  1.0000
  C   C325      1.0  0.7374778986844481  0.39330428288407915  0.4266935906864186  1.0000
  C   C326      1.0  0.6921885791795798  0.40204362663601856  0.44341484008674714  1.0000
  C   C327      1.0  0.7068993456939655  0.408073040803083  0.37630063502699823  1.0000
  C   C328      1.0  0.7196868358403425  0.4381976828765291  0.4271185681340975  1.0000
  H   H301      1.0  0.7540118611148702  0.39819329615913535  0.406933647422142  1.0000
  H   H302      1.0  0.7335703095023397  0.3720958698671435  0.42243511936289235  1.0000
  H   H303      1.0  0.7443716423592651  0.3956840191167654  0.45760365364782724  1.0000
  H   H304      1.0  0.6741368236078071  0.4144706176780626  0.4378283323491887  1.0000
  H   H305      1.0  0.687508712736436  0.3811071234164719  0.43741741317912525  1.0000
  H   H306      1.0  0.6969847339347951  0.40349719930250716  0.4753718928943729  1.0000
  H   H307      1.0  0.6898400110922995  0.42136188821014603  0.36851120306510043  1.0000
  H   H308      1.0  0.7016533195334069  0.38755381204516515  0.36916874452914594  1.0000
  H   H309      1.0  0.7233236984759753  0.4131808822526127  0.3563817672265904  1.0000
  H   H310      1.0  0.736072746717554  0.4450587564346226  0.4085935894815425  1.0000
  H   H311      1.0  0.72570926468464  0.4406165091861241  0.45845607313688075  1.0000
  H   H312      1.0  0.7024572742669472  0.4517526499318612  0.42144382745235054  1.0000
  N   N11       1.0  0.19340284642799652  0.5832534456949934  0.2732465071235839  1.0000
  C   C329      1.0  0.20195686126016016  0.5554917448580258  0.28130708966022006  1.0000
  C   C330      1.0  0.18148304829398565  0.5854414422548321  0.23356585358413218  1.0000
  C   C331      1.0  0.21619499738992948  0.6001316772644539  0.27483481263701964  1.0000
  C   C332      1.0  0.1739966246126158  0.5920988696407242  0.3033053159549526  1.0000
  H   H313      1.0  0.2165532987342438  0.5481023353683722  0.25913362693679926  1.0000
  H   H314      1.0  0.1852368996851047  0.5421644437675468  0.2808933025899319  1.0000
  H   H315      1.0  0.21129386419940846  0.5533855531275997  0.3109129941910585  1.0000
  H   H316      1.0  0.19566151302543125  0.5792663836579929  0.21005835349270482  1.0000
  H   H317      1.0  0.1642209582051609  0.5729481844484302  0.23111234493875568  1.0000
  H   H318      1.0  0.1747664114697049  0.6062604752851447  0.22694187939087962  1.0000
  H   H319      1.0  0.2105732791788017  0.6210613018023882  0.2676612767673267  1.0000
  H   H320      1.0  0.23165735228171178  0.5935932811078322  0.2534684370160984  1.0000
  H   H321      1.0  0.22514526099868545  0.5998151556236987  0.3047044420522059  1.0000
  H   H322      1.0  0.15635727662369064  0.5800435297816636  0.30260125314971864  1.0000
  H   H323      1.0  0.16742308634641848  0.6131359277902907  0.2984704743800051  1.0000
  H   H324      1.0  0.18223569572445053  0.5905212228552337  0.333649002803287  1.0000
  N   N12       1.0  0.44660051127614997  0.8555149540381727  0.8256898426540146  1.0000
  C   C333      1.0  0.46053695000725114  0.8721550902997592  0.8537649845173478  1.0000
  C   C334      1.0  0.43313235502641423  0.8726053996839712  0.7959210523019283  1.0000
  C   C335      1.0  0.4272422464327308  0.8400931706036292  0.8473392703900795  1.0000
  C   C336      1.0  0.465494265514763  0.8372345860842825  0.8056216623746792  1.0000
  H   H325      1.0  0.4752301147258963  0.884097611167834  0.8382506444774211  1.0000
  H   H326      1.0  0.47099720094566566  0.8599144149158717  0.8766051292447551  1.0000
  H   H327      1.0  0.4467488189373039  0.8861781487651201  0.8694285354005534  1.0000
  H   H328      1.0  0.42180608436809247  0.8607617681551566  0.7748998369999839  1.0000
  H   H329      1.0  0.4193252839473744  0.8872779757251477  0.809936072797385  1.0000
  H   H330      1.0  0.44726108611291154  0.8837074913182512  0.7778599363003027  1.0000
  H   H331      1.0  0.4153957510035078  0.8283237106377724  0.8267923156177441  1.0000
  H   H332      1.0  0.4134562808309988  0.8532436899018531  0.8643632649377099  1.0000
  H   H333      1.0  0.43679602513399046  0.8260886488912517  0.8687826067591885  1.0000
  H   H334      1.0  0.4555469692783148  0.8246455573631714  0.7839069531352477  1.0000
  H   H335      1.0  0.4760625472484882  0.8238792125930837  0.8269155270771829  1.0000
  H   H336      1.0  0.48039212366442996  0.84821645939039  0.7889158381205339  1.0000
  N   N13       1.0  0.8356391832206866  0.6664998926243381  0.066833020300996  1.0000
  C   C337      1.0  0.8350761482537977  0.656755194376978  0.10811936212188021  1.0000
  C   C338      1.0  0.8353745993834177  0.6956860091524307  0.06671309210590134  1.0000
  C   C339      1.0  0.8125484594210196  0.6576803603815146  0.045304062872853414  1.0000
  C   C340      1.0  0.8596339505988759  0.6560113698148836  0.047052740992265314  1.0000
  H   H337      1.0  0.8351990555958096  0.6347768480367992  0.10950479828831208  1.0000
  H   H338      1.0  0.8174037701227252  0.6645117419727589  0.12418611874709673  1.0000
  H   H339      1.0  0.8523353503489575  0.6631030267195152  0.12502439252273959  1.0000
  H   H340      1.0  0.8182255960049384  0.7044442685640949  0.08293366029119448  1.0000
  H   H341      1.0  0.8531057897621263  0.7029184709169609  0.08107957724613847  1.0000
  H   H342      1.0  0.8349020930734292  0.7038543942525589  0.036110798251249264  1.0000
  H   H343      1.0  0.8126788170283192  0.6647092066814991  0.013968351400555301  1.0000
  H   H344      1.0  0.7940967563897257  0.66547467717162  0.059171584574605  1.0000
  H   H345      1.0  0.8120091645033964  0.6357262800166857  0.04484625513071625  1.0000
  H   H346      1.0  0.8610192756423812  0.6635704233511044  0.016118342067056757  1.0000
  H   H347      1.0  0.8602521902141199  0.6340379811462049  0.04577562902154314  1.0000
  H   H348      1.0  0.8774691458145887  0.6619138163848106  0.06290792339829672  1.0000
  N   N14       1.0  0.8201369645388608  0.5607063409942145  0.4181941846554641  1.0000
  C   C341      1.0  0.839746843249441  0.5793889960236113  0.43114109719289745  1.0000
  C   C342      1.0  0.8164077574615823  0.5407003974981444  0.4494582233149166  1.0000
  C   C343      1.0  0.8293337663897864  0.5474147520082479  0.38162737807941816  1.0000
  C   C344      1.0  0.7950672470005072  0.575331487345252  0.41054687553193897  1.0000
  H   H349      1.0  0.8430906340113243  0.5946874037405728  0.4081087132447567  1.0000
  H   H350      1.0  0.8589094696920514  0.569156340323248  0.4374184108884662  1.0000
  H   H351      1.0  0.8333363039913885  0.5901045782631844  0.45840499033934423  1.0000
  H   H352      1.0  0.8349245038279476  0.5292158619857686  0.45585164568294967  1.0000
  H   H353      1.0  0.8095241731883561  0.5500945213713088  0.4775105566280001  1.0000
  H   H354      1.0  0.8016993785714136  0.5262800153702645  0.44054643889960937  1.0000
  H   H355      1.0  0.8485790673018822  0.5368123948842842  0.38582197014052383  1.0000
  H   H356      1.0  0.8314926128376681  0.5618313581465164  0.3569618657230166  1.0000
  H   H357      1.0  0.8154286674977819  0.5325396664308828  0.3717326445938036  1.0000
  H   H358      1.0  0.7796741872695305  0.5618827847883332  0.4010548197765938  1.0000
  H   H359      1.0  0.796996696498356  0.5902478114678434  0.3865850200583735  1.0000
  H   H360      1.0  0.7878476171942195  0.5862022127192082  0.43719943230840486  1.0000
  N   N15       1.0  0.7344075834708135  0.48800919515457786  0.7236257898123604  1.0000
  C   C345      1.0  0.7346684814659848  0.5167064990945922  0.7314856934212906  1.0000
  C   C346      1.0  0.741812168788117  0.4830117848254057  0.6819830069371707  1.0000
  C   C347      1.0  0.7080064196875439  0.4783577972799208  0.7309982270652834  1.0000
  C   C348      1.0  0.7532335394569608  0.4738456905646941  0.7500092529475637  1.0000
  H   H361      1.0  0.7292687260161478  0.5212866802040755  0.7626627623907443  1.0000
  H   H362      1.0  0.7208637983283807  0.5281224061716527  0.7118908333636779  1.0000
  H   H363      1.0  0.7544190485329698  0.5244230859262595  0.7262561824514595  1.0000
  H   H364      1.0  0.7278748339821084  0.49317556212660757  0.6612140497397548  1.0000
  H   H365      1.0  0.7615572998809627  0.490310262365312  0.6752973013515751  1.0000
  H   H366      1.0  0.742181726825462  0.46146913924628674  0.6751687117574513  1.0000
  H   H367      1.0  0.7073467666237903  0.4567110219816558  0.7251186949148531  1.0000
  H   H368      1.0  0.6932054494222432  0.48859618781964503  0.7116796600294508  1.0000
  H   H369      1.0  0.7018923885197562  0.48156820394707184  0.762261543070966  1.0000
  H   H370      1.0  0.7488760451066765  0.47782347094202854  0.7817081160748188  1.0000
  H   H371      1.0  0.7734792023272107  0.4798781223565291  0.7443201694078553  1.0000
  H   H372      1.0  0.7530140653193669  0.45208383842680744  0.7457058540159085  1.0000
  N   N16       1.0  0.6940458160356551  0.7680408813268605  0.4324943763140233  1.0000
  C   C349      1.0  0.7023118506531278  0.7862676513294777  0.46362256279243036  1.0000
  C   C350      1.0  0.6777129871121095  0.7828684576425204  0.403312991066412  1.0000
  C   C351      1.0  0.6787587412403208  0.7469500729035213  0.4504531761934872  1.0000
  C   C352      1.0  0.7173340128149308  0.7561176739095276  0.412533343514406  1.0000
  H   H373      1.0  0.7130983992631006  0.8029729145734923  0.4508153033157404  1.0000
  H   H374      1.0  0.7151759348763318  0.775984530143993  0.48574410336222684  1.0000
  H   H375      1.0  0.6851720811529698  0.7952674190464527  0.4797126567405698  1.0000
  H   H376      1.0  0.670676820051056  0.7697643749368849  0.37961824531166743  1.0000
  H   H377      1.0  0.6602809965256916  0.7927075070908841  0.4175199764506425  1.0000
  H   H378      1.0  0.6887694413536056  0.7986836816471558  0.3887642518592014  1.0000
  H   H379      1.0  0.6904792116624652  0.735344882900016  0.47266288778022647  1.0000
  H   H380      1.0  0.6722044183565541  0.7329001800950883  0.42763940585853505  1.0000
  H   H381      1.0  0.6609901056346348  0.7553480523421153  0.4656233460822159  1.0000
  H   H382      1.0  0.7117457685865977  0.742125844369955  0.38908125467026233  1.0000
  H   H383      1.0  0.7302991145538665  0.7448940398644054  0.433577565553372  1.0000
  H   H384      1.0  0.7291505075832696  0.7714637423280878  0.3981738432494386  1.0000
  N   N17       1.0  0.384596635989784  0.7694916092679628  0.5291833312897426  1.0000
  C   C353      1.0  0.37060312963075503  0.7478311569991567  0.5106561968403015  1.0000
  C   C354      1.0  0.36736290438203056  0.7831580515463953  0.5583135110368658  1.0000
  C   C355      1.0  0.3922679394686457  0.7884882239935888  0.49834234333398236  1.0000
  C   C356      1.0  0.40816497074693353  0.7585190041530642  0.5495183580352568  1.0000
  H   H385      1.0  0.3643507117858439  0.7331658848112882  0.5329986138967735  1.0000
  H   H386      1.0  0.38313879938678036  0.7371007192902259  0.4884936250769673  1.0000
  H   H387      1.0  0.35295539333524123  0.7555275145288404  0.49444154594862116  1.0000
  H   H388      1.0  0.3774638507960967  0.7995532272376187  0.572671722708218  1.0000
  H   H389      1.0  0.349482788524591  0.7920605486526053  0.5441446288004426  1.0000
  H   H390      1.0  0.361440645702821  0.769519796021973  0.5823332064230203  1.0000
  H   H391      1.0  0.40278920081258757  0.8052296823427906  0.5111465211119036  1.0000
  H   H392      1.0  0.3749274894853699  0.7970828649962921  0.4822972769387996  1.0000
  H   H393      1.0  0.40517915907167895  0.7787685812618774  0.47572303330674665  1.0000
  H   H394      1.0  0.4191533343733873  0.7744111257607597  0.5637970644425816  1.0000
  H   H395      1.0  0.42163764256171765  0.7479275037639123  0.528536042473703  1.0000
  H   H396      1.0  0.4030266981047119  0.7442985692516163  0.5733178288484082  1.0000
  N   N18       1.0  0.6725114506925368  0.008198221754387891  0.08372651996796199  1.0000
  C   C357      1.0  0.6911920704745158  0.027632031064431795  0.09736343205694165  1.0000
  C   C358      1.0  0.6816231453121702  0.9967572713398569  0.04574804887136663  1.0000
  C   C359      1.0  0.6465544929582367  0.021479389610229434  0.07818808403590638  1.0000
  C   C360      1.0  0.6706815526589892  0.9869025776924478  0.11355486028837891  1.0000
  H   H397      1.0  0.6845890612529821  0.03733017108135028  0.12530717845628003  1.0000
  H   H398      1.0  0.6937914910952354  0.043502549184910734  0.07491686055566293  1.0000
  H   H399      1.0  0.7107512308771052  0.01800646194426325  0.10305672038442504  1.0000
  H   H400      1.0  0.682414055647712  0.012031686261926742  0.021999764515674647  1.0000
  H   H401      1.0  0.7016619847135188  0.9877168334386361  0.048325196299086715  1.0000
  H   H402      1.0  0.6687507695727677  0.9809846350878776  0.03550685565568079  1.0000
  H   H403      1.0  0.6321173291300151  0.007374467034376719  0.06733212515980047  1.0000
  H   H404      1.0  0.647389647060714  0.03788339093327342  0.05620613704157362  1.0000
  H   H405      1.0  0.6389095754169577  0.03002502802756357  0.1063992731516763  1.0000
  H   H406      1.0  0.6895978727596167  0.975432758087576  0.11680913808643223  1.0000
  H   H407      1.0  0.655816996269427  0.9725473196378198  0.10512556790653105  1.0000
  H   H408      1.0  0.6651225377421097  0.9948163737939653  0.14315810065212675  1.0000
  N   N19       1.0  0.27650953708923376  0.33685909843508205  0.6455105462384954  1.0000
  C   C361      1.0  0.251415025429961  0.34669055717213476  0.6627325744060748  1.0000
  C   C362      1.0  0.2966142185605838  0.35648267334361433  0.6519512351672404  1.0000
  C   C363      1.0  0.2732868323136802  0.33264531652219537  0.602621030507692  1.0000
  C   C364      1.0  0.28473585986714384  0.31162494201898866  0.6648574010263565  1.0000
  H   H409      1.0  0.23567493559735989  0.33256807717207326  0.6580853322101639  1.0000
  H   H410      1.0  0.24474245308469283  0.3659106150559813  0.6494335940393374  1.0000
  H   H411      1.0  0.2530742115022023  0.3498276529995186  0.6951553923642771  1.0000
  H   H412      1.0  0.3160912843040567  0.34929322102342897  0.6408381426987596  1.0000
  H   H413      1.0  0.29148446409538764  0.37554681390845857  0.6368292611772323  1.0000
  H   H414      1.0  0.29884724346907576  0.3608239044821943  0.6839145535263778  1.0000
  H   H415      1.0  0.26680956379294046  0.35129757094072916  0.5872585378595282  1.0000
  H   H416      1.0  0.2583605130689799  0.31783378274013285  0.5966526177122439  1.0000
  H   H417      1.0  0.29192639436629214  0.3254283818991504  0.5886395488089118  1.0000
  H   H418      1.0  0.30401233608551037  0.30393394188926537  0.6535736416077702  1.0000
  H   H419      1.0  0.27031026306341127  0.2961508705214056  0.6600220765461494  1.0000
  H   H420      1.0  0.28665513683337446  0.31412140853306747  0.6973818860158665  1.0000
  N   N20       1.0  0.10937533512080377  0.7596326652669596  0.16574189050132018  1.0000
  C   C365      1.0  0.12526803775518314  0.7529467300368907  0.20109494743398196  1.0000
  C   C366      1.0  0.1150022954264367  0.7865906081053754  0.1520320672014524  1.0000
  C   C367      1.0  0.08131737498541303  0.7583751767309095  0.17536995321594268  1.0000
  C   C368      1.0  0.11601437041205598  0.7405565078744409  0.1340821784723821  1.0000
  H   H421      1.0  0.1220398187106948  0.7324661493329964  0.21171891105034865  1.0000
  H   H422      1.0  0.12064572394797057  0.7667302280256321  0.22587628303289292  1.0000
  H   H423      1.0  0.1465198088849924  0.7539857797948883  0.194528399197944  1.0000
  H   H424      1.0  0.10381816161233015  0.7919786149750522  0.12472799086809491  1.0000
  H   H425      1.0  0.10982720408611368  0.8016675720237472  0.17483238716985575  1.0000
  H   H426      1.0  0.13611019391489898  0.7882264694555415  0.14482256166231927  1.0000
  H   H427      1.0  0.06899866275025746  0.763411617348768  0.14899834387136843  1.0000
  H   H428      1.0  0.07551272514855323  0.772478645029811  0.1992420318407414  1.0000
  H   H429      1.0  0.07638699838079499  0.7381791739977037  0.18529405130523044  1.0000
  H   H430      1.0  0.10338807291882435  0.7439681445483327  0.10772904546999586  1.0000
  H   H431      1.0  0.1136665955195344  0.7197865806428181  0.14394213988927665  1.0000
  H   H432      1.0  0.1365406111329981  0.7423772293269767  0.12419439098108848  1.0000
  N   N21       1.0  0.2646102620167208  0.6205820256676228  0.4886672008079879  1.0000
  C   C369      1.0  0.2755381052399144  0.5940014146427354  0.4784208585859612  1.0000
  C   C370      1.0  0.28247106892796064  0.6407871572907892  0.47447344087933657  1.0000
  C   C371      1.0  0.26153423841157114  0.6226539295730799  0.5320315998770949  1.0000
  C   C372      1.0  0.23889228118441394  0.6249253309520455  0.46955884200164305  1.0000
  H   H433      1.0  0.2623314767911212  0.5782717226692712  0.4879233897782653  1.0000
  H   H434      1.0  0.2948607566502356  0.5899708879714319  0.49261633173821306  1.0000
  H   H435      1.0  0.2784136189445131  0.5919800343095175  0.44589650877204023  1.0000
  H   H436      1.0  0.28560727245395845  0.6393808172783062  0.4419072185398316  1.0000
  H   H437      1.0  0.2744871242272946  0.6611218625693909  0.4807632363147718  1.0000
  H   H438      1.0  0.3019099963383263  0.6385707990702492  0.4889209163470356  1.0000
  H   H439      1.0  0.2805539898515836  0.6197278661954965  0.5475681211760545  1.0000
  H   H440      1.0  0.24804534639942094  0.6078419813227718  0.5438161041672539  1.0000
  H   H441      1.0  0.25333885492863395  0.6424756078572819  0.5406621638060424  1.0000
  H   H442      1.0  0.22494078645174143  0.6098198115819786  0.47881571072065404  1.0000
  H   H443      1.0  0.24064926466382078  0.6242479737509274  0.4368299932196128  1.0000
  H   H444      1.0  0.22987581086435005  0.6445979454255002  0.47713097341384747  1.0000
  N   N22       1.0  0.3604285811683221  0.2840529487791032  0.8612229320104625  1.0000
  C   C373      1.0  0.34734788468527805  0.2928603336446368  0.8981390936805445  1.0000
  C   C374      1.0  0.3796190642696849  0.26225276648028706  0.8702391863761981  1.0000
  C   C375      1.0  0.3738761819592208  0.30645245917043584  0.8431816543559735  1.0000
  C   C376      1.0  0.3407601480814903  0.2746214850920019  0.833362694249654  1.0000
  H   H445      1.0  0.3369109765968098  0.2764372662160782  0.9123812851262831  1.0000
  H   H446      1.0  0.3327820055039766  0.30937432581875235  0.8924013469099463  1.0000
  H   H447      1.0  0.3616742519050452  0.2999685839819504  0.9199209736158952  1.0000
  H   H448      1.0  0.38924517469489667  0.25454692273996055  0.8429199368445806  1.0000
  H   H449      1.0  0.39521534521360113  0.2687203627863802  0.8903608269737918  1.0000
  H   H450      1.0  0.3701670674237402  0.24521677229638172  0.8845284778248468  1.0000
  H   H451      1.0  0.38409974786881995  0.3005332659539457  0.8153481418656566  1.0000
  H   H452      1.0  0.3887965311790794  0.3142660607931529  0.8633289010850885  1.0000
  H   H453      1.0  0.35987127912878913  0.3230920454508065  0.835400177648648  1.0000
  H   H454      1.0  0.34988225656639216  0.26852103366489616  0.804712268956865  1.0000
  H   H455      1.0  0.3254888708031359  0.29027670083963447  0.8268277160173053  1.0000
  H   H456      1.0  0.33082768197744145  0.25716034799785814  0.845319534803731  1.0000
  N   N23       1.0  0.33819511875986646  0.9847542644764454  0.16213454848144118  1.0000
  C   C377      1.0  0.33546573065865815  0.9582107591147394  0.17975929071620353  1.0000
  C   C378      1.0  0.3610375566690312  0.9842282837662798  0.13535282646751953  1.0000
  C   C379      1.0  0.34201009713369385  0.0041362262486484  0.19390685355762602  1.0000
  C   C380      1.0  0.31437308051016405  0.9924934224508599  0.13957959556346541  1.0000
  H   H457      1.0  0.33300632696396615  0.9430132141199877  0.156638398628832  1.0000
  H   H458      1.0  0.3183074796853601  0.9576355519851666  0.19989834762195738  1.0000
  H   H459      1.0  0.3531309234533126  0.9517701249391977  0.1969562370336127  1.0000
  H   H460      1.0  0.35840589798397054  0.9704529723104302  0.1102588427324295  1.0000
  H   H461      1.0  0.3643702103483031  0.004115954721263471  0.12267001855803901  1.0000
  H   H462      1.0  0.37920538697812894  0.9772943824272661  0.1509016280168914  1.0000
  H   H463      1.0  0.344132303464024  0.024405459309344346  0.18161915027969436  1.0000
  H   H464      1.0  0.3598977976665118  0.9989333259243149  0.21136655801217508  1.0000
  H   H465      1.0  0.32514832269036664  0.0049923598608265785  0.21473857133604587  1.0000
  H   H466      1.0  0.29656664949579714  0.9921367372731195  0.15840493143222067  1.0000
  H   H467      1.0  0.31141007274983795  0.9790033919400667  0.11422891940912171  1.0000
  H   H468      1.0  0.3154209392323633  0.012802464214825449  0.127024187422275  1.0000
  N   N24       1.0  0.5012617003360853  0.8661411761503018  0.44826358922748444  1.0000
  C   C381      1.0  0.48490048452649154  0.8502739536700332  0.4223289351848353  1.0000
  C   C382      1.0  0.48432360601732866  0.884966687926892  0.47097680107403955  1.0000
  C   C383      1.0  0.5198209956927186  0.8808689492041532  0.42394176510026244  1.0000
  C   C384      1.0  0.5159795374664117  0.8484072062843434  0.47585166465421885  1.0000
  H   H469      1.0  0.4969399403658223  0.8358258739120328  0.4045683003975487  1.0000
  H   H470      1.0  0.47339152651453453  0.8630564445694114  0.40127586129550546  1.0000
  H   H471      1.0  0.47058768036625537  0.8390352650687929  0.43978398755299686  1.0000
  H   H472      1.0  0.4723778585805797  0.8981841782550657  0.45102898747396775  1.0000
  H   H473      1.0  0.4702971162618086  0.8744537704654802  0.49004428385675347  1.0000
  H   H474      1.0  0.49592610694534156  0.8976306417269826  0.4904638821493912  1.0000
  H   H475      1.0  0.5324471239127372  0.8931630414705783  0.4424574815236714  1.0000
  H   H476      1.0  0.5094729380485208  0.8942860374975856  0.4024546520252874  1.0000
  H   H477      1.0  0.5330500003009532  0.8672405132342224  0.40661631503009094  1.0000
  H   H478      1.0  0.5285647283536591  0.859742730971972  0.4958668934874055  1.0000
  H   H479      1.0  0.5289390130625615  0.8339443683973407  0.4595884239898923  1.0000
  H   H480      1.0  0.5025890063195815  0.8369807898398632  0.4947157565198445  1.0000
  N   N25       1.0  0.5158666096821239  0.24348528472047073  0.6264075495211033  1.0000
  C   C385      1.0  0.5431799961246363  0.24302840107406937  0.6404139364849978  1.0000
  C   C386      1.0  0.5001702218172023  0.22696089141747855  0.6527424308162278  1.0000
  C   C387      1.0  0.5150507484174037  0.2329868982844683  0.585774321762884  1.0000
  C   C388      1.0  0.5049794134253194  0.2709943882648529  0.6267788997599374  1.0000
  H   H481      1.0  0.5520041748334541  0.22256891628516712  0.6412286922517558  1.0000
  H   H482      1.0  0.5443623888531852  0.2511859066189512  0.6707790877565639  1.0000
  H   H483      1.0  0.555683143724218  0.2551738620154344  0.6211512053115259  1.0000
  H   H484      1.0  0.47958065404964156  0.22632225345939097  0.6425584087067656  1.0000
  H   H485      1.0  0.5081985723740761  0.20623696463750515  0.6543954206584429  1.0000
  H   H486      1.0  0.4995165732089274  0.23483430973168223  0.6832730408097504  1.0000
  H   H487      1.0  0.5269989952504259  0.24471995420577927  0.5651876073370563  1.0000
  H   H488      1.0  0.4946213881268386  0.2333738352968377  0.5743982389074703  1.0000
  H   H489      1.0  0.5227317090850225  0.21210005537477764  0.5846896294337636  1.0000
  H   H490      1.0  0.5163307645313575  0.28409914617999865  0.6073564922149374  1.0000
  H   H491      1.0  0.5052675840385435  0.2794509539594261  0.6571381677262096  1.0000
  H   H492      1.0  0.4843051251601178  0.272087112246339  0.6165398350613626  1.0000
  N   N26       1.0  0.7322904553197893  0.23105807922133464  0.8787288428433552  1.0000
  C   C389      1.0  0.7150573342796975  0.25324730331377066  0.8927216308971408  1.0000
  C   C390      1.0  0.7255608615598691  0.2247858377610745  0.8374239616579542  1.0000
  C   C391      1.0  0.7288444584033773  0.20759557878215595  0.9041482526730247  1.0000
  C   C392      1.0  0.7597694564212208  0.23869691575216712  0.8806552048761718  1.0000
  H   H493      1.0  0.6941796026443391  0.24823848565389  0.8914666603998169  1.0000
  H   H494      1.0  0.7171508478903086  0.27126827594116093  0.8740579782909831  1.0000
  H   H495      1.0  0.7193840526363683  0.25843565497743204  0.9238874698743591  1.0000
  H   H496      1.0  0.7278902163652111  0.24213903716592228  0.8174907478653809  1.0000
  H   H497      1.0  0.738049122524098  0.20807895663892437  0.8257567141448939  1.0000
  H   H498      1.0  0.7049157699643517  0.21901164306736007  0.8348274276970689  1.0000
  H   H499      1.0  0.7085521908392346  0.20081041310472864  0.9027220454623258  1.0000
  H   H500      1.0  0.7331145722406072  0.2118308789376544  0.9357282797951406  1.0000
  H   H501      1.0  0.7420012664915937  0.19066535965158135  0.8950190552051662  1.0000
  H   H502      1.0  0.7732914746289147  0.2225352497879381  0.8697764338640035  1.0000
  H   H503      1.0  0.7655899423014315  0.24296637611366148  0.9116241467064792  1.0000
  H   H504      1.0  0.7630060958674877  0.25659368513596315  0.8622679596721722  1.0000
  N   N27       1.0  0.8144299895374588  0.3543695888848579  0.2006781666968212  1.0000
  C   C393      1.0  0.8215921699447276  0.38128643302108023  0.18889524600076565  1.0000
  C   C394      1.0  0.7872214003659466  0.35015076997260086  0.188676786723127  1.0000
  C   C395      1.0  0.8166178338335983  0.3514484254387523  0.24406959298476522  1.0000
  C   C396      1.0  0.8322331240762515  0.33468632900241435  0.1811476123389902  1.0000
  H   H505      1.0  0.8415495359789189  0.3856070469673554  0.19914988590996505  1.0000
  H   H506      1.0  0.8079339745153059  0.396628694183787  0.2017733222784446  1.0000
  H   H507      1.0  0.8213637669437085  0.38390369929206625  0.15622062105656295  1.0000
  H   H508      1.0  0.7733058838333106  0.3645223446525831  0.20346196866186164  1.0000
  H   H509      1.0  0.7847165201059744  0.35258308048370995  0.15619074790626053  1.0000
  H   H510      1.0  0.7812116400216971  0.3299594282095161  0.196811490629564  1.0000
  H   H511      1.0  0.8115625560769033  0.3313467105259084  0.25407284645046696  1.0000
  H   H512      1.0  0.8033094750340263  0.36589532089703464  0.2596972226208187  1.0000
  H   H513      1.0  0.8367773403060651  0.3548591223569257  0.25441294058793396  1.0000
  H   H514      1.0  0.8274871537176797  0.3140855490912223  0.1891824562959197  1.0000
  H   H515      1.0  0.8529089302614024  0.3373934348384926  0.18961292730207976  1.0000
  H   H516      1.0  0.8311796851679443  0.33630278535645663  0.14834232615252083  1.0000
  N   N28       1.0  0.4385594383237572  0.21436449136625546  0.22686859966114212  1.0000
  C   C397      1.0  0.41800140418923937  0.2258397312863767  0.20063815768238197  1.0000
  C   C398      1.0  0.45057099852699  0.19040046209424744  0.208413685878537  1.0000
  C   C399      1.0  0.42692151331335987  0.20721484125814166  0.26533355917661733  1.0000
  C   C400      1.0  0.45876848383135554  0.23393502075270944  0.23302125683866362  1.0000
  H   H517      1.0  0.4023142116891436  0.21171191916763998  0.19552177914146654  1.0000
  H   H518      1.0  0.42595848554567733  0.2313874781134017  0.1712489281512977  1.0000
  H   H519      1.0  0.40861571858298357  0.24401722584342306  0.21362623883274062  1.0000
  H   H520      1.0  0.4358262816613058  0.17524552259408388  0.2033043750315067  1.0000
  H   H521      1.0  0.45955409521895446  0.1950487798350351  0.17932982592584853  1.0000
  H   H522      1.0  0.4661853388614891  0.18127315979006553  0.22751293258655136  1.0000
  H   H523      1.0  0.4419404367708455  0.19882582828999243  0.2861216259915423  1.0000
  H   H524      1.0  0.41144482422471873  0.19261785436095902  0.261870557956867  1.0000
  H   H525      1.0  0.4176440537968973  0.2247225570638102  0.280194320628694  1.0000
  H   H526      1.0  0.4504372763777564  0.25225201538988234  0.2471348368405603  1.0000
  H   H527      1.0  0.46795508550107434  0.23985807586182614  0.20468486908401487  1.0000
  H   H528      1.0  0.4745785129229761  0.22602726276910592  0.25286658554993136  1.0000
  N   N29       1.0  0.26557282056506576  0.3960933271973606  0.20662757967813586  1.0000
  C   C401      1.0  0.2619420076871009  0.3678919280245994  0.1979480874523607  1.0000
  C   C402      1.0  0.25159572436614863  0.41272901341768026  0.17679191299036787  1.0000
  C   C403      1.0  0.29370537158536547  0.4014590044198092  0.2055924024988916  1.0000
  C   C404      1.0  0.254978355853006  0.4023244787190038  0.24630619729453446  1.0000
  H   H529      1.0  0.26990822282234006  0.36240218094359716  0.168328655753595  1.0000
  H   H530      1.0  0.2408595052139135  0.36330640125277514  0.1981839767489219  1.0000
  H   H531      1.0  0.27194956673523313  0.35481193446811793  0.22026582103924577  1.0000
  H   H532      1.0  0.2589414217618784  0.4084851332160538  0.1463983280457481  1.0000
  H   H533      1.0  0.23029670679901834  0.40923248269903895  0.17686312993661427  1.0000
  H   H534      1.0  0.25387193824931353  0.4341466019926356  0.18253640931533882  1.0000
  H   H535      1.0  0.2971875962327784  0.42231065368873333  0.21388588629173116  1.0000
  H   H536      1.0  0.3022592009600376  0.39793925608354724  0.17573267221099742  1.0000
  H   H537      1.0  0.3049797184468928  0.38857700069488543  0.22680113046218403  1.0000
  H   H538      1.0  0.25613833541647096  0.4237339897027261  0.2530770851037878  1.0000
  H   H539      1.0  0.2658733314836568  0.391153005718364  0.26984222166266214  1.0000
  H   H540      1.0  0.234189029557259  0.397331173869818  0.24882630256662297  1.0000
  N   N30       1.0  0.9095824361886558  0.3639870143854579  0.6819671479307738  1.0000
  C   C405      1.0  0.8826207480779572  0.35518628882837366  0.6777635326903796  1.0000
  C   C406      1.0  0.9129597418842342  0.38777330743758337  0.6572014905845299  1.0000
  C   C407      1.0  0.928137129781699  0.34262731693305093  0.6689884388593682  1.0000
  C   C408      1.0  0.9145286231589452  0.3702947154438092  0.7238638954511646  1.0000
  H   H541      1.0  0.879156777399318  0.33741404487570725  0.6962810267052352  1.0000
  H   H542      1.0  0.8779317254225646  0.3506472365461084  0.6464631086736256  1.0000
  H   H543      1.0  0.8682822176815611  0.3708211438080216  0.6874794447481776  1.0000
  H   H544      1.0  0.9330865945464127  0.39500859225097595  0.6593793420641321  1.0000
  H   H545      1.0  0.9088918851202656  0.38383049451477347  0.6254694842520975  1.0000
  H   H546      1.0  0.899193380435041  0.40428217004011485  0.6660944764195459  1.0000
  H   H547      1.0  0.9487081329245339  0.3485858550534805  0.6717584209026406  1.0000
  H   H548      1.0  0.9248549905507072  0.33738711063842236  0.6375063681181418  1.0000
  H   H549      1.0  0.9260193364815908  0.3243890836151814  0.6870704179091354  1.0000
  H   H550      1.0  0.9116832824340735  0.3528847272604817  0.7434730546202563  1.0000
  H   H551      1.0  0.900807119624297  0.38629261180169167  0.7347234362954318  1.0000
  H   H552      1.0  0.934709664559269  0.3769259579872745  0.7283697143665232  1.0000
  N   N31       1.0  0.211674255101095  0.4848849627219577  0.5252236335007897  1.0000
  C   C409      1.0  0.23604727718934096  0.4775913274093448  0.5037041763828061  1.0000
  C   C410      1.0  0.21525340575065882  0.4793074031468859  0.5678599314510128  1.0000
  C   C411      1.0  0.19020431813161262  0.46928128475107267  0.5098427282205984  1.0000
  C   C412      1.0  0.205174088237496  0.5133644710100437  0.5193949256691935  1.0000
  H   H553      1.0  0.2341245660700916  0.4820060274603456  0.47154949924747835  1.0000
  H   H554      1.0  0.24122778299129716  0.45609454298871677  0.5066807784315934  1.0000
  H   H555      1.0  0.2528271037421014  0.48855807498259896  0.5149524659803737  1.0000
  H   H556      1.0  0.22054921630251434  0.4580970070552213  0.5732234575238759  1.0000
  H   H557      1.0  0.23110026333574732  0.49095248281069376  0.5806614374055232  1.0000
  H   H558      1.0  0.19709372718242624  0.48401959064938943  0.5850091061306046  1.0000
  H   H559      1.0  0.1714986688249849  0.47412941366886074  0.5254677821830057  1.0000
  H   H560      1.0  0.19451446945476691  0.44769561630394994  0.51350305722928  1.0000
  H   H561      1.0  0.18696070726817662  0.4730807165759172  0.4777225780520723  1.0000
  H   H562      1.0  0.1868522860477923  0.5195194838303627  0.535200709116804  1.0000
  H   H563      1.0  0.2022699448941989  0.5182242041065634  0.4874994545519949  1.0000
  H   H564      1.0  0.2209900694676165  0.525731595983897  0.5305266280556228  1.0000
  N   N32       1.0  0.7745694927358103  0.7784657136392337  0.6497641784946171  1.0000
  C   C413      1.0  0.7745516646109317  0.8062982949863279  0.6363689549056808  1.0000
  C   C414      1.0  0.7582370060405996  0.76330604102776  0.6228613749864641  1.0000
  C   C415      1.0  0.7638371496260891  0.7772660769844033  0.6903228069062789  1.0000
  C   C416      1.0  0.8015666819893426  0.7669975379837964  0.6494176369032046  1.0000
  H   H565      1.0  0.7865890351023349  0.8183875745311053  0.6560837819672612  1.0000
  H   H566      1.0  0.7543647171040889  0.8154247281456669  0.6361963017755247  1.0000
  H   H567      1.0  0.7824979362835635  0.8078520481227133  0.6058240461476769  1.0000
  H   H568      1.0  0.7567193964916322  0.7424976122450603  0.6332259778913206  1.0000
  H   H569      1.0  0.7380797417016932  0.7722414622594834  0.6207575682849968  1.0000
  H   H570      1.0  0.7666054531021593  0.7623399968106941  0.5924822361932753  1.0000
  H   H571      1.0  0.7622754034587788  0.7564390838781067  0.7006434665615467  1.0000
  H   H572      1.0  0.7439230373244516  0.7868331487458883  0.6919036650134481  1.0000
  H   H573      1.0  0.7762890728855559  0.7874529813719303  0.7118202844026376  1.0000
  H   H574      1.0  0.802198055247905  0.7460976159466007  0.659732000545296  1.0000
  H   H575      1.0  0.8146307329057589  0.7780576091381349  0.6689487563524646  1.0000
  H   H576      1.0  0.8100274216312374  0.7667989789821761  0.6190523558462266  1.0000
  N   N33       1.0  0.8036282199005635  0.3223694106537438  0.9716497208304784  1.0000
  C   C417      1.0  0.8279876213306971  0.3115099751060177  0.9533837414791778  1.0000
  C   C418      1.0  0.7930717021558036  0.3447588578592609  0.9474759357343625  1.0000
  C   C419      1.0  0.8092295802426148  0.33171393735669435  0.011945043778373687  1.0000
  C   C420      1.0  0.7843102314591135  0.3015354434666336  0.9738642026114  1.0000
  H   H577      1.0  0.8434370119125123  0.32624403655100803  0.9535202293553281  1.0000
  H   H578      1.0  0.8249791800442147  0.30569621125187557  0.9221173315205224  1.0000
  H   H579      1.0  0.8359415310373951  0.29390157983170273  0.9697078985971465  1.0000
  H   H580      1.0  0.7748073882234379  0.3536566614305195  0.9604843385222825  1.0000
  H   H581      1.0  0.8072736324228351  0.36078260845472104  0.9452312387328805  1.0000
  H   H582      1.0  0.7887629958006916  0.3385426789775966  0.9167515899414032  1.0000
  H   H583      1.0  0.7911808666305898  0.339120076340181  0.027289312900268703  1.0000
  H   H584      1.0  0.8228705822574761  0.34823955642163673  0.011125494298910965  1.0000
  H   H585      1.0  0.8184446083481283  0.31566823191326693  0.030513367824342774  1.0000
  H   H586      1.0  0.7654915831045275  0.30921772701096284  0.9867271204084793  1.0000
  H   H587      1.0  0.7914184759102588  0.2847786018595789  0.9929726009488175  1.0000
  H   H588      1.0  0.7802318936716063  0.2934286918799677  0.9441367280629802  1.0000
  N   N34       1.0  0.20931991205642533  0.5134307336956474  0.8215377032251059  1.0000
  C   C421      1.0  0.21713765300893242  0.5407929048309276  0.8139844856831481  1.0000
  C   C422      1.0  0.19124463050506688  0.5055031547692076  0.7902014283230945  1.0000
  C   C423      1.0  0.1961464939802717  0.5119043319061943  0.8603488337458222  1.0000
  C   C424      1.0  0.2327686730593439  0.4954263517729946  0.8215195049290059  1.0000
  H   H589      1.0  0.2307246334193735  0.5475505661250117  0.837060057026369  1.0000
  H   H590      1.0  0.19993706712871043  0.5549534889402936  0.8131008491449337  1.0000
  H   H591      1.0  0.22736041570206061  0.5423770059968487  0.7850426429468378  1.0000
  H   H592      1.0  0.18515635266221966  0.48481786496872353  0.79475134593267  1.0000
  H   H593      1.0  0.17324133118038565  0.5185471578131251  0.7895372079054326  1.0000
  H   H594      1.0  0.20051626507835343  0.5065947958931099  0.7604734142480954  1.0000
  H   H595      1.0  0.18994072132896514  0.49141605022251755  0.8665770151763117  1.0000
  H   H596      1.0  0.17837096829662305  0.5252692347351766  0.8615274018909764  1.0000
  H   H597      1.0  0.20930739867094503  0.5174734772678389  0.8847506143564836  1.0000
  H   H598      1.0  0.24727663323616483  0.5012261966708307  0.8438991008933994  1.0000
  H   H599      1.0  0.24268439947792797  0.49538869506548044  0.7923327583249491  1.0000
  H   H600      1.0  0.22775301538913106  0.47468334747500895  0.8280115096424805  1.0000
  N   N35       1.0  0.6201209586291495  0.7359535683491404  0.7270037847961114  1.0000
  C   C425      1.0  0.6217402509768316  0.7524788940033275  0.6910071623423367  1.0000
  C   C426      1.0  0.639442546267238  0.7135126804735736  0.7243806823748165  1.0000
  C   C427      1.0  0.5935491802286758  0.7258841827674113  0.7304772927890648  1.0000
  C   C428      1.0  0.6257062959060604  0.7520115412541515  0.762128906638012  1.0000
  H   H601      1.0  0.6185603924025  0.7408551498482191  0.6637661948575344  1.0000
  H   H602      1.0  0.6411158360949017  0.7614141783048901  0.6882080653361177  1.0000
  H   H603      1.0  0.6067600565644753  0.7690041839989605  0.6913598288751637  1.0000
  H   H604      1.0  0.6356207989893913  0.7007093854561548  0.698575365520425  1.0000
  H   H605      1.0  0.6595864640470334  0.7205346215927141  0.7208543697856691  1.0000
  H   H606      1.0  0.6393196249455003  0.7009434805269322  0.7514664094498785  1.0000
  H   H607      1.0  0.5915884582629226  0.713258843697771  0.757247672905242  1.0000
  H   H608      1.0  0.5884984092068462  0.7139701260915031  0.7042465326404511  1.0000
  H   H609      1.0  0.5785764812249241  0.742453976314038  0.7327661643949335  1.0000
  H   H610      1.0  0.6245839083432856  0.7402217778502338  0.7898671025802668  1.0000
  H   H611      1.0  0.6115542143450455  0.7692100535425913  0.7649034341953999  1.0000
  H   H612      1.0  0.64555887982681  0.7599893463309729  0.760537956475054  1.0000
  N   N36       1.0  0.8153279506599375  0.1225555611444859  0.040685849690000664  1.0000
  C   C429      1.0  0.7939931515295453  0.13163848454905702  0.013986500837464222  1.0000
  C   C430      1.0  0.8113396494823565  0.13472788863973523  0.07999540516398196  1.0000
  C   C431      1.0  0.840550071074892  0.13049624199098872  0.0241177023341117  1.0000
  C   C432      1.0  0.8153481502222807  0.09344099663765723  0.04462917128807775  1.0000
  H   H613      1.0  0.7747663906956327  0.12547819011638325  0.025202572541240587  1.0000
  H   H614      1.0  0.7965154229965103  0.12319892974195522  0.9838565878790488  1.0000
  H   H615      1.0  0.7929263282857091  0.1535870138973233  0.01105547199326451  1.0000
  H   H616      1.0  0.8269974282868703  0.12823469882116054  0.10101833876932909  1.0000
  H   H617      1.0  0.8111295264683741  0.15672019424447936  0.07814198355550195  1.0000
  H   H618      1.0  0.7924001323373525  0.12921870276225123  0.09331459717532575  1.0000
  H   H619      1.0  0.8571181482222172  0.12421359862855282  0.04368179364492453  1.0000
  H   H620      1.0  0.8409151755481864  0.15239090227101426  0.02048693417018277  1.0000
  H   H621      1.0  0.8442630119108343  0.12153378110178462  0.9945435770800544  1.0000
  H   H622      1.0  0.8313820735294064  0.08577371747043525  0.06417881112599444  1.0000
  H   H623      1.0  0.817638163204468  0.08354347758794696  0.015442107962947427  1.0000
  H   H624      1.0  0.7966709252365314  0.08696326460558043  0.05770659761329999  1.0000
  N   N37       1.0  0.8706895891461834  0.5938929876030509  0.7452219500878537  1.0000
  C   C433      1.0  0.8440360656162359  0.6026733240605607  0.7572256452730518  1.0000
  C   C434      1.0  0.8792270042136321  0.6103159683103948  0.7117055848760738  1.0000
  C   C435      1.0  0.8706855625329396  0.5658603213820173  0.7330727429332798  1.0000
  C   C436      1.0  0.8886083140633485  0.5968700836487016  0.7789093713475115  1.0000
  H   H625      1.0  0.8363393443802973  0.5898813601465676  0.7810240820945044  1.0000
  H   H626      1.0  0.8303627561769211  0.6024383900944251  0.7317676929644118  1.0000
  H   H627      1.0  0.8434882092093199  0.6231656090685012  0.7688209750493954  1.0000
  H   H628      1.0  0.8995386026139817  0.6047465025033371  0.7024221710028391  1.0000
  H   H629      1.0  0.866380124999048  0.6081847533159688  0.6855137561324001  1.0000
  H   H630      1.0  0.8786424278225101  0.6317063099299487  0.7195891017524512  1.0000
  H   H631      1.0  0.8644820676973556  0.5528513893777385  0.7577542152618986  1.0000
  H   H632      1.0  0.8903949508196454  0.5585455075399841  0.7232199063742373  1.0000
  H   H633      1.0  0.8568582020171072  0.5630222662014777  0.7082053956603797  1.0000
  H   H634      1.0  0.908956734936834  0.5903460924571649  0.7710906746245081  1.0000
  H   H635      1.0  0.8825090381230243  0.5850318499022854  0.8049113651404471  1.0000
  H   H636      1.0  0.8889434652251373  0.617942878053856  0.7884692724364444  1.0000
  N   N38       1.0  0.43795748335111995  0.8220067677097838  0.20405444802375577  1.0000
  C   C437      1.0  0.4465612506769811  0.7953780113613123  0.2182238196472783  1.0000
  C   C438      1.0  0.45144559209163576  0.827943685755694  0.1665783730475927  1.0000
  C   C439      1.0  0.44445238185292946  0.8418462990634593  0.23396080374841707  1.0000
  C   C440      1.0  0.4094208867387575  0.8229101203264739  0.19752648780387327  1.0000
  H   H637      1.0  0.4366925267358015  0.7902864789816882  0.24646245368051328  1.0000
  H   H638      1.0  0.46794950052448486  0.7941362029042931  0.22421792712685695  1.0000
  H   H639      1.0  0.4422515501732815  0.7798200839166275  0.19638997046720902  1.0000
  H   H640      1.0  0.4453993656059752  0.8479797956512228  0.15520472399935217  1.0000
  H   H641      1.0  0.47302392169101326  0.827447514311566  0.17057699002261648  1.0000
  H   H642      1.0  0.4469633434078892  0.8134003284179268  0.14325525003037567  1.0000
  H   H643      1.0  0.46579794018261944  0.8413657443943333  0.24023078318742552  1.0000
  H   H644      1.0  0.43444395326379776  0.8380127568983796  0.26246520430700393  1.0000
  H   H645      1.0  0.43850210396076866  0.8622348158544938  0.22422912969891257  1.0000
  H   H646      1.0  0.4036334061905778  0.807388048900266  0.1765262415686923  1.0000
  H   H647      1.0  0.40246424793263486  0.8423139939746604  0.1850102664025892  1.0000
  H   H648      1.0  0.3985157125171061  0.8199387367208846  0.22566801124706148  1.0000
  N   N39       1.0  0.26928019252122637  0.7829094384962598  0.21089472376027055  1.0000
  C   C441      1.0  0.2507850831389053  0.7869915061892799  0.2441440086388819  1.0000
  C   C442      1.0  0.28116767048253494  0.75582025305412  0.21314009985297544  1.0000
  C   C443      1.0  0.2899807880774115  0.8023401569271834  0.21343767530766247  1.0000
  C   C444      1.0  0.25522017664572133  0.7864638465502067  0.1729618697647252  1.0000
  H   H649      1.0  0.2410063176483634  0.807011410464966  0.24313297702089112  1.0000
  H   H650      1.0  0.2608796956549305  0.7848578976677244  0.27318117009526943  1.0000
  H   H651      1.0  0.23536751226759267  0.7721375563389289  0.24396316152010733  1.0000
  H   H652      1.0  0.2947612180704661  0.7516932465845851  0.18804357595287824  1.0000
  H   H653      1.0  0.29239595122347367  0.7526518397885427  0.24103878863857814  1.0000
  H   H654      1.0  0.2660130424211561  0.740660081079084  0.21272904804419837  1.0000
  H   H655      1.0  0.3043224551482279  0.7998638130585352  0.18883505086110008  1.0000
  H   H656      1.0  0.30102668250682785  0.800254594052612  0.24169949202460617  1.0000
  H   H657      1.0  0.28170317508434  0.8230117067050136  0.21198474661610603  1.0000
  H   H658      1.0  0.26862396153760937  0.7837614163524061  0.1472113628450387  1.0000
  H   H659      1.0  0.24574564557757644  0.8065885795730149  0.17035655775909522  1.0000
  H   H660      1.0  0.23963371039548165  0.7719546667117501  0.16967288514327167  1.0000
  N   N40       1.0  0.5201778758558133  0.2675224034052721  0.45157846578482436  1.0000
  C   C445      1.0  0.5249997523447065  0.23968746219310127  0.4638976924275439  1.0000
  C   C446      1.0  0.4941871576544826  0.27055044641241927  0.43285241550263504  1.0000
  C   C447      1.0  0.5404869362626694  0.2748904989713062  0.42299815079646375  1.0000
  C   C448      1.0  0.521182807936607  0.28492611430451675  0.48641303669127983  1.0000
  H   H661      1.0  0.5444594651819022  0.23669523060797767  0.47819943548452426  1.0000
  H   H662      1.0  0.5248824144797706  0.22617979967215995  0.43798812397941417  1.0000
  H   H663      1.0  0.5098324521933089  0.23322722927204295  0.48499421492323963  1.0000
  H   H664      1.0  0.49034888697872153  0.29101012558486034  0.42141470579421425  1.0000
  H   H665      1.0  0.49256294600612954  0.256938351738348  0.40731872883023257  1.0000
  H   H666      1.0  0.47820936935802416  0.2660572261575039  0.4538823695107733  1.0000
  H   H667      1.0  0.5373771807774086  0.2956166799963728  0.4122698892969841  1.0000
  H   H668      1.0  0.5406406396765621  0.2618126342476886  0.3967346672603558  1.0000
  H   H669      1.0  0.5603495011043941  0.2732138314896962  0.43621409280997664  1.0000
  H   H670      1.0  0.5178831459323189  0.30606772362994533  0.477771482514335  1.0000
  H   H671      1.0  0.5406538627206833  0.2830203563202277  0.5010230666731665  1.0000
  H   H672      1.0  0.5059772783722738  0.28013111639698046  0.5085518145110303  1.0000
  N   N41       1.0  0.2652958474892766  0.7060091158503357  0.8578882308054385  1.0000
  C   C449      1.0  0.29268350366314033  0.7100361324370839  0.8691010534407049  1.0000
  C   C450      1.0  0.24746660474287618  0.7179385953165495  0.8879190175181281  1.0000
  C   C451      1.0  0.2610480227935641  0.6773701263217785  0.8552728692302574  1.0000
  C   C452      1.0  0.25995713112615126  0.7186260542464873  0.8190998152925261  1.0000
  H   H673      1.0  0.3065181674330122  0.7010221321848766  0.8469591539771376  1.0000
  H   H674      1.0  0.2974210805013555  0.7008208821556728  0.8982711014691886  1.0000
  H   H675      1.0  0.2966999099926735  0.7314253149397462  0.870855864433204  1.0000
  H   H676      1.0  0.2500971961606444  0.7395289657685407  0.8909369808130179  1.0000
  H   H677      1.0  0.22669295138874812  0.7154079445392514  0.8798745861977232  1.0000
  H   H678      1.0  0.2505013684063826  0.7086039360456379  0.9175003049818792  1.0000
  H   H679      1.0  0.24059894524160086  0.6736245356498419  0.8466843476298637  1.0000
  H   H680      1.0  0.26482394766810824  0.6671887973016369  0.8840201325291812  1.0000
  H   H681      1.0  0.27415360007892486  0.6677205143358019  0.8328003724241012  1.0000
  H   H682      1.0  0.2397415939078711  0.7153112475473579  0.8091694411830967  1.0000
  H   H683      1.0  0.27331694032193043  0.710450710510291  0.7958402511339222  1.0000
  H   H684      1.0  0.2622830977891093  0.7403434500182837  0.8200693237719655  1.0000
  N   N42       1.0  0.28742557689217446  0.7659090579770208  0.6295149912819749  1.0000
  C   C453      1.0  0.3062327566807763  0.7466015311698018  0.6478898397719118  1.0000
  C   C454      1.0  0.2608577290276765  0.76129608000155  0.644469771864174  1.0000
  C   C455      1.0  0.2879922211362386  0.7627205418207788  0.5861038055067586  1.0000
  C   C456      1.0  0.2945797165461413  0.7930608792822771  0.6395090402763987  1.0000
  H   H685      1.0  0.3062481201405587  0.7482483529589006  0.6807061480458018  1.0000
  H   H686      1.0  0.32657153442280007  0.7495448968537104  0.6376582995302577  1.0000
  H   H687      1.0  0.3014509432933172  0.7258725024506405  0.640752899168357  1.0000
  H   H688      1.0  0.25470423213627436  0.7410897806902098  0.6369798877111295  1.0000
  H   H689      1.0  0.2597641896870198  0.7631566519978455  0.6772096828821518  1.0000
  H   H690      1.0  0.24612870049702587  0.7755505761153837  0.6314505352368395  1.0000
  H   H691      1.0  0.2738255320540679  0.7767859617496413  0.571333486543117  1.0000
  H   H692      1.0  0.282792412884919  0.7424379439474875  0.5774375748337698  1.0000
  H   H693      1.0  0.3076962421465032  0.766165812542207  0.5738247232766639  1.0000
  H   H694      1.0  0.28076132687718036  0.8081610768832674  0.6262885449454225  1.0000
  H   H695      1.0  0.3144057756275342  0.7973570221864702  0.6282520536189597  1.0000
  H   H696      1.0  0.2945905011088004  0.7961855701466554  0.672052063804468  1.0000
  N   N43       1.0  0.7866331398975771  0.8170935526291289  0.9472014571953608  1.0000
  C   C457      1.0  0.7724250787530044  0.8207188969278326  0.9094748558817511  1.0000
  C   C458      1.0  0.7783986140601789  0.792711458639466  0.9670150852883244  1.0000
  C   C459      1.0  0.7807035916951088  0.8400501557016756  0.9730606247992026  1.0000
  C   C460      1.0  0.8150032585450787  0.814840458416945  0.9393431561528752  1.0000
  H   H697      1.0  0.7773024204898065  0.8396064916810717  0.8946596907295064  1.0000
  H   H698      1.0  0.7509013658739255  0.8216410409965534  0.9142887553733166  1.0000
  H   H699      1.0  0.7770529238742956  0.8042609301137644  0.8886138141770091  1.0000
  H   H700      1.0  0.7827239875931647  0.7749780689071202  0.9483735828893274  1.0000
  H   H701      1.0  0.7887734366126866  0.7895026079469877  0.9956442911355021  1.0000
  H   H702      1.0  0.7570543132408286  0.7937203599737639  0.9733438828438435  1.0000
  H   H703      1.0  0.7912026265193585  0.8381744263917222  0.0017593414240351102  1.0000
  H   H704      1.0  0.7594292657488309  0.8423329227914019  0.9795604979236594  1.0000
  H   H705      1.0  0.786428989040814  0.8588844381682976  0.9589398281213944  1.0000
  H   H706      1.0  0.8261781428968479  0.8111994410878165  0.9671110149356436  1.0000
  H   H707      1.0  0.8222012825226312  0.8332421277097702  0.9257184340992209  1.0000
  H   H708      1.0  0.8201971476467086  0.7981520059188456  0.9191265344047107  1.0000
  N   N44       1.0  0.6975219285214962  0.8286872356072841  0.18901389917243588  1.0000
  C   C461      1.0  0.7204709758777635  0.8200899508904178  0.16508042796019184  1.0000
  C   C462      1.0  0.7062717397259455  0.8434058747471203  0.22383372841763868  1.0000
  C   C463      1.0  0.6834292723235494  0.8053488101431563  0.20230074479151736  1.0000
  C   C464      1.0  0.6798895398061302  0.8459938613002098  0.16487721795663102  1.0000
  H   H709      1.0  0.7145699079927065  0.8090967624718197  0.1383703230580309  1.0000
  H   H710      1.0  0.734146135702304  0.8069065045505429  0.18240154508486572  1.0000
  H   H711      1.0  0.7315342201889324  0.8373620169063537  0.15481226461999964  1.0000
  H   H712      1.0  0.7165622227252185  0.8614679424365458  0.215033142099793  1.0000
  H   H713      1.0  0.6894818382668715  0.8499959200077508  0.2428131303796557  1.0000
  H   H714      1.0  0.7198895290643761  0.8311456533757738  0.2425204817560469  1.0000
  H   H715      1.0  0.6960474881792403  0.7918319875260615  0.2207826124614169  1.0000
  H   H716      1.0  0.6764020286298588  0.7937399796748736  0.1769290920337565  1.0000
  H   H717      1.0  0.6660372896570863  0.8112474109837514  0.22056955110409782  1.0000
  H   H718      1.0  0.6626212992484084  0.8533202481502739  0.1823132011116802  1.0000
  H   H719      1.0  0.6725218928665415  0.8355248344922742  0.13860201430076874  1.0000
  H   H720      1.0  0.6900408788755162  0.8635876955244062  0.1538420519607607  1.0000
  N   N45       1.0  0.5736915825402246  0.20732718290821492  0.8633043994297228  1.0000
  C   C465      1.0  0.5845876274139724  0.1801644386222301  0.8699707804555147  1.0000
  C   C466      1.0  0.587051266592187  0.21926329680180737  0.8292921163768028  1.0000
  C   C467      1.0  0.5777667730492284  0.22338261915561367  0.8989767645065279  1.0000
  C   C468      1.0  0.5454298422198943  0.20657448000869805  0.8548743273635073  1.0000
  H   H721      1.0  0.5746381050640089  0.17030793016602477  0.8949583609308879  1.0000
  H   H722      1.0  0.6057643485451026  0.18015627319818436  0.8772508593108558  1.0000
  H   H723      1.0  0.5826495680474598  0.1676991849643332  0.8431974174567631  1.0000
  H   H724      1.0  0.5797541798990896  0.2399933279652607  0.8239346544223337  1.0000
  H   H725      1.0  0.6083830088414951  0.21979272726999646  0.8341068524629479  1.0000
  H   H726      1.0  0.5843406806406737  0.20774861655130777  0.8017764305111313  1.0000
  H   H727      1.0  0.569800388208754  0.2440289328010781  0.8949852624480017  1.0000
  H   H728      1.0  0.5989140933363433  0.22441394954179908  0.9060160705097343  1.0000
  H   H729      1.0  0.5681056972817764  0.21486395872745448  0.925361244181521  1.0000
  H   H730      1.0  0.5367516450657862  0.2267100392460269  0.8484706018344002  1.0000
  H   H731      1.0  0.5345074973101189  0.1983008696147824  0.8802323343257863  1.0000
  H   H732      1.0  0.5416093682006676  0.1941695186253956  0.8285910088583929  1.0000
  N   N46       1.0  0.2099886110182625  0.278399426330333  0.9435860010561592  1.0000
  C   C469      1.0  0.2275702369264785  0.25449043716982295  0.942240029582443  1.0000
  C   C470      1.0  0.1880955705231946  0.27542821725694017  0.9158229158252204  1.0000
  C   C471      1.0  0.2245774043284432  0.30190151140212335  0.9323931416756865  1.0000
  C   C472      1.0  0.1996288235063599  0.28179386343369756  0.9840923350084148  1.0000
  H   H733      1.0  0.24419005006940675  0.2559198248095546  0.9631493013929314  1.0000
  H   H734      1.0  0.23583586167845105  0.25119124878452515  0.9121509086106923  1.0000
  H   H735      1.0  0.2171394704610694  0.2364169642759451  0.950743823580006  1.0000
  H   H736      1.0  0.19514891607705165  0.27302109486343873  0.8848744717182971  1.0000
  H   H737      1.0  0.17658439456560426  0.2579512574516189  0.9235169920668659  1.0000
  H   H738      1.0  0.17435482592209306  0.2930689548432961  0.9163893951596438  1.0000
  H   H739      1.0  0.23253787859693298  0.3002256983475395  0.901837758102009  1.0000
  H   H740      1.0  0.24113649597507503  0.30482191754904003  0.9528818899001659  1.0000
  H   H741      1.0  0.211765285227848  0.3202500098953706  0.9334115092785257  1.0000
  H   H742      1.0  0.1874717550513516  0.2650597653700566  0.9928643333099296  1.0000
  H   H743      1.0  0.18705660573432925  0.3000592027828238  0.9867724389102966  1.0000
  H   H744      1.0  0.21559886511595616  0.28334139907213013  0.006015593043131595  1.0000
  N   N47       1.0  0.36630542751200695  0.08727419843397699  0.9374201626174667  1.0000
  C   C473      1.0  0.3903741030675382  0.09006578237153946  0.9138823529209981  1.0000
  C   C474      1.0  0.36951620387162565  0.09978820666968498  0.9763373760920719  1.0000
  C   C475      1.0  0.36121781417553855  0.0589600814593858  0.9432208215222052  1.0000
  C   C476      1.0  0.3440494761973568  0.10043102697572708  0.9164140005891165  1.0000
  H   H745      1.0  0.38874545656808207  0.08079176542455398  0.8842874959072028  1.0000
  H   H746      1.0  0.4076440545967429  0.08067387947110986  0.9290499617267342  1.0000
  H   H747      1.0  0.3944556809521232  0.1113412092179126  0.909018293276966  1.0000
  H   H748      1.0  0.3514345511949782  0.09873121870303188  0.994248330790251  1.0000
  H   H749      1.0  0.38555715487737885  0.08993206640244826  0.9937472192374139  1.0000
  H   H750      1.0  0.3739674961395472  0.12103523337682656  0.9733325935806157  1.0000
  H   H751      1.0  0.37764565607438727  0.04838088890573186  0.9588982209121469  1.0000
  H   H752      1.0  0.3583757594647976  0.04882051540489977  0.9145346949341712  1.0000
  H   H753      1.0  0.3433072396756489  0.056347830652828404  0.9614273218519851  1.0000
  H   H754      1.0  0.3413795066318817  0.09187324399400677  0.8865448278530472  1.0000
  H   H755      1.0  0.34698780809057567  0.12198909662029826  0.9123938752468657  1.0000
  H   H756      1.0  0.32545364538388705  0.0983870719386259  0.933035516590454  1.0000
  N   N48       1.0  0.6486562824349761  0.9459614646183341  0.6634243750538761  1.0000
  C   C477      1.0  0.6700246433249978  0.940062183771632  0.6918215758499879  1.0000
  C   C478      1.0  0.6438228903742046  0.974874595451114  0.6603491708886  1.0000
  C   C479      1.0  0.624689407273966  0.9336551458894478  0.6774495774102448  1.0000
  C   C480      1.0  0.6559582625863212  0.9351915153854824  0.6241613968909872  1.0000
  H   H757      1.0  0.6649206399043838  0.9474265797410614  0.7219873824541205  1.0000
  H   H758      1.0  0.6884630356883851  0.9491154338269275  0.6825021893136766  1.0000
  H   H759      1.0  0.6741222058267172  0.9183817603429135  0.6949448203293155  1.0000
  H   H760      1.0  0.6381730556821812  0.9835279401746464  0.6895048999407202  1.0000
  H   H761      1.0  0.6615201214986275  0.9848431080812469  0.6498409935288808  1.0000
  H   H762      1.0  0.6277359566039996  0.9799103972757245  0.6392028213123454  1.0000
  H   H763      1.0  0.6277355545589104  0.9119129393480959  0.6794792682398252  1.0000
  H   H764      1.0  0.6080420439725505  0.9375302151739608  0.6568421654463175  1.0000
  H   H765      1.0  0.6188025526574453  0.9407009388478108  0.7074389075326856  1.0000
  H   H766      1.0  0.6400210905739954  0.9388549231732104  0.6022099375969541  1.0000
  H   H767      1.0  0.6596276337678689  0.9133590741139008  0.6253855937668961  1.0000
  H   H768      1.0  0.6738968451819447  0.9440387742604973  0.6123671784821406  1.0000
