data_image0
_chemical_formula_structural       FeS2FeS2FeSFeS3FeS2FeS2FeSFeS3FeS2FeS2FeSFeS3FeS2FeS2FeSFeS3FeS2FeS2FeSFeS3FeS2FeS2FeSFeS3C6H4C6H4C6H4C6H4C6H4C6H4C6H4C6H4C6H4C6H4C6H4C6H4FeS2FeS2FeSFeS3FeS2FeS2FeSFeS3FeS2FeS2FeSFeS3FeS2FeS2FeSFeS3FeS2FeS2FeSFeS3FeS2FeS2FeSFeS3C6H4C6H4C6H4C6H4C6H4C6H4C6H4C6H4C6H4C6H4C6H4C6H4NC4H12NC4H12NC4H12NC4H12NC4H12NC4H12NC4H12NC4H12NC4H12NC4H12NC4H12NC4H12NC4H12NC4H12NC4H12NC4H12NC4H12NC4H12NC4H12NC4H12NC4H12NC4H12NC4H12NC4H12
_chemical_formula_sum              "Fe48 S96 C240 H384 N24"
_cell_length_a       35.87201753851488
_cell_length_b       24.39020676418327
_cell_length_c       33.87945728451795
_cell_angle_alpha    90.15968040118925
_cell_angle_beta     71.5569061697755
_cell_angle_gamma    89.72161194045182

_space_group_name_H-M_alt    "P 1"
_space_group_IT_number       1

loop_
  _space_group_symop_operation_xyz
  'x, y, z'

loop_
  _atom_site_type_symbol
  _atom_site_label
  _atom_site_symmetry_multiplicity
  _atom_site_fract_x
  _atom_site_fract_y
  _atom_site_fract_z
  _atom_site_occupancy
  Fe  Fe1       1.0  0.3769692712639905  0.3074225474728209  0.6264978276247686  1.0000
  S   S1        1.0  0.4368485677363068  0.33448721254576635  0.5867184734808168  1.0000
  S   S2        1.0  0.36555736187627225  0.2516882507914423  0.6828471326536072  1.0000
  Fe  Fe2       1.0  0.33638993977818715  0.3591989369810487  0.5679805888862017  1.0000
  S   S3        1.0  0.3936167577774296  0.3864221919948615  0.5232443551494323  1.0000
  S   S4        1.0  0.28247750170361  0.3829780510789839  0.5507497275194027  1.0000
  Fe  Fe3       1.0  0.4172441046787345  0.3045559795511657  0.5336608716492139  1.0000
  S   S5        1.0  0.4610255350247201  0.2543746775747647  0.4838393328452574  1.0000
  Fe  Fe4       1.0  0.40687336809338953  0.4137100239388606  0.5804346516686731  1.0000
  S   S6        1.0  0.42539353743476543  0.5021138875596262  0.5763627210687591  1.0000
  S   S7        1.0  0.35867191396139814  0.2739366215332875  0.5734671468584965  1.0000
  S   S8        1.0  0.34844358932519526  0.3897815487324855  0.6251887951487348  1.0000
  Fe  Fe5       1.0  0.21185584667888302  0.6748204006647316  0.5228981750311225  1.0000
  S   S9        1.0  0.14896534916318313  0.6505822180394939  0.5531036814866686  1.0000
  S   S10       1.0  0.25882133135198365  0.6407653440762805  0.5477126435343778  1.0000
  Fe  Fe6       1.0  0.19225568136934704  0.7499659930941435  0.46025850834902066  1.0000
  S   S11       1.0  0.1282378383441704  0.7311128475083387  0.485415995720864  1.0000
  S   S12       1.0  0.21229747009240446  0.8038604431745657  0.40332671026265116  1.0000
  Fe  Fe7       1.0  0.135872076850486  0.7400343846979107  0.5481329537258574  1.0000
  S   S13       1.0  0.08642988706293464  0.7858634214347002  0.5943042248454231  1.0000
  Fe  Fe8       1.0  0.14722379506191954  0.6443909728065014  0.48766416175129956  1.0000
  S   S14       1.0  0.11917917138032148  0.577684400178042  0.46115636335401466  1.0000
  S   S15       1.0  0.19900527993209938  0.7656537504985682  0.5230311439040048  1.0000
  S   S16       1.0  0.21121741944744932  0.6617179916074745  0.4575328803159953  1.0000
  Fe  Fe9       1.0  0.20517637830029206  0.3583842251074367  0.015947486753598028  1.0000
  S   S17       1.0  0.14917333291035878  0.3945022204987734  0.05792430729136577  1.0000
  S   S18       1.0  0.264441421486989  0.3745675303297803  0.023224816289401096  1.0000
  Fe  Fe10      1.0  0.16423744607070992  0.30344544222071956  0.959900420527017  1.0000
  S   S19       1.0  0.10476812590826057  0.3353680903322841  0.9973981154547816  1.0000
  S   S20       1.0  0.17522494656163823  0.2579754929434884  0.8991725965284619  1.0000
  Fe  Fe11      1.0  0.1361877529292645  0.4140446582524321  0.999185935996209  1.0000
  S   S21       1.0  0.11780039752490679  0.4975125675891771  0.9847788344615747  1.0000
  Fe  Fe12      1.0  0.12350494100262235  0.3119763572651046  0.05259490357062058  1.0000
  S   S22       1.0  0.08067989591260129  0.2777025658333073  0.11116372950016945  1.0000
  S   S23       1.0  0.19428644550412486  0.38427872424004333  0.957304248709423  1.0000
  S   S24       1.0  0.18091585271702113  0.27376823777110637  0.014814630429639264  1.0000
  Fe  Fe13      1.0  0.3335322636918896  0.6473238323267391  0.0871443237822846  1.0000
  S   S25       1.0  0.37345292216648107  0.6365155808183355  0.021609150592910797  1.0000
  S   S26       1.0  0.28116615991539323  0.5935195585940523  0.11713838608306792  1.0000
  Fe  Fe14      1.0  0.37151614173898745  0.7552261655237383  0.09930860163398494  1.0000
  S   S27       1.0  0.4135461104465595  0.7534666349953001  0.03427178973963363  1.0000
  S   S28       1.0  0.3744861830811516  0.8314704641018444  0.13615722331073238  1.0000
  Fe  Fe15      1.0  0.36257096738674915  0.7261012802329574  0.014828021509851963  1.0000
  S   S29       1.0  0.34211649030149005  0.7541541535170747  0.9617104685141051  1.0000
  Fe  Fe16      1.0  0.420826900597576  0.6645733955948878  0.04729866865535315  1.0000
  S   S30       1.0  0.4837490896474779  0.6354564249266931  0.02562752947401914  1.0000
  S   S31       1.0  0.31950352684805744  0.7354594924633325  0.0787865243180412  1.0000
  S   S32       1.0  0.3818570850125438  0.6679590734076646  0.11393574420678793  1.0000
  Fe  Fe17      1.0  0.04164024562467254  0.05625992622405607  0.8397134294043717  1.0000
  S   S33       1.0  0.4540396251640232  0.10767509469592053  0.858062983497395  1.0000
  S   S34       1.0  0.04997355304551677  0.0754336263447194  0.9015442257642089  1.0000
  Fe  Fe18      1.0  0.07028445065136925  0.008222411593935552  0.7518370048215052  1.0000
  S   S35       1.0  0.480070265819543  0.0117420120160594  0.7859081140447486  1.0000
  S   S36       1.0  0.12453523397941006  0.9712953080895915  0.705817401463443  1.0000
  Fe  Fe19      1.0  0.4964259917849632  0.0990903045227427  0.7936606675128905  1.0000
  S   S37       1.0  0.5041817663555129  0.16863178540860904  0.7475205635322245  1.0000
  Fe  Fe20      1.0  0.44243263385927695  0.0182190799766635  0.8527874529306204  1.0000
  S   S38       1.0  0.3810455832477424  0.9847687409888487  0.8736246363800466  1.0000
  S   S39       1.0  0.06985424478119216  0.09364316786987506  0.7770355984276904  1.0000
  S   S40       1.0  0.048119251594922044  0.9704634878075079  0.8152075998885351  1.0000
  Fe  Fe21      1.0  0.46130023297710127  0.8910442691668777  0.30990428068869824  1.0000
  S   S41       1.0  0.0892229513475843  0.9513350476386107  0.27265358667514905  1.0000
  S   S42       1.0  0.4314414819291568  0.8160788318287425  0.29473489281462706  1.0000
  Fe  Fe22      1.0  0.4499203468968203  0.9899162924768262  0.3687334859677639  1.0000
  S   S43       1.0  0.06038527613893672  0.07149300908808708  0.3177685030083578  1.0000
  S   S44       1.0  0.40406931672593427  0.035716845728462766  0.4197102864125678  1.0000
  Fe  Fe23      1.0  0.0814344813415663  0.03752371853148222  0.25260766664445694  1.0000
  S   S45       1.0  0.12981244503713169  0.0749436294397209  0.20007280947699643  1.0000
  Fe  Fe24      1.0  0.06264662571470966  0.9840868964881172  0.33757224929189544  1.0000
  S   S46       1.0  0.07520298635126368  0.9655491830804824  0.39751127930858526  1.0000
  S   S47       1.0  0.43799968723701166  0.975875267943912  0.3085300412817919  1.0000
  S   S48       1.0  0.4668999377815499  0.9022084753452678  0.3737159389781355  1.0000
  C   C1        1.0  0.39174284323617287  0.8255179445297993  0.17917572542772084  1.0000
  C   C2        1.0  0.40929297273925885  0.8709644503576776  0.19141385167221825  1.0000
  C   C3        1.0  0.422500753895282  0.8679366062067657  0.22619736413372218  1.0000
  C   C4        1.0  0.41740307126583903  0.8197598301579712  0.24950415551632732  1.0000
  C   C5        1.0  0.3999006120203612  0.7742183993174548  0.23727406576849314  1.0000
  C   C6        1.0  0.3873014380368756  0.7769526959053162  0.20201552749641122  1.0000
  H   H1        1.0  0.41278400167069307  0.9086678773363941  0.17387992890016782  1.0000
  H   H2        1.0  0.4362030905650423  0.9031558736049636  0.23519811834839066  1.0000
  H   H3        1.0  0.39567875929732893  0.7369305092621101  0.25535950143391417  1.0000
  H   H4        1.0  0.3732014818706536  0.7420129401622906  0.19317161082192277  1.0000
  C   C7        1.0  0.3544454622454045  0.8187308838451073  0.9385560525418237  1.0000
  C   C8        1.0  0.3280190356435091  0.8438720006514101  0.9214673561848286  1.0000
  C   C9        1.0  0.3363065351076732  0.8953040219654117  0.9026603129482682  1.0000
  C   C10       1.0  0.37160095351651135  0.9215974361884937  0.8997166276783205  1.0000
  C   C11       1.0  0.39843826633140295  0.8964043160462025  0.9164837746686434  1.0000
  C   C12       1.0  0.3898195657936148  0.8449115124471569  0.936000964428215  1.0000
  H   H5        1.0  0.3007757067329994  0.8236736440130128  0.9230551916747676  1.0000
  H   H6        1.0  0.31549946235136384  0.9143870125203121  0.8896756344608479  1.0000
  H   H7        1.0  0.42570368644418327  0.9164593189097705  0.91450807178599  1.0000
  H   H8        1.0  0.4106205565379303  0.8252478607094927  0.9486793711226512  1.0000
  C   C13       1.0  0.09274001039669537  0.2176311546883487  0.13331635602574834  1.0000
  C   C14       1.0  0.12740427138582594  0.18839254874702452  0.11395947765916688  1.0000
  C   C15       1.0  0.13844799373037406  0.14434613813783953  0.13454152890775287  1.0000
  C   C16       1.0  0.11432616881874715  0.1282626452119917  0.17401316221641275  1.0000
  C   C17       1.0  0.07895604297472088  0.15616919900252324  0.19275512163555744  1.0000
  C   C18       1.0  0.06832119438157938  0.20095541195847488  0.17252204394511533  1.0000
  H   H9        1.0  0.14593582974056296  0.19992107007243118  0.0833529418620519  1.0000
  H   H10       1.0  0.1656134378940917  0.12243630298311677  0.11977783004657391  1.0000
  H   H11       1.0  0.060234539314154546  0.14404445835339977  0.2232531719229491  1.0000
  H   H12       1.0  0.04140602961609319  0.22327936893281855  0.18761883690557138  1.0000
  C   C19       1.0  0.14101036745645948  0.2062468454934696  0.9003572070182675  1.0000
  C   C20       1.0  0.11232711840803569  0.19209679700101495  0.9375973356692364  1.0000
  C   C21       1.0  0.0848770190716567  0.15116199874090858  0.9377990677344299  1.0000
  C   C22       1.0  0.08580324118663948  0.12463181759177412  0.9007558549604568  1.0000
  C   C23       1.0  0.11460065676168615  0.13861192704643693  0.8635408942097693  1.0000
  C   C24       1.0  0.142196241036878  0.17932863189996545  0.8633447534124032  1.0000
  H   H13       1.0  0.11137724629238252  0.21244158709052705  0.9663285184010321  1.0000
  H   H14       1.0  0.06272360657761089  0.14034877666790332  0.9667106721857405  1.0000
  H   H15       1.0  0.11590360941735595  0.1175371991096616  0.835020370785418  1.0000
  H   H16       1.0  0.1644134186178772  0.1898809090930431  0.8344862478675897  1.0000
  C   C25       1.0  0.07241207146816797  0.5189290390883667  0.01929405686023422  1.0000
  C   C26       1.0  0.05436356374975338  0.4898514819563946  0.0558433827241438  1.0000
  C   C27       1.0  0.536262159319625  0.5635899618473845  0.040287795021142436  1.0000
  C   C28       1.0  0.4970674424701646  0.5814829290196285  0.05277244814593751  1.0000
  C   C29       1.0  0.46980214591934294  0.557939317500222  0.0875710474572947  1.0000
  C   C30       1.0  0.05437746411597164  0.5661624562994165  0.010285576907308913  1.0000
  H   H17       1.0  0.06810300726425422  0.4532097563516213  0.06288009864216715  1.0000
  H   H18       1.0  0.5574714431350805  0.5819559298852996  0.013524036325782474  1.0000
  H   H19       1.0  0.439441469343325  0.5712115631089093  0.09722856298120315  1.0000
  H   H20       1.0  0.06811604385488962  0.5885362025836536  0.9819043837380174  1.0000
  C   C31       1.0  0.26900697376484345  0.43501792547318424  0.04980944479316807  1.0000
  C   C32       1.0  0.23675231576259836  0.4573864380478436  0.08069863518798424  1.0000
  C   C33       1.0  0.24113768205544672  0.5051180254384944  0.10200221729721405  1.0000
  C   C34       1.0  0.27752154122450295  0.5316795545364821  0.09175035481873839  1.0000
  C   C35       1.0  0.30976202441976797  0.5094375891415381  0.06080641070465753  1.0000
  C   C36       1.0  0.3056048820979936  0.4608112511809363  0.04027150548603897  1.0000
  H   H21       1.0  0.2085648313697026  0.4376900961079163  0.08857741621018644  1.0000
  H   H22       1.0  0.21616346034645526  0.5220680360650601  0.12607481281263308  1.0000
  H   H23       1.0  0.3380661108369161  0.5291481243060884  0.05312394836003298  1.0000
  H   H24       1.0  0.3307670377483907  0.44346345405902415  0.01666020036735305  1.0000
  C   C37       1.0  0.09998299744375806  0.8409721309936878  0.620260164528439  1.0000
  C   C38       1.0  0.13588303199866847  0.8409734557049556  0.6283280872401416  1.0000
  C   C39       1.0  0.14384146188504493  0.8822094260188896  0.6535883798705995  1.0000
  C   C40       1.0  0.11594349538070263  0.9233765758207104  0.6708016728082061  1.0000
  C   C41       1.0  0.08090271412432348  0.924615273000617  0.6610613790892627  1.0000
  C   C42       1.0  0.07280837965332067  0.8832993203849525  0.636133021711622  1.0000
  H   H25       1.0  0.15694848028759817  0.8082984903413761  0.6162860799296266  1.0000
  H   H26       1.0  0.17117784947837558  0.8813690594342043  0.6607327134760279  1.0000
  H   H27       1.0  0.059913781187346304  0.9572372997923575  0.6728986559791873  1.0000
  H   H28       1.0  0.04529110051082165  0.8839561258767129  0.6293672083901731  1.0000
  C   C43       1.0  0.1754056223352655  0.8508306660128604  0.4014328938291335  1.0000
  C   C44       1.0  0.174946654617584  0.8723193827297792  0.36318184922443864  1.0000
  C   C45       1.0  0.1443196491753763  0.9075952093836429  0.3613489865573181  1.0000
  C   C46       1.0  0.11460471902977408  0.9224165591074472  0.39794176182197766  1.0000
  C   C47       1.0  0.11572043284981173  0.9018690924159258  0.4361507956643495  1.0000
  C   C48       1.0  0.14580331072897  0.865909475480705  0.4378780307128416  1.0000
  H   H29       1.0  0.19784323821177285  0.8609321537932807  0.334855586086063  1.0000
  H   H30       1.0  0.143770624116331  0.9235480490955902  0.3317648007762383  1.0000
  H   H31       1.0  0.09298110315755144  0.9133895609478441  0.4645936977042057  1.0000
  H   H32       1.0  0.14623032032180747  0.8503989183815367  0.46762535064811467  1.0000
  C   C49       1.0  0.40454704779269135  0.22857704172451648  0.700134415045585  1.0000
  C   C50       1.0  0.44164777205300926  0.2527734724353662  0.6863001361711079  1.0000
  C   C51       1.0  0.471934770552957  0.2337534100450983  0.7009458362593419  1.0000
  C   C52       1.0  0.4654343736996161  0.1904373190551491  0.7294985609614099  1.0000
  C   C53       1.0  0.4283965792237968  0.1659784771555309  0.743201081080522  1.0000
  C   C54       1.0  0.3980917767181379  0.18499085221400713  0.7285221999424769  1.0000
  H   H33       1.0  0.4469471740638723  0.2866802974130974  0.6647862929261895  1.0000
  H   H34       1.0  0.5005195177261029  0.2529264618519388  0.6902464312651333  1.0000
  H   H35       1.0  0.4231224143186266  0.13244505259616898  0.7651199410725938  1.0000
  H   H36       1.0  0.36963055517508486  0.16560843789710913  0.739165857495473  1.0000
  C   C55       1.0  0.4445892366265615  0.19243217132324802  0.46848607072564763  1.0000
  C   C56       1.0  0.4045262355970125  0.18161921566107353  0.47733558610990456  1.0000
  C   C57       1.0  0.3923206874414471  0.1327543588795138  0.46315529699208635  1.0000
  C   C58       1.0  0.4200588110580275  0.09450506703755548  0.4400578971084417  1.0000
  C   C59       1.0  0.4600774443296263  0.10474149317786606  0.43223736374574573  1.0000
  C   C60       1.0  0.4723029444607251  0.15365922059399342  0.44620212816378646  1.0000
  H   H37       1.0  0.3829023036879736  0.2114932232862226  0.49407462659494145  1.0000
  H   H38       1.0  0.3612933714469697  0.12512568156978687  0.4693446585376577  1.0000
  H   H39       1.0  0.4816781917925344  0.07489910142640938  0.4155718801904185  1.0000
  H   H40       1.0  0.5033538904820111  0.16151914480667148  0.4395768968212182  1.0000
  C   C61       1.0  0.459199919725503  0.5213665714786677  0.6013688996151842  1.0000
  C   C62       1.0  0.023522370298787298  0.4852826899769529  0.514987076191308  1.0000
  C   C63       1.0  0.056721893916742046  0.5080475335258922  0.48576929542225467  1.0000
  C   C64       1.0  0.07544769325718402  0.5532937566006507  0.49653571882652076  1.0000
  C   C65       1.0  0.06036209449714904  0.5766629548325789  0.5361676503607274  1.0000
  C   C66       1.0  0.4798843817349946  0.48216531420594005  0.6163172477977924  1.0000
  H   H41       1.0  0.009573736046034842  0.44972350360973173  0.5067941509217126  1.0000
  H   H42       1.0  0.0682609584936945  0.4899457601785605  0.45507158543514026  1.0000
  H   H43       1.0  0.0742302113947078  0.6121675266673261  0.5444520197133087  1.0000
  H   H44       1.0  0.47313414853751823  0.43912817036930574  0.6153114833138404  1.0000
  C   C67       1.0  0.2756397777466856  0.4546151781092283  0.5499735559784321  1.0000
  C   C68       1.0  0.2863768802034392  0.48868437802739717  0.5777520622277856  1.0000
  C   C69       1.0  0.27953434028781976  0.5454043666677758  0.5779517224557295  1.0000
  C   C70       1.0  0.26259419822854363  0.5687828636015199  0.5498437509222254  1.0000
  C   C71       1.0  0.251766529435327  0.5347912190366445  0.5219900973848561  1.0000
  C   C72       1.0  0.25830622192078356  0.47781951891767377  0.5220903457743923  1.0000
  H   H45       1.0  0.29932185881181617  0.4712489905677095  0.5996899204451336  1.0000
  H   H46       1.0  0.28727526306188317  0.5710897578907592  0.6001789137369259  1.0000
  H   H47       1.0  0.2392644678660445  0.5525492158168276  0.4997358025666328  1.0000
  H   H48       1.0  0.2507609447208837  0.4517107288643944  0.4999524714099784  1.0000
  Fe  Fe25      1.0  0.917042433537423  0.2903072174862279  0.5785594891972718  1.0000
  S   S49       1.0  0.9730753464355522  0.3306868884483065  0.5416102146111132  1.0000
  S   S50       1.0  0.9213548430920521  0.20556232401931843  0.6038763490423625  1.0000
  Fe  Fe26      1.0  0.8658146060135233  0.37822819856868156  0.5544069930392715  1.0000
  S   S51       1.0  0.9185117316194226  0.42396899864679816  0.5149838299872892  1.0000
  S   S52       1.0  0.8030670264944595  0.4005129590001214  0.5581022380518551  1.0000
  Fe  Fe27      1.0  0.9439532862281494  0.3408545116135861  0.4925450404389041  1.0000
  S   S53       1.0  0.979121711576153  0.3222133512028317  0.42584718661795123  1.0000
  Fe  Fe28      1.0  0.9421072970927922  0.4090228137463627  0.5679753118535639  1.0000
  S   S54       1.0  0.9707093343862273  0.47607494979541004  0.5934359015567524  1.0000
  S   S55       1.0  0.8895971442965104  0.2957788406889014  0.5276113857535181  1.0000
  S   S56       1.0  0.8877420902411004  0.36809067622057207  0.6093887974293809  1.0000
  Fe  Fe29      1.0  0.6805618639762148  0.6606192066889306  0.5443394632304054  1.0000
  S   S57       1.0  0.6464166045229005  0.6824554243475484  0.6102853370285961  1.0000
  S   S58       1.0  0.7454188544170138  0.6408743343671327  0.5305234228391039  1.0000
  Fe  Fe30      1.0  0.610647977134867  0.6877488355571263  0.5128360950097919  1.0000
  S   S59       1.0  0.5716336938576094  0.7113599703083564  0.5766973326071912  1.0000
  S   S60       1.0  0.5837763613582233  0.687406988121963  0.4603489226979502  1.0000
  Fe  Fe31      1.0  0.6246760778394768  0.7545447980168376  0.5828170858479067  1.0000
  S   S61       1.0  0.6250724755027163  0.8423939660567642  0.6037844526840347  1.0000
  Fe  Fe32      1.0  0.5970539942939139  0.6370467333143164  0.5978798543413042  1.0000
  S   S62       1.0  0.5626518457149466  0.5736502371068511  0.6425804807770027  1.0000
  S   S63       1.0  0.6620833444045371  0.736332102397691  0.5170779772787004  1.0000
  S   S64       1.0  0.6327172803200395  0.6095728632449707  0.5336831621146172  1.0000
  Fe  Fe33      1.0  0.6793411032359663  0.39551927645703955  0.05629564994720404  1.0000
  S   S65       1.0  0.6385199874937206  0.38752644416745313  0.12186806485238293  1.0000
  S   S66       1.0  0.7399867600792744  0.43321617109753907  0.02933422190615631  1.0000
  Fe  Fe34      1.0  0.6279272886481116  0.3241352997574413  0.02010820070936803  1.0000
  S   S67       1.0  0.5823917967448333  0.310266808009014  0.08219197616103213  1.0000
  S   S68       1.0  0.6335865640220045  0.2895183773380662  0.9563191840418134  1.0000
  Fe  Fe35      1.0  0.5902865985434765  0.3999065054555874  0.0932669022673367  1.0000
  S   S69       1.0  0.5357251638768512  0.4485556127643328  0.12657878562318237  1.0000
  Fe  Fe36      1.0  0.6331690840230849  0.298610247821656  0.1066396363690794  1.0000
  S   S70       1.0  0.6406108452714215  0.2297912975658595  0.14837199725621045  1.0000
  S   S71       1.0  0.6314253776636428  0.41499466521589656  0.028862643926996112  1.0000
  S   S72       1.0  0.6782065038855255  0.30516787754270563  0.04365017623792  1.0000
  Fe  Fe37      1.0  0.8554472641489914  0.6873590799846121  0.06993209787603284  1.0000
  S   S73       1.0  0.9059270435113137  0.6356384028806287  0.03171679284555995  1.0000
  S   S74       1.0  0.7914001483279928  0.6627131531988066  0.08494942237195935  1.0000
  Fe  Fe38      1.0  0.9098298609214184  0.7716678301402996  0.09113655911727835  1.0000
  S   S75       1.0  0.9640115238343901  0.7254876408534574  0.05548607876220024  1.0000
  S   S76       1.0  0.9187225276768083  0.8543868117056956  0.11712824925731417  1.0000
  Fe  Fe39      1.0  0.9342240590080915  0.7158387122830874  0.0069147064982399975  1.0000
  S   S77       1.0  0.9745368163567356  0.7287893095082736  0.9417958250764299  1.0000
  Fe  Fe40      1.0  0.930928785480705  0.6501942588627924  0.08360322592702851  1.0000
  S   S78       1.0  0.9556219695721953  0.5788633523878198  0.10941865383175631  1.0000
  S   S79       1.0  0.8817265328643089  0.767163143867125  0.04048330949157375  1.0000
  S   S80       1.0  0.878721903097475  0.6970187402447177  0.1240281517934824  1.0000
  Fe  Fe41      1.0  0.5042397102323067  0.07998507793645551  0.8794003256322003  1.0000
  S   S81       1.0  0.9804119156157363  0.06718494155985176  0.8373086400037686  1.0000
  S   S82       1.0  0.5066054817967941  0.1190894372474812  0.9392621305180917  1.0000
  Fe  Fe42      1.0  0.5279811945622477  0.9898261638051693  0.8126141246018129  1.0000
  S   S83       1.0  0.010887246945796791  0.015111499454174337  0.7429755024785674  1.0000
  S   S84       1.0  0.5633062796924203  0.911687614611643  0.7938689502609789  1.0000
  Fe  Fe43      1.0  0.00872981488460045  0.09839993707261335  0.7724086086643619  1.0000
  S   S85       1.0  0.9914607403520949  0.1815242249777507  0.7535070573891771  1.0000
  Fe  Fe44      1.0  0.9886091317745436  0.9833217518013211  0.8086332119600668  1.0000
  S   S86       1.0  0.940710685708519  0.9204946672971642  0.8322774434176592  1.0000
  S   S87       1.0  0.5481257875720383  0.07673346706095008  0.8151627373860909  1.0000
  S   S88       1.0  0.4889437030932063  0.9909382999929249  0.8791542437370905  1.0000
  Fe  Fe45      1.0  0.02717137486422816  0.9402429768253018  0.27224794452940343  1.0000
  S   S89       1.0  0.5238313885409762  0.9127828050732456  0.27514654178592407  1.0000
  S   S90       1.0  0.0073019636463202975  0.859822351463649  0.25215766209469026  1.0000
  Fe  Fe46      1.0  0.0005160909503558742  0.0507581462951628  0.3149098732377169  1.0000
  S   S91       1.0  0.5112254826017619  0.019449142000124153  0.3381506160115996  1.0000
  S   S92       1.0  0.9457069216674108  0.10001719868922547  0.3461885655638631  1.0000
  Fe  Fe47      1.0  0.5010143562572102  0.9994776263729857  0.27773970380503304  1.0000
  S   S93       1.0  0.5048654187756207  0.05812466945328831  0.22470760021147995  1.0000
  Fe  Fe48      1.0  0.5279317559862092  0.9301481865147297  0.3392013535712549  1.0000
  S   S94       1.0  0.5782402776635744  0.9094830817040881  0.3635573314861879  1.0000
  S   S95       1.0  0.020997202987703467  0.02413494257783388  0.24784965888493762  1.0000
  S   S96       1.0  0.0011221126039981932  0.9656182867974918  0.3390332711779207  1.0000
  C   C73       1.0  0.9462411173827937  0.8544836852841157  0.1520148957617249  1.0000
  C   C74       1.0  0.9625611257728077  0.9036872709011222  0.16026965205589574  1.0000
  C   C75       1.0  0.9825721207630549  0.9054709933180978  0.18989472949107616  1.0000
  C   C76       1.0  0.985961424089081  0.8581468516311231  0.211782750646404  1.0000
  C   C77       1.0  0.9703542354400242  0.8087414508298696  0.20283984207222278  1.0000
  C   C78       1.0  0.9507538438337294  0.8067941913092088  0.1728823203627867  1.0000
  H   H49       1.0  0.9594683108384296  0.9406207592357838  0.14394817539315416  1.0000
  H   H50       1.0  0.995035175805545  0.943538164422333  0.19602300028642516  1.0000
  H   H51       1.0  0.9730240463592996  0.7718882635566356  0.2194790749321734  1.0000
  H   H52       1.0  0.9384021720973986  0.7686064193870384  0.16661126603322465  1.0000
  C   C79       1.0  0.9639970169269346  0.7833089272941729  0.9133865461261805  1.0000
  C   C80       1.0  0.9254580238245768  0.8007196659249823  0.9188702924587763  1.0000
  C   C81       1.0  0.9183889652193268  0.8431904103329848  0.8940442840910527  1.0000
  C   C82       1.0  0.9498590400382497  0.8695405112944892  0.8648753951356127  1.0000
  C   C83       1.0  0.9882774426422809  0.852828778363279  0.8605015725379944  1.0000
  C   C84       1.0  0.9952552326722612  0.809111568683597  0.8839326009299597  1.0000
  H   H53       1.0  0.9011155036807962  0.7804955362939467  0.9413401130471223  1.0000
  H   H54       1.0  0.8885204766357107  0.8556447036279795  0.8974843824669442  1.0000
  H   H55       1.0  0.012788038560662907  0.8717817549832915  0.8379115969271839  1.0000
  H   H56       1.0  0.025083405369473066  0.7954339254408923  0.8794046865559867  1.0000
  C   C85       1.0  0.6021516699457257  0.18355820587954963  0.17076479575790515  1.0000
  C   C86       1.0  0.5668699475950513  0.18609585748249363  0.1615511978801423  1.0000
  C   C87       1.0  0.5376404776787421  0.14677055280583942  0.17788454612468885  1.0000
  C   C88       1.0  0.5429918469750386  0.10549780793032806  0.20441359236409884  1.0000
  C   C89       1.0  0.5779406290926656  0.10344665150392655  0.21431187792110745  1.0000
  C   C90       1.0  0.607563397264386  0.14218987044891448  0.1972313748921386  1.0000
  H   H57       1.0  0.5621582118686425  0.21812135343960565  0.1416759377539131  1.0000
  H   H58       1.0  0.5105589233025541  0.14865938110478827  0.17024215419167577  1.0000
  H   H59       1.0  0.5823699249032338  0.07167479493895858  0.2346578507476444  1.0000
  H   H60       1.0  0.6348588755942239  0.1399793075398309  0.20443281292419851  1.0000
  C   C91       1.0  0.5976454709893836  0.24347802819744524  0.9511884006984697  1.0000
  C   C92       1.0  0.5632781796923633  0.23437033428786  0.9841888292854092  1.0000
  C   C93       1.0  0.5356504573756604  0.19617100537252158  0.9798913434079615  1.0000
  C   C94       1.0  0.542027539280276  0.16702169264606434  0.942553142304624  1.0000
  C   C95       1.0  0.5761510424483811  0.17653755364543242  0.9092801498299695  1.0000
  C   C96       1.0  0.603883529527641  0.21478232405777992  0.913612303067278  1.0000
  H   H61       1.0  0.5578361244822905  0.25694090864337443  0.012991762741082269  1.0000
  H   H62       1.0  0.5090966094853554  0.18929397789526353  0.0056196593078459145  1.0000
  H   H63       1.0  0.5814516129774866  0.15382726218534135  0.8805197701942729  1.0000
  H   H64       1.0  0.6305133349892077  0.22154669571601696  0.8879819755927016  1.0000
  C   C97       1.0  0.5210980480852013  0.498829791366401  0.09734487397748626  1.0000
  C   C98       1.0  0.5482297532253032  0.5221694300034655  0.062388009699672065  1.0000
  C   C99       1.0  0.018501995885048528  0.5085348289847824  0.08359402919957404  1.0000
  C   C100      1.0  0.00045880625636929295  0.5558337299392211  0.07454542603830139  1.0000
  C   C101      1.0  0.018261295826365487  0.5842792758666158  0.037658187873063076  1.0000
  C   C102      1.0  0.48193210702620903  0.5170793894575559  0.1100736704240778  1.0000
  H   H65       1.0  0.5785899462790309  0.5091519910183849  0.052881131999265696  1.0000
  H   H66       1.0  0.004767062711978687  0.4863132605277019  0.11203205284513418  1.0000
  H   H67       1.0  0.004338299375857613  0.6203753946526013  0.03016808847044028  1.0000
  H   H68       1.0  0.4608509808542603  0.49909797391939925  0.13712369563534763  1.0000
  C   C103      1.0  0.7529892710127731  0.49803425834507675  0.04434105851173897  1.0000
  C   C104      1.0  0.7272011295149886  0.5286847499051733  0.07653221106744233  1.0000
  C   C105      1.0  0.7391899832635693  0.5794121674957011  0.08830950294897828  1.0000
  C   C106      1.0  0.7770251529240484  0.5997490252966085  0.0682000145062478  1.0000
  C   C107      1.0  0.8026206221208996  0.5693336110171967  0.03568779168156766  1.0000
  C   C108      1.0  0.7906415583777043  0.5186984022933268  0.023829935165216032  1.0000
  H   H69       1.0  0.6981183286472005  0.5132352037564759  0.09252493275275181  1.0000
  H   H70       1.0  0.719146004096557  0.6028588235385641  0.11335545617709852  1.0000
  H   H71       1.0  0.831486212273371  0.5851550029099456  0.019405858431031264  1.0000
  H   H72       1.0  0.8106989659094967  0.49539917908061226  0.9987242149325082  1.0000
  C   C109      1.0  0.605649699548268  0.8600837356247384  0.6568221298061445  1.0000
  C   C110      1.0  0.5945217701295931  0.9146703214518485  0.6678412817131305  1.0000
  C   C111      1.0  0.5807888187637023  0.9307884316129795  0.7098584323473222  1.0000
  C   C112      1.0  0.5795620440213989  0.892739475715625  0.7409796075628762  1.0000
  C   C113      1.0  0.5910301727730964  0.8382155114679077  0.7299857982322587  1.0000
  C   C114      1.0  0.603154113669114  0.8215859360162041  0.6880575096518238  1.0000
  H   H73       1.0  0.5965496726552221  0.9446367676935056  0.6437586422443956  1.0000
  H   H74       1.0  0.5721149775047478  0.9729268410637404  0.7180791809744965  1.0000
  H   H75       1.0  0.5900131960719704  0.8086094560663809  0.7540277328725402  1.0000
  H   H76       1.0  0.6113262308582114  0.7793245613185824  0.6799072060618856  1.0000
  C   C115      1.0  0.5808640112004823  0.7503016406787901  0.435301277261636  1.0000
  C   C116      1.0  0.6031397357297779  0.7956693763892659  0.43926684259064736  1.0000
  C   C117      1.0  0.6018411923573641  0.8442385691964722  0.4173393457399497  1.0000
  C   C118      1.0  0.5775794326305788  0.8484500231001869  0.3920500966439964  1.0000
  C   C119      1.0  0.5545185814615102  0.8035224498913601  0.38887885775086284  1.0000
  C   C120      1.0  0.5565129212708442  0.7544532261871351  0.4100600696081687  1.0000
  H   H77       1.0  0.6220232676753636  0.7930682781849813  0.45852865123481135  1.0000
  H   H78       1.0  0.6197933573058808  0.8787191516318713  0.4199212508246723  1.0000
  H   H79       1.0  0.5359683447400407  0.8061558984256435  0.3692383662160007  1.0000
  H   H80       1.0  0.5393138583406738  0.7195645629653987  0.4066385437757264  1.0000
  C   C121      1.0  0.9416694737893364  0.19938392003693234  0.6448567701339244  1.0000
  C   C122      1.0  0.9511755110673736  0.24569952614586735  0.6640616717161406  1.0000
  C   C123      1.0  0.9665661936687717  0.23960196820818175  0.6972126946675485  1.0000
  C   C124      1.0  0.9729434252029876  0.18724379228962038  0.7111098570301166  1.0000
  C   C125      1.0  0.9639752392767414  0.14091371562690597  0.6914830759059731  1.0000
  C   C126      1.0  0.9482419127150229  0.14701409217195613  0.658567823900149  1.0000
  H   H81       1.0  0.9461750349106649  0.28622315351820626  0.6537499081678984  1.0000
  H   H82       1.0  0.97337387495999  0.27563075210366933  0.7122410169813531  1.0000
  H   H83       1.0  0.9686256530127507  0.10042122408971761  0.702025287354759  1.0000
  H   H84       1.0  0.9408458681464875  0.11101683348212138  0.6439466103438863  1.0000
  C   C127      1.0  0.9689584855153971  0.26107810345139665  0.4035705591434412  1.0000
  C   C128      1.0  0.9973503348341979  0.23922301691397294  0.3684175400073927  1.0000
  C   C129      1.0  0.9904832410025697  0.18968542313806286  0.350707089529352  1.0000
  C   C130      1.0  0.9547995325086085  0.16239710010790617  0.3675449384975083  1.0000
  C   C131      1.0  0.9259263595717125  0.18506801941840498  0.401955657502546  1.0000
  C   C132      1.0  0.9331533917752434  0.23395854521924836  0.4202312653874907  1.0000
  H   H85       1.0  0.024952128439923005  0.2602844696081192  0.3551002171295399  1.0000
  H   H86       1.0  0.012572575580677148  0.17313487495385654  0.32358360058259045  1.0000
  H   H87       1.0  0.8981524114939043  0.16430193462874723  0.41487020032632815  1.0000
  H   H88       1.0  0.9107972505994729  0.25083619547906366  0.4467931495128039  1.0000
  C   C133      1.0  0.009258483752375035  0.5075419589145742  0.555115630367958  1.0000
  C   C134      1.0  0.4678448093516173  0.5770744247757376  0.6030273206756961  1.0000
  C   C135      1.0  0.4987277942965146  0.5934464025951339  0.6172563238150435  1.0000
  C   C136      1.0  0.5205012940587616  0.5542277413271828  0.6306872343024571  1.0000
  C   C137      1.0  0.5103968936093829  0.4987087502979802  0.6313039893457596  1.0000
  C   C138      1.0  0.027505088393506627  0.5535051344787674  0.5655423748709605  1.0000
  H   H89       1.0  0.45160751974000507  0.6075710227117446  0.5919562873483581  1.0000
  H   H90       1.0  0.5060887424594956  0.6363623179522255  0.6172678136619532  1.0000
  H   H91       1.0  0.5272300885862192  0.4683504667845031  0.6417756032572711  1.0000
  H   H92       1.0  0.01637315544308593  0.570923078355051  0.5965061549292634  1.0000
  C   C139      1.0  0.7872594066140565  0.46834350653218676  0.5528479155213701  1.0000
  C   C140      1.0  0.8134168069692002  0.5124117922058511  0.5436638044790716  1.0000
  C   C141      1.0  0.8002152623224073  0.5650398207466182  0.536963953653141  1.0000
  C   C142      1.0  0.7606743489664091  0.5743351310188725  0.5400644752568461  1.0000
  C   C143      1.0  0.734401718738381  0.5304764197079429  0.5499321597887792  1.0000
  C   C144      1.0  0.7477311505358433  0.47769677313553666  0.555991766873839  1.0000
  H   H93       1.0  0.8438695200652951  0.5059256759912301  0.5414341560661458  1.0000
  H   H94       1.0  0.8207413460169288  0.5987163965905653  0.52943846179494  1.0000
  H   H95       1.0  0.7038650229207521  0.5370915371530546  0.5525733517063244  1.0000
  H   H96       1.0  0.7272600566569163  0.44392719640328415  0.563202545939616  1.0000
  N   N1        1.0  0.9920861346598145  0.9116532687488632  0.9886220686454023  1.0000
  C   C145      1.0  0.023839013952826678  0.8820589221368702  0.9569535951004404  1.0000
  C   C146      1.0  0.9535729988493039  0.8915316270360168  0.9876532381542699  1.0000
  C   C147      1.0  0.9952146990003388  0.9710547469104772  0.9795189678080537  1.0000
  C   C148      1.0  0.9956928872948131  0.9018090422769633  0.030307524302186417  1.0000
  H   H97       1.0  0.053330512208787775  0.8946204238721658  0.9578682511217672  1.0000
  H   H98       1.0  0.022902776654581687  0.8906700342434763  0.9250398042966261  1.0000
  H   H99       1.0  0.021288155365177207  0.836800352719589  0.9616634707428603  1.0000
  H   H100      1.0  0.9288634362777192  0.9116992043778821  0.012021049857987576  1.0000
  H   H101      1.0  0.9494354204434333  0.8992404259705957  0.956920794424363  1.0000
  H   H102      1.0  0.9507025840793376  0.8465282855010573  0.9933744297508992  1.0000
  H   H103      1.0  0.024114382586338415  0.9876045452191894  0.9795110444370828  1.0000
  H   H104      1.0  0.9718105364120599  0.994800268043983  0.002846802708515783  1.0000
  H   H105      1.0  0.9925169387612471  0.9799485210122689  0.9482601380531717  1.0000
  H   H106      1.0  0.9723298242245201  0.9239181294723955  0.0549433844232432  1.0000
  H   H107      1.0  0.02453628351433696  0.9157417583580286  0.032265661206018814  1.0000
  H   H108      1.0  0.9926614123881453  0.8574281644129859  0.03845865426054362  1.0000
  N   N2        1.0  0.5043640916339776  0.7061641828924798  0.1406160122644729  1.0000
  C   C149      1.0  0.46428653916646834  0.6993262004859992  0.13820513208359816  1.0000
  C   C150      1.0  0.5188411602724717  0.6530215947500199  0.1510851220358362  1.0000
  C   C151      1.0  0.5035531148804171  0.7472269567166333  0.17310579753166147  1.0000
  C   C152      1.0  0.53055695554291  0.7249287015043561  0.09985249177968378  1.0000
  H   H109      1.0  0.44358683511575714  0.6846517717015198  0.16818593018521344  1.0000
  H   H110      1.0  0.46397373514819307  0.6689961094792382  0.11378049414543298  1.0000
  H   H111      1.0  0.4523709990389519  0.7385611287006915  0.1302465967477576  1.0000
  H   H112      1.0  0.5201241157384017  0.6213356072020981  0.12691049899257292  1.0000
  H   H113      1.0  0.5489585626071252  0.6566160763366992  0.1535054386213759  1.0000
  H   H114      1.0  0.4993320452725027  0.636926357132317  0.1812251244779247  1.0000
  H   H115      1.0  0.48422749091448614  0.7340036081208379  0.20430726254003942  1.0000
  H   H116      1.0  0.49197551911286647  0.7875011810159974  0.16654343684155914  1.0000
  H   H117      1.0  0.5333874095816427  0.7541649820629881  0.17554979229811152  1.0000
  H   H118      1.0  0.5203515996990442  0.7647597158141198  0.09084695213543842  1.0000
  H   H119      1.0  0.5313595251359838  0.6948346745835083  0.07469386281588639  1.0000
  H   H120      1.0  0.5612322839836947  0.7302583468976144  0.10022936252793854  1.0000
  N   N3        1.0  0.2726425773801573  0.25334212081574287  0.7956732634292738  1.0000
  C   C153      1.0  0.24023933105410883  0.2938196410687382  0.8040052144329249  1.0000
  C   C154      1.0  0.2744430031535395  0.22122265340197428  0.7580377609563481  1.0000
  C   C155      1.0  0.26567079354021506  0.216015629268383  0.8315841397488042  1.0000
  C   C156      1.0  0.3101896010190692  0.28240008829085606  0.7890442573465292  1.0000
  H   H121      1.0  0.237470492972073  0.31807645154221664  0.8327397225695918  1.0000
  H   H122      1.0  0.2114623117687221  0.2733424774779149  0.8089198668291142  1.0000
  H   H123      1.0  0.24479230343510833  0.3230893089602228  0.777783366051871  1.0000
  H   H124      1.0  0.2466688776555261  0.19844859829256015  0.7620788478781592  1.0000
  H   H125      1.0  0.27960681201133714  0.2481571469635484  0.7303254222677611  1.0000
  H   H126      1.0  0.2989191999355058  0.1907741992541351  0.7504627348871017  1.0000
  H   H127      1.0  0.28975040514463235  0.1852522996980604  0.8266149013036531  1.0000
  H   H128      1.0  0.23761542345137063  0.1932133777291681  0.8374103051597643  1.0000
  H   H129      1.0  0.2633226742542583  0.23901973322975104  0.8607555558683971  1.0000
  H   H130      1.0  0.3096436794940309  0.30751224164178065  0.8167080066321339  1.0000
  H   H131      1.0  0.3167106690070088  0.3102525590194343  0.761701987190324  1.0000
  H   H132      1.0  0.33530668175706124  0.2531493242310452  0.7828527361286965  1.0000
  N   N4        1.0  0.45852803782566576  0.8226250621046723  0.7998303807540361  1.0000
  C   C157      1.0  0.4191049728829451  0.848186326512381  0.8110124726575451  1.0000
  C   C158      1.0  0.47694430703989277  0.8361082074994706  0.831970646150604  1.0000
  C   C159      1.0  0.4831574311356595  0.8437433455658155  0.7591254526801228  1.0000
  C   C160      1.0  0.4549262579249436  0.7624565011974452  0.7972875387432694  1.0000
  H   H133      1.0  0.40443606713504654  0.8396147041779325  0.7872523264649409  1.0000
  H   H134      1.0  0.420721174477601  0.8935933370284301  0.8139101126039001  1.0000
  H   H135      1.0  0.3996062091174204  0.8325096238901968  0.8412950729183902  1.0000
  H   H136      1.0  0.5073398581879506  0.819105621381165  0.8238414989088543  1.0000
  H   H137      1.0  0.4792540864990235  0.8812621940128534  0.835472034383868  1.0000
  H   H138      1.0  0.459733516408585  0.8196224969390902  0.8629266371922392  1.0000
  H   H139      1.0  0.46930829169652594  0.8369360107966187  0.7344361769625363  1.0000
  H   H140      1.0  0.5123491875899487  0.8231000343559803  0.7487614989093834  1.0000
  H   H141      1.0  0.48860921701386806  0.888515175365372  0.7606389270899604  1.0000
  H   H142      1.0  0.44144632102355713  0.7507179845841541  0.7730836310994968  1.0000
  H   H143      1.0  0.43629205191705145  0.7452740649928943  0.8275054022595333  1.0000
  H   H144      1.0  0.4842079479690518  0.7419093620823921  0.7892582884050579  1.0000
  N   N5        1.0  0.8554693358233636  0.49565548307978335  0.11549905695184036  1.0000
  C   C161      1.0  0.818564737888102  0.4671145624618107  0.11782031327125872  1.0000
  C   C162      1.0  0.846293678783921  0.5524156631158266  0.13106238825690855  1.0000
  C   C163      1.0  0.8814779698329455  0.4966812993371333  0.07183931355254457  1.0000
  C   C164      1.0  0.8756035962144135  0.46655638215213835  0.14127176143644762  1.0000
  H   H145      1.0  0.8242558507870104  0.4247050668065893  0.10504738460093903  1.0000
  H   H146      1.0  0.8021266984306918  0.4891760190129772  0.09977707346874097  1.0000
  H   H147      1.0  0.798598261475271  0.4645115863818574  0.15043055858701798  1.0000
  H   H148      1.0  0.8256593237528068  0.5535226229455823  0.16341166217021805  1.0000
  H   H149      1.0  0.8732521776413074  0.5746675435822609  0.13104572065661393  1.0000
  H   H150      1.0  0.8325355566003289  0.5763090119229942  0.11137669973194297  1.0000
  H   H151      1.0  0.9095364287195281  0.518199875794234  0.06898684606442622  1.0000
  H   H152      1.0  0.8673638272652227  0.5184610986512069  0.05146937432299881  1.0000
  H   H153      1.0  0.8891632796526633  0.4545873731475709  0.05907729700487052  1.0000
  H   H154      1.0  0.9037653103412032  0.4870179693431603  0.13976125526081815  1.0000
  H   H155      1.0  0.8828584415065116  0.42350675295860335  0.1305181632671952  1.0000
  H   H156      1.0  0.8571601450807983  0.4657164282276065  0.1745388330479114  1.0000
  N   N6        1.0  0.9954699117706214  0.13678857613641318  0.48976360770298216  1.0000
  C   C165      1.0  0.9529095786054427  0.14677946222731875  0.49870550836149774  1.0000
  C   C166      1.0  0.007020405148683739  0.15335312771273968  0.5262661571887953  1.0000
  C   C167      1.0  0.01760983992055065  0.16932093714909563  0.45318930390814083  1.0000
  C   C168      1.0  0.004251219086244484  0.07785491063322257  0.48084057381769363  1.0000
  H   H157      1.0  0.9429200155391865  0.13401518739597862  0.4721471365473557  1.0000
  H   H158      1.0  0.9454820740536438  0.19104547064934488  0.5049384569900879  1.0000
  H   H159      1.0  0.9352640661356043  0.12407690280154426  0.5268544113243672  1.0000
  H   H160      1.0  0.0006514664930004077  0.19762572343678986  0.5338197413294007  1.0000
  H   H161      1.0  0.9903840420476929  0.13014321067982426  0.5546176068409971  1.0000
  H   H162      1.0  0.03889028952735041  0.14622525642694317  0.520934234507387  1.0000
  H   H163      1.0  0.04986934848630242  0.1631784224829043  0.4456402222601739  1.0000
  H   H164      1.0  0.011319051690797721  0.21403170971444552  0.4584909308030484  1.0000
  H   H165      1.0  0.009745013902350497  0.15735627179112088  0.4250931420125867  1.0000
  H   H166      1.0  0.9959393344673804  0.06403778639932005  0.45337214411000865  1.0000
  H   H167      1.0  0.9880965430197589  0.0519680695190891  0.507758344103127  1.0000
  H   H168      1.0  0.03620466962097546  0.06880341882851701  0.4736529519539959  1.0000
  N   N7        1.0  0.17939522958744258  0.3166824986199492  0.16127164643312158  1.0000
  C   C169      1.0  0.16492497225357283  0.2683979945933256  0.1879470156240138  1.0000
  C   C170      1.0  0.21336822858978555  0.34049992235785276  0.17088540120587267  1.0000
  C   C171      1.0  0.14755108045828802  0.358011512869846  0.16899248654324028  1.0000
  C   C172      1.0  0.191689707490327  0.29983678298056454  0.11707962575783915  1.0000
  H   H169      1.0  0.1874394957687313  0.2351379589953975  0.18179389115837283  1.0000
  H   H170      1.0  0.13850479908825042  0.2506929136496047  0.18239700141052353  1.0000
  H   H171      1.0  0.15639808803122146  0.27917494459514236  0.2215700655021878  1.0000
  H   H172      1.0  0.22505034513712796  0.3769539786041485  0.15112554749353244  1.0000
  H   H173      1.0  0.20527186725930902  0.3538818274178641  0.2039696283480306  1.0000
  H   H174      1.0  0.23791954107789381  0.31030680982064607  0.16509189900648616  1.0000
  H   H175      1.0  0.15734916344844052  0.39500846587085947  0.1493823959857489  1.0000
  H   H176      1.0  0.13723456748443197  0.3714498931333166  0.20211259946457524  1.0000
  H   H177      1.0  0.1215935081862356  0.3412859775960512  0.1616025762973387  1.0000
  H   H178      1.0  0.20509767968722792  0.3344073290264439  0.09619521754422636  1.0000
  H   H179      1.0  0.16622188033294627  0.28554502875532667  0.10797102744590138  1.0000
  H   H180      1.0  0.21377381142625174  0.2660180653754051  0.1103973772391947  1.0000
  N   N8        1.0  0.7225866082510778  0.41651912607276587  0.913298616656199  1.0000
  C   C173      1.0  0.7280718492977416  0.36982853300358676  0.9386391868943509  1.0000
  C   C174      1.0  0.7543127026717594  0.41596970142107265  0.8728703231858613  1.0000
  C   C175      1.0  0.7238972789537551  0.4684464999927078  0.9354789144898485  1.0000
  C   C176      1.0  0.6840973820574431  0.41164188086468084  0.9062576434376536  1.0000
  H   H181      1.0  0.7267062077293205  0.3297898513578176  0.923299749970809  1.0000
  H   H182      1.0  0.7047338141849564  0.3693886524998824  0.9693079463838572  1.0000
  H   H183      1.0  0.7566418454634503  0.37216946454882677  0.9450092727911035  1.0000
  H   H184      1.0  0.7837313608663329  0.4194896666477725  0.8771834156370729  1.0000
  H   H185      1.0  0.7541932805787726  0.37722852037177473  0.8554171614621412  1.0000
  H   H186      1.0  0.751114339203135  0.4506567121463629  0.8528693029974882  1.0000
  H   H187      1.0  0.7004862701308462  0.4700952911288985  0.9662795195511025  1.0000
  H   H188      1.0  0.7198927202081128  0.5047355155193904  0.9173929805105967  1.0000
  H   H189      1.0  0.7523749494735381  0.47309520224344526  0.9418166876020889  1.0000
  H   H190      1.0  0.6788222494398005  0.4460705208484025  0.8871864812904583  1.0000
  H   H191      1.0  0.659510672573849  0.4116770712294715  0.9361822565935264  1.0000
  H   H192      1.0  0.6819067056890196  0.37248408245019904  0.8901332774855262  1.0000
  N   N9        1.0  0.3214853956248798  0.8850516818707936  0.3647527396193653  1.0000
  C   C177      1.0  0.31637895445066117  0.8265859732363606  0.3561019255656556  1.0000
  C   C178      1.0  0.33639446246080235  0.9149670630917288  0.3250163741037789  1.0000
  C   C179      1.0  0.34997333289727345  0.8899341465815965  0.3879893082789768  1.0000
  C   C180      1.0  0.2832357506980534  0.9086663593480563  0.38979070735350646  1.0000
  H   H193      1.0  0.3446655253130472  0.8073904901543791  0.3371782421287451  1.0000
  H   H194      1.0  0.29494724011927564  0.8214449910075735  0.33870889916374847  1.0000
  H   H195      1.0  0.3048723898671816  0.8027493477392745  0.38540178674285164  1.0000
  H   H196      1.0  0.3404726941320277  0.9592799890771034  0.3303014899181165  1.0000
  H   H197      1.0  0.3653564415264762  0.8983165568670217  0.3056198152421023  1.0000
  H   H198      1.0  0.31592273191333575  0.9115470225953303  0.3063645273172341  1.0000
  H   H199      1.0  0.37901096453547456  0.8718369355704401  0.3701052102827816  1.0000
  H   H200      1.0  0.339498629224703  0.8683096785152702  0.4183511077061072  1.0000
  H   H201      1.0  0.35507510787642144  0.9336132696317422  0.39452377067167227  1.0000
  H   H202      1.0  0.2707069145875583  0.88622751513708  0.4196417721516672  1.0000
  H   H203      1.0  0.2611247983961369  0.9059856749525953  0.37301240817639714  1.0000
  H   H204      1.0  0.2859721436606213  0.9525452075776892  0.3974599934115707  1.0000
  N   N10       1.0  0.3272167479341089  0.9184133834569461  0.05206881517803241  1.0000
  C   C181      1.0  0.36269410660967677  0.8838712078162111  0.03538920731657291  1.0000
  C   C182      1.0  0.2974391690747585  0.8881449691501395  0.08495680471579714  1.0000
  C   C183      1.0  0.3111750602925549  0.9321492707002637  0.018098273991278946  1.0000
  C   C184      1.0  0.3377140502521537  0.9692653018999162  0.06980113724843995  1.0000
  H   H205      1.0  0.3853610052133286  0.9046744344173059  0.009625020999984413  1.0000
  H   H206      1.0  0.3555427309404339  0.8441194344261811  0.023352327475915535  1.0000
  H   H207      1.0  0.37647662505403184  0.8742697875900808  0.05968199541270036  1.0000
  H   H208      1.0  0.27049924886259014  0.9133414316304537  0.09894245308929484  1.0000
  H   H209      1.0  0.28841545179227734  0.8499531056703686  0.07244730738636607  1.0000
  H   H210      1.0  0.3090156457728711  0.875869185524065  0.11057267693855044  1.0000
  H   H211      1.0  0.30300898839380375  0.8944715360834267  0.004155942774920485  1.0000
  H   H212      1.0  0.33304127343707696  0.9545291716068457  0.992469114906567  1.0000
  H   H213      1.0  0.28440000084751416  0.9583839154767697  0.029406249837430343  1.0000
  H   H214      1.0  0.3116427725256452  0.996468098650189  0.08268549195358066  1.0000
  H   H215      1.0  0.36033996491329545  0.9929030860267783  0.04582419811542815  1.0000
  H   H216      1.0  0.3498919036454909  0.9599413507215134  0.09554842038034117  1.0000
  N   N11       1.0  0.887267858008128  0.9635674603230946  0.28768791466801363  1.0000
  C   C185      1.0  0.9199178924239038  0.9324620578907004  0.2949460048117753  1.0000
  C   C186      1.0  0.8913640538523832  0.9620987543012381  0.24288545315291973  1.0000
  C   C187      1.0  0.8884697355226362  0.021056219016651  0.30114880574715974  1.0000
  C   C188      1.0  0.8494824883777996  0.9385925387888745  0.31174275877131324  1.0000
  H   H217      1.0  0.9181651897283256  0.9330303567159788  0.32832616091351885  1.0000
  H   H218      1.0  0.9488808369366978  0.9499814044679658  0.27702804122681945  1.0000
  H   H219      1.0  0.9201714403026228  0.8887832238466787  0.2851384233114164  1.0000
  H   H220      1.0  0.8918683152870929  0.9191576889385674  0.23130507890757798  1.0000
  H   H221      1.0  0.8667238737614984  0.9839795452111133  0.23627106987385174  1.0000
  H   H222      1.0  0.9191700758008343  0.9818474252048413  0.22396422897604398  1.0000
  H   H223      1.0  0.8644798089894756  0.04615108404660462  0.29598352080707324  1.0000
  H   H224      1.0  0.9168802290469763  0.04086363079704025  0.28385140416284554  1.0000
  H   H225      1.0  0.8856216294860028  0.023780938211852787  0.3348118662196235  1.0000
  H   H226      1.0  0.8455801726173976  0.9387567482473589  0.34568097649628726  1.0000
  H   H227      1.0  0.8477655887892017  0.8951979564004036  0.30209674642790885  1.0000
  H   H228      1.0  0.8241289966284172  0.9611339091417251  0.30711789951777585  1.0000
  N   N12       1.0  0.5027992742953482  0.27073991355076144  0.849846062482672  1.0000
  C   C189      1.0  0.4714279376023653  0.2669914057230594  0.8302685417759389  1.0000
  C   C190      1.0  0.48702537398302365  0.2548384972727743  0.8941124643188231  1.0000
  C   C191      1.0  0.5174241660109454  0.3276219841079569  0.8468935165054103  1.0000
  C   C192      1.0  0.5354427030634593  0.23344482293206043  0.828030630263761  1.0000
  H   H229      1.0  0.482521205134307  0.27804700727111414  0.7966716315559687  1.0000
  H   H230      1.0  0.44624331235390635  0.2945804734942767  0.845795891629436  1.0000
  H   H231      1.0  0.4599095216418722  0.22449849207732245  0.8317351634933671  1.0000
  H   H232      1.0  0.5098385022453279  0.257878127385499  0.9099318983581417  1.0000
  H   H233      1.0  0.4618693552100434  0.2814166222394777  0.9115315939355714  1.0000
  H   H234      1.0  0.47652463575733683  0.21165329234719255  0.897568520038797  1.0000
  H   H235      1.0  0.4935343934211616  0.3569250938685538  0.8630630763713285  1.0000
  H   H236      1.0  0.5296373586774076  0.34082679361635426  0.8138616703145527  1.0000
  H   H237      1.0  0.5411667001537829  0.3317813319887807  0.8613818653707365  1.0000
  H   H238      1.0  0.5474228557370419  0.243101927311573  0.7942396934855677  1.0000
  H   H239      1.0  0.5254293920340798  0.19021051569641895  0.8302850406523832  1.0000
  H   H240      1.0  0.559989692744081  0.23564353266301727  0.8414366546505366  1.0000
  N   N13       1.0  0.005923708051569498  0.795565559016866  0.7389043570817397  1.0000
  C   C193      1.0  0.9624994221544267  0.7976405521742262  0.7530399034732924  1.0000
  C   C194      1.0  0.01946326661705222  0.7600748752102872  0.7670057925645758  1.0000
  C   C195      1.0  0.021351777692815155  0.8515590221186531  0.739328683371638  1.0000
  C   C196      1.0  0.020489935346102772  0.7730417396819905  0.6961786133758117  1.0000
  H   H241      1.0  0.9506715296248739  0.8144201251394  0.7852884914322732  1.0000
  H   H242      1.0  0.9497060423912782  0.7561973816045943  0.753013758385289  1.0000
  H   H243      1.0  0.9513879360131574  0.8246587642696162  0.7327388436746177  1.0000
  H   H244      1.0  0.008094081794482344  0.7747920843763951  0.7997110527370415  1.0000
  H   H245      1.0  0.009187741671272454  0.7171717753015224  0.7665849170199661  1.0000
  H   H246      1.0  0.05213610466175944  0.7591159591395273  0.757988204646141  1.0000
  H   H247      1.0  0.011998252379838314  0.8792031098829517  0.7180999783535035  1.0000
  H   H248      1.0  0.054071170532259405  0.8517665183241571  0.7295244183430653  1.0000
  H   H249      1.0  0.010339843373515789  0.8704334322159116  0.7707401884197117  1.0000
  H   H250      1.0  0.0531878262419081  0.7704019189512917  0.6848895511994395  1.0000
  H   H251      1.0  0.01169858663700829  0.7992406981470399  0.6737068114758843  1.0000
  H   H252      1.0  0.00912615217796131  0.7311121248956346  0.6942659884394654  1.0000
  N   N14       1.0  0.03240720297991628  0.2528099744825372  0.8439922851936856  1.0000
  C   C197      1.0  0.0654247451499661  0.23825570076520672  0.8064732001685827  1.0000
  C   C198      1.0  0.007564034664286456  0.2949601870384789  0.8331794029896921  1.0000
  C   C199      1.0  0.047994576136876965  0.27420350704436347  0.876507328789791  1.0000
  C   C200      1.0  0.008578085438842642  0.2035523223211033  0.8596827469730063  1.0000
  H   H253      1.0  0.08464759259598109  0.20629315310348717  0.8133890442540928  1.0000
  H   H254      1.0  0.08402264435362206  0.2744211682586076  0.79367747090554  1.0000
  H   H255      1.0  0.05464916034602396  0.22167188817467023  0.7813929460789938  1.0000
  H   H256      1.0  0.9820626652465865  0.3064814357722337  0.8606230415667155  1.0000
  H   H257      1.0  0.02449675065392798  0.3328410668126836  0.8212667372428795  1.0000
  H   H258      1.0  0.9956068737274401  0.27973429804939054  0.8085035021214294  1.0000
  H   H259      1.0  0.02391383101882294  0.28596401246251574  0.905211348923196  1.0000
  H   H260      1.0  0.06671864404974892  0.3108944939655417  0.865653130288886  1.0000
  H   H261      1.0  0.06633793574540103  0.24286695384947884  0.8856850183328647  1.0000
  H   H262      1.0  0.9840680364754782  0.21234265909610314  0.8887232751478779  1.0000
  H   H263      1.0  0.026640431194607794  0.17010573896535058  0.8666834052737259  1.0000
  H   H264      1.0  0.995436489767851  0.18727385852009748  0.8363972171881917  1.0000
  N   N15       1.0  0.6169716570639338  0.11754239388118716  0.04200568504790403  1.0000
  C   C201      1.0  0.6109625061420043  0.17682484944423535  0.05079807187689456  1.0000
  C   C202      1.0  0.5977404477432168  0.10144341561650727  0.011049150330635138  1.0000
  C   C203      1.0  0.5997039036250588  0.08648972387025622  0.08090704861657216  1.0000
  C   C204      1.0  0.6595659214260198  0.10577395483596048  0.025327030735712075  1.0000
  H   H265      1.0  0.6250259781404782  0.19040403679310128  0.0741000888874066  1.0000
  H   H266      1.0  0.5791514587521315  0.18738152068255567  0.0633476237564019  1.0000
  H   H267      1.0  0.6238912270088904  0.2016472764192055  0.022240604902319827  1.0000
  H   H268      1.0  0.6018314957643854  0.056987104459371246  0.003335733306167654  1.0000
  H   H269      1.0  0.565519932337373  0.10975969393097236  0.022713026499198596  1.0000
  H   H270      1.0  0.6097872770835081  0.12464942028075271  0.9814764809895136  1.0000
  H   H271      1.0  0.6135750135533222  0.09779839990556302  0.10494764634046172  1.0000
  H   H272      1.0  0.6035857709943714  0.04149606690407962  0.07557380818206005  1.0000
  H   H273      1.0  0.5676172633587873  0.09483397791340237  0.0945951901453832  1.0000
  H   H274      1.0  0.6653742609116309  0.061327720209666065  0.018413284950778763  1.0000
  H   H275      1.0  0.674865317798793  0.11793732448918237  0.047962023050212466  1.0000
  H   H276      1.0  0.6734724376176486  0.12876010359342832  0.9960161926739943  1.0000
  N   N16       1.0  0.1370370841945282  0.4452485602413375  0.556393248543169  1.0000
  C   C205      1.0  0.16052585684682488  0.4074095689447018  0.5732413605457269  1.0000
  C   C206      1.0  0.15269830129374326  0.44527711053534375  0.5104357557961736  1.0000
  C   C207      1.0  0.13914436716787454  0.5013291836416807  0.572184199451186  1.0000
  C   C208      1.0  0.09565324469184142  0.42713901877503163  0.5696539307655841  1.0000
  H   H277      1.0  0.14946481016595342  0.4064338017570833  0.6078402368727402  1.0000
  H   H278      1.0  0.1919071635563965  0.4198297284389283  0.5640528567753287  1.0000
  H   H279      1.0  0.15986056816344216  0.3647654668344585  0.5617069967603371  1.0000
  H   H280      1.0  0.1351228009081148  0.47267359409113796  0.4967705418364891  1.0000
  H   H281      1.0  0.18348570039228818  0.4602647218282626  0.49925454545896425  1.0000
  H   H282      1.0  0.1522454271117808  0.4035300082365995  0.49729676110948645  1.0000
  H   H283      1.0  0.12226523433170361  0.5309220062721062  0.5593982587054602  1.0000
  H   H284      1.0  0.16999115193924072  0.5161853838017316  0.563209433441308  1.0000
  H   H285      1.0  0.12689404433549892  0.5033669835616472  0.6067014209275967  1.0000
  H   H286      1.0  0.07721936843185662  0.4547908497442648  0.5574353285406421  1.0000
  H   H287      1.0  0.08253834092703922  0.42710547040586644  0.6041445240544183  1.0000
  H   H288      1.0  0.09275434406642652  0.3850995726480582  0.5581499725918685  1.0000
  N   N17       1.0  0.4405578675797324  0.12689100718899343  0.5904039336605047  1.0000
  C   C209      1.0  0.45156501600001075  0.0934015132066415  0.5519142482077878  1.0000
  C   C210      1.0  0.4669788826114206  0.11385597701535492  0.6149360463588845  1.0000
  C   C211      1.0  0.3994811376913478  0.1151270128537706  0.6153903266896498  1.0000
  C   C212      1.0  0.4440611344143103  0.18556591851882046  0.5793523701859775  1.0000
  H   H289      1.0  0.43173305738037926  0.10175245430891887  0.5330600542090451  1.0000
  H   H290      1.0  0.44994740829066276  0.04874718853428342  0.5588829988288446  1.0000
  H   H291      1.0  0.4820417379027535  0.10238259059799606  0.5317226392021591  1.0000
  H   H292      1.0  0.4593970868213767  0.1385721631138677  0.6441677170610159  1.0000
  H   H293      1.0  0.46516217312087627  0.0698452799842954  0.6239042547639778  1.0000
  H   H294      1.0  0.4981867669838767  0.12267208115262582  0.5970717439184097  1.0000
  H   H295      1.0  0.3955531781925876  0.07111904881276239  0.624216338283448  1.0000
  H   H296      1.0  0.37875458835642445  0.12521936495886923  0.5979050313323997  1.0000
  H   H297      1.0  0.3902351416074123  0.13988012811278588  0.6446070011003786  1.0000
  H   H298      1.0  0.4358296011709216  0.21214000117728488  0.6075571814874031  1.0000
  H   H299      1.0  0.4244448397365668  0.19666889629147333  0.5609448588460848  1.0000
  H   H300      1.0  0.4745392549390551  0.19629672770522577  0.5601566130371529  1.0000
  N   N18       1.0  0.742200393327426  0.786018683580169  0.6055676390193399  1.0000
  C   C213      1.0  0.7538757276479876  0.7293317714852093  0.6120428841447615  1.0000
  C   C214      1.0  0.7322237869555495  0.7883930516958731  0.5665222286567131  1.0000
  C   C215      1.0  0.7750465874347382  0.8236989004234728  0.6027866888659663  1.0000
  C   C216      1.0  0.7075222425058666  0.8026372343444328  0.6407479974535143  1.0000
  H   H301      1.0  0.761886716753912  0.7257365147431956  0.6410703971972237  1.0000
  H   H302      1.0  0.7794232551503606  0.7149861589755575  0.5855530449095345  1.0000
  H   H303      1.0  0.7296685207478583  0.6998377467225372  0.6142799107511251  1.0000
  H   H304      1.0  0.7221525879782043  0.8301008418707049  0.5609369855890238  1.0000
  H   H305      1.0  0.7575375978080875  0.776083613737528  0.5390949790556996  1.0000
  H   H306      1.0  0.7079985505797354  0.7598438431260989  0.5676836609983749  1.0000
  H   H307      1.0  0.8016315295795323  0.8122442490497503  0.57647411659098  1.0000
  H   H308      1.0  0.7832833062945753  0.8230585908654311  0.6318229077606133  1.0000
  H   H309      1.0  0.7670747684968927  0.8667241288818117  0.5977411433981609  1.0000
  H   H310      1.0  0.713775236857852  0.8018432038829276  0.6708692625069761  1.0000
  H   H311      1.0  0.6822819892577943  0.7749271996257617  0.643659677219027  1.0000
  H   H312      1.0  0.6973138832050965  0.8447877744749857  0.6364314379384929  1.0000
  N   N19       1.0  0.8503696415778099  0.3895555443824128  0.42703193862313527  1.0000
  C   C217      1.0  0.8448884027788824  0.4425927410444536  0.44941275707692063  1.0000
  C   C218      1.0  0.8925163730042915  0.374600218442185  0.41299602533702323  1.0000
  C   C219      1.0  0.8363102945882861  0.39434233431782584  0.39063664870477843  1.0000
  C   C220      1.0  0.8278134468988645  0.3466708850536163  0.45523228094901996  1.0000
  H   H313      1.0  0.8133185316660235  0.4548556009304739  0.4612883956322238  1.0000
  H   H314      1.0  0.8613308426634071  0.47615414492620795  0.42925205945286654  1.0000
  H   H315      1.0  0.8554497762959578  0.4402913525945675  0.4768890757055528  1.0000
  H   H316      1.0  0.8980343572873002  0.334741630214598  0.39597159613316235  1.0000
  H   H317      1.0  0.910787065534603  0.4061497075747455  0.3920683490848117  1.0000
  H   H318      1.0  0.9038222182750741  0.37043691885451185  0.4398574319262214  1.0000
  H   H319      1.0  0.8045507657017549  0.40556043773776684  0.4003212903105178  1.0000
  H   H320      1.0  0.8401555818360863  0.35499969935362624  0.3729983823470217  1.0000
  H   H321      1.0  0.852753215077602  0.4264497225533947  0.36879934121941327  1.0000
  H   H322      1.0  0.8306353310243434  0.30617790750538876  0.4393183030779517  1.0000
  H   H323      1.0  0.7960305154611911  0.35751511792950447  0.46791012818072814  1.0000
  H   H324      1.0  0.8383273177003373  0.3413026902433038  0.4825463366908031  1.0000
  N   N20       1.0  0.38571093360675407  0.6272305218732607  0.5148661207817153  1.0000
  C   C221      1.0  0.3741176591508219  0.5737609994798043  0.5018053300820978  1.0000
  C   C222      1.0  0.3730960123089005  0.6717841880196482  0.49232641069378846  1.0000
  C   C223      1.0  0.4288726126359308  0.6286216142681308  0.5052845438108727  1.0000
  C   C224      1.0  0.3666547859387672  0.6347608415440031  0.5601219009879361  1.0000
  H   H325      1.0  0.38117481118330926  0.5392688853120897  0.5198347447965244  1.0000
  H   H326      1.0  0.38919933829083636  0.565504327327024  0.46822502445244796  1.0000
  H   H327      1.0  0.34198603559902924  0.5723546669760143  0.5067783096135381  1.0000
  H   H328      1.0  0.3812082732743179  0.7127484972210201  0.5015486448756835  1.0000
  H   H329      1.0  0.3867180512914368  0.6673774872239979  0.4580525735439233  1.0000
  H   H330      1.0  0.3405607482731234  0.6718099169999954  0.49906178787444594  1.0000
  H   H331      1.0  0.4391753657318268  0.5950854809435788  0.5215629309398953  1.0000
  H   H332      1.0  0.4386547969695897  0.6681054811817585  0.5152493708447953  1.0000
  H   H333      1.0  0.4442251913625266  0.6237625588373162  0.4713390148079385  1.0000
  H   H334      1.0  0.37618552824319684  0.6733750802719274  0.5714988078859153  1.0000
  H   H335      1.0  0.37367029188538087  0.6001817561787091  0.5781045972032988  1.0000
  H   H336      1.0  0.3341227616080083  0.6370394072202166  0.5680392674810557  1.0000
  N   N21       1.0  0.46724163369996685  0.18273818244639237  0.3176542044670419  1.0000
  C   C225      1.0  0.452147954899008  0.2234301462157823  0.3514554505518926  1.0000
  C   C226      1.0  0.4695020939730396  0.20794490745697203  0.27734262354568795  1.0000
  C   C227      1.0  0.44050483209116553  0.1352374324009532  0.3251256351234094  1.0000
  C   C228      1.0  0.5068259496567317  0.1641467608074694  0.3166372810129398  1.0000
  H   H337      1.0  0.44943512288625254  0.20531636846013093  0.3823333758298806  1.0000
  H   H338      1.0  0.42247179081849673  0.23879766955081808  0.3529425737478987  1.0000
  H   H339      1.0  0.472011116255279  0.2593685447023116  0.3472741537228885  1.0000
  H   H340      1.0  0.49047289984645726  0.24281175325994733  0.2698320735379369  1.0000
  H   H341      1.0  0.4796717547490576  0.17763564447304633  0.25149520809231224  1.0000
  H   H342      1.0  0.4403262550117237  0.2235207614783934  0.27725954839865236  1.0000
  H   H343      1.0  0.45056655395760714  0.1042307006787493  0.29974153903021833  1.0000
  H   H344      1.0  0.410074396456801  0.1476925946050892  0.3272240043315796  1.0000
  H   H345      1.0  0.43903211543857407  0.11416664116543779  0.3545871798225312  1.0000
  H   H346      1.0  0.5185163003456142  0.1321171414306831  0.2923324084541351  1.0000
  H   H347      1.0  0.5063856263107913  0.14616293442562248  0.34695233938847  1.0000
  H   H348      1.0  0.5282212549286002  0.1984749180419222  0.3096576525354732  1.0000
  N   N22       1.0  0.5560809118439586  0.5142306616457513  0.48359611090343424  1.0000
  C   C229      1.0  0.5451108299705589  0.5572419639290292  0.5159542287213226  1.0000
  C   C230      1.0  0.5521535441259138  0.536193841460704  0.44446717508500366  1.0000
  C   C231      1.0  0.5297835827131292  0.4666937613706027  0.4974962969268179  1.0000
  C   C232      1.0  0.5972627753077131  0.4972537584700283  0.4768078242750871  1.0000
  H   H349      1.0  0.5142734161944742  0.5711676491437574  0.522039916439631  1.0000
  H   H350      1.0  0.5639581695993111  0.5939064627079431  0.506733763160335  1.0000
  H   H351      1.0  0.5484447623271922  0.542421992708839  0.5456458117826373  1.0000
  H   H352      1.0  0.560501375839938  0.5050259131331838  0.4190973258451734  1.0000
  H   H353      1.0  0.521467116973032  0.5496521356403063  0.4486211097753129  1.0000
  H   H354      1.0  0.5713324808820878  0.5726709747656967  0.43367457525879977  1.0000
  H   H355      1.0  0.5318377082514922  0.4497691064353096  0.5272747544724915  1.0000
  H   H356      1.0  0.5370629580249564  0.4330363714510782  0.4740096032878317  1.0000
  H   H357      1.0  0.498418249715786  0.4783455909963429  0.5032804962962754  1.0000
  H   H358      1.0  0.601402731221861  0.4817367061188509  0.5060692701725176  1.0000
  H   H359      1.0  0.6177085993927156  0.532395496195683  0.466072329373334  1.0000
  H   H360      1.0  0.6065647892441149  0.4642415561864854  0.4529252085780679  1.0000
  N   N23       1.0  0.20689114940063913  0.5936003261823952  0.008794154280419741  1.0000
  C   C233      1.0  0.23479393114762748  0.61911860028159  0.9716565491618753  1.0000
  C   C234      1.0  0.21623354002591055  0.6114586540977911  0.046309887922700854  1.0000
  C   C235      1.0  0.21031493882116736  0.5332389277127532  0.0048199014349834535  1.0000
  C   C236      1.0  0.16631208489826732  0.6105605125813713  0.01232668718232377  1.0000
  H   H361      1.0  0.22866523786793347  0.6064811948053108  0.9427177876124803  1.0000
  H   H362      1.0  0.26570189861857396  0.6071289133778086  0.968186564353083  1.0000
  H   H363      1.0  0.23311284822421618  0.6646956507796041  0.9736486155299842  1.0000
  H   H364      1.0  0.19647813404404624  0.5920018304874579  0.07492894702746593  1.0000
  H   H365      1.0  0.24698920729302154  0.6004860962852869  0.04415648390338611  1.0000
  H   H366      1.0  0.21332436614349404  0.6566764717555724  0.050764979295896406  1.0000
  H   H367      1.0  0.18949331193014918  0.5126213839415175  0.032198470822114356  1.0000
  H   H368      1.0  0.2404982880145119  0.5187579634983248  0.0022355523599510985  1.0000
  H   H369      1.0  0.2033154856511874  0.5183525561914126  0.9768633552900924  1.0000
  H   H370      1.0  0.1443336276903482  0.5902016123559884  0.03905660889142726  1.0000
  H   H371      1.0  0.15871133366122825  0.5990938070226903  0.9839574830824428  1.0000
  H   H372      1.0  0.16211302322644494  0.6556420666615105  0.01669101907793258  1.0000
  N   N24       1.0  0.09601698820252902  0.7278088123673854  0.3771203188820891  1.0000
  C   C237      1.0  0.08498502145849396  0.7255092954534127  0.33862943554705616  1.0000
  C   C238      1.0  0.07999467000613913  0.7786941292842552  0.40022892069283655  1.0000
  C   C239      1.0  0.13932636640255636  0.7274660906131388  0.3661756990497575  1.0000
  C   C240      1.0  0.079795139663418  0.6796975750427645  0.40331899552838124  1.0000
  H   H373      1.0  0.052484485120067204  0.726084789314655  0.3456581040460992  1.0000
  H   H374      1.0  0.09653722083048644  0.6876443147297332  0.3203407423867459  1.0000
  H   H375      1.0  0.09682314507678558  0.7613013897152926  0.3181755265645336  1.0000
  H   H376      1.0  0.08856090802052186  0.7827813508688041  0.4289315460288475  1.0000
  H   H377      1.0  0.09100049471340621  0.8157102023095405  0.38101520321750854  1.0000
  H   H378      1.0  0.04734354779972261  0.7800275534522482  0.4097421922477979  1.0000
  H   H379      1.0  0.1487867024923495  0.7295194273189487  0.3944012690487255  1.0000
  H   H380      1.0  0.15261780844105854  0.7632295397344907  0.3464949665528721  1.0000
  H   H381      1.0  0.15249104034222682  0.6895497570102461  0.34892429701973754  1.0000
  H   H382      1.0  0.0920073332788367  0.6405134140501352  0.3873639919908245  1.0000
  H   H383      1.0  0.047230632870664424  0.6779961990298783  0.4117147009214072  1.0000
  H   H384      1.0  0.08701503711146752  0.680566615982994  0.4329291832358252  1.0000
