data_image0
_chemical_formula_structural       FeS2FeS2FeSFeS3FeS2FeS2FeSFeS3FeS2FeS2FeSFeS3FeS2FeS2FeSFeS3FeS2FeS2FeSFeS3FeS2FeS2FeSFeS3FeS2FeS2FeSFeS3FeS2FeS2FeSFeS3FeS2FeS2FeSFeS3FeS2FeS2FeSFeS3FeS2FeS2FeSFeS3FeS2FeS2FeSFeS3C6H4C6H4C6H4C6H4C6H4C6H4C6H4C6H4C6H4C6H4C6H4C6H4C6H4C6H4C6H4C6H4C6H4C6H4C6H4C6H4C6H4C6H4C6H4C6H4NC4H12NC4H12NC4H12NC4H12NC4H12NC4H12NC4H12NC4H12NC4H12NC4H12NC4H12NC4H12NC4H12NC4H12NC4H12NC4H12NC4H12NC4H12NC4H12NC4H12NC4H12NC4H12NC4H12NC4H12
_chemical_formula_sum              "Fe48 S96 C240 H384 N24"
_cell_length_a       33.68495703590318
_cell_length_b       37.8849727740171
_cell_length_c       18.84909572864895
_cell_angle_alpha    90.48593666473457
_cell_angle_beta     89.24331174105912
_cell_angle_gamma    89.38759394748512

_space_group_name_H-M_alt    "P 1"
_space_group_IT_number       1

loop_
  _space_group_symop_operation_xyz
  'x, y, z'

loop_
  _atom_site_type_symbol
  _atom_site_label
  _atom_site_symmetry_multiplicity
  _atom_site_fract_x
  _atom_site_fract_y
  _atom_site_fract_z
  _atom_site_occupancy
  Fe  Fe1       1.0  0.3951450534107648  0.28816124545057775  0.40266788702362366  1.0000
  S   S1        1.0  0.3469428872411058  0.26319668473943475  0.46790477242482914  1.0000
  S   S2        1.0  0.4399852559709227  0.256167990322084  0.33966140665372646  1.0000
  Fe  Fe2       1.0  0.3670997932127434  0.3622097539598891  0.43829930742249557  1.0000
  S   S3        1.0  0.3157703170168436  0.3443787709501533  0.5045841274676625  1.0000
  S   S4        1.0  0.38304504607887163  0.41912263595077526  0.43245352595556874  1.0000
  Fe  Fe3       1.0  0.3593206353047247  0.30535268670123283  0.5477942272336696  1.0000
  S   S5        1.0  0.35814778642627265  0.29415031630577015  0.6641258343307511  1.0000
  Fe  Fe4       1.0  0.307783401505649  0.3039094427475337  0.41860988580175357  1.0000
  S   S6        1.0  0.24956831365359888  0.28765522167336494  0.37370123466480853  1.0000
  S   S7        1.0  0.4118250895570527  0.32644549876051143  0.4882929851939758  1.0000
  S   S8        1.0  0.3549635307890975  0.3258621900034586  0.3469475358169104  1.0000
  Fe  Fe5       1.0  0.5288650707575283  0.23261218027384614  0.8526842163623605  1.0000
  S   S9        1.0  0.4952595328462298  0.2356431858364584  0.9558257638642459  1.0000
  S   S10       1.0  0.5061116745434742  0.20396886783875193  0.7576597161531149  1.0000
  Fe  Fe6       1.0  0.5913368815671664  0.28375243476378065  0.9011209820561225  1.0000
  S   S11       1.0  0.563326993733068  0.2918661188584216  0.008558921548126985  1.0000
  S   S12       1.0  0.6481789646348423  0.30873067741985444  0.8675297532923009  1.0000
  Fe  Fe7       1.0  0.5554131957765766  0.23331748445430667  0.004935994637015995  1.0000
  S   S13       1.0  0.5660902255624427  0.2010604196978889  0.10177540400221363  1.0000
  Fe  Fe8       1.0  0.5061707783933285  0.2936261043072068  0.9493037596287666  1.0000
  S   S14       1.0  0.45741898330374264  0.3324717955588871  0.9753433359132319  1.0000
  S   S15       1.0  0.5883426101742022  0.22472349601429473  0.9020916481792941  1.0000
  S   S16       1.0  0.5349658892543412  0.29100505986674924  0.8417306037733149  1.0000
  Fe  Fe9       1.0  0.29715091934337917  0.8034630389739025  0.98532678301147  1.0000
  S   S17       1.0  0.2712209246421853  0.844681286764672  0.914093725906692  1.0000
  S   S18       1.0  0.3220712133805475  0.8134811910966324  0.09340300936053159  1.0000
  Fe  Fe10      1.0  0.28993715118726204  0.7456130332855839  0.8760605019570881  1.0000
  S   S19       1.0  0.2620096222847338  0.7810718701725305  0.7956714088941904  1.0000
  S   S20       1.0  0.30369643972100263  0.6884228630649986  0.8528583324222869  1.0000
  Fe  Fe11      1.0  0.30843954125055717  0.8195970785732776  0.8281203194835624  1.0000
  S   S21       1.0  0.33931335055178063  0.8510095974562816  0.7434820768894469  1.0000
  Fe  Fe12      1.0  0.22667242186790676  0.8030166306714208  0.887990135821991  1.0000
  S   S22       1.0  0.1636065662486088  0.8223127615497844  0.8767724213548664  1.0000
  S   S23       1.0  0.33904872117091095  0.7826922633785073  0.9017139112270172  1.0000
  S   S24       1.0  0.24993632851008543  0.7635419781857157  0.9659616777256643  1.0000
  Fe  Fe13      1.0  0.5012362015205456  0.7611426535675404  0.5378148525051283  1.0000
  S   S25       1.0  0.44365252397905375  0.7547198952655216  0.48095501287217973  1.0000
  S   S26       1.0  0.5054970681774809  0.7881476876664036  0.6436262871177202  1.0000
  Fe  Fe14      1.0  0.5479160984057421  0.7155022772825447  0.4321855387516488  1.0000
  S   S27       1.0  0.49464560347754216  0.7052596680294254  0.3661334538246091  1.0000
  S   S28       1.0  0.6054958839550135  0.6873528319917239  0.4070808584326569  1.0000
  Fe  Fe15      1.0  0.4809967842000825  0.7626071146802708  0.3831661606378653  1.0000
  S   S29       1.0  0.4579488954573074  0.7932173913714057  0.2912310493870784  1.0000
  Fe  Fe16      1.0  0.46277140687782714  0.6982378878848188  0.4697454870919312  1.0000
  S   S30       1.0  0.42169210588360045  0.6526922240819948  0.47966124955403133  1.0000
  S   S31       1.0  0.5374881754828958  0.7740292529863153  0.44075363670160356  1.0000
  S   S32       1.0  0.517135569903252  0.703676867262835  0.5352202554125206  1.0000
  Fe  Fe17      1.0  0.37004539534562414  0.0017109444504130877  0.16636426108085178  1.0000
  S   S33       1.0  0.43230402017220165  0.9809811792342165  0.15528658048369715  1.0000
  S   S34       1.0  0.31738260720337735  0.9782056458097595  0.11338463869619408  1.0000
  Fe  Fe18      1.0  0.3931661650633432  0.06247476085083669  0.26200545680264875  1.0000
  S   S35       1.0  0.45768000529437  0.047629086410372466  0.2603117186672472  1.0000
  S   S36       1.0  0.36328779496404656  0.10630704844982851  0.3232962564378677  1.0000
  Fe  Fe19      1.0  0.44850364610619814  0.03787401393416802  0.1437964650727297  1.0000
  S   S37       1.0  0.48681884441772366  0.05360857563354026  0.0514640855202364  1.0000
  Fe  Fe20      1.0  0.43584744171766393  0.9921250173140265  0.2722783342115281  1.0000
  S   S38       1.0  0.46072815965472386  0.9566989523649674  0.3562873512333638  1.0000
  S   S39       1.0  0.38565580084657675  0.05777572021850429  0.14461458416443373  1.0000
  S   S40       1.0  0.3718693749218457  0.007952741691186205  0.2840700115737065  1.0000
  Fe  Fe21      1.0  0.4866032757325083  0.5430503431446762  0.18705300105200395  1.0000
  S   S41       1.0  0.42739134404205  0.5694325608253519  0.17139512204374907  1.0000
  S   S42       1.0  0.5201369357281662  0.5465433821631678  0.28886224712783637  1.0000
  Fe  Fe22      1.0  0.4908472027580241  0.515859213508253  0.034926200597850565  1.0000
  S   S43       1.0  0.4318693409152994  0.5389623531881786  0.007162317503551563  1.0000
  S   S44       1.0  0.525188605402876  0.486117922027969  0.951495908634744  1.0000
  Fe  Fe23      1.0  0.45319805474541813  0.5862253038490294  0.06723232723692196  1.0000
  S   S45       1.0  0.45396760897172556  0.6412306116523838  0.025181447941583945  1.0000
  Fe  Fe24      1.0  0.4127526571702811  0.5190682617032496  0.11379079294960094  1.0000
  S   S46       1.0  0.35882065969782206  0.4859825169033877  0.13103901693031084  1.0000
  S   S47       1.0  0.5138670147868544  0.5643185360675209  0.08754250886073223  1.0000
  S   S48       1.0  0.47037695935202056  0.4916481838765531  0.1366711576412698  1.0000
  Fe  Fe25      1.0  0.06024239548378585  0.3211347621422979  0.5244888697326364  1.0000
  S   S49       1.0  0.059978938706026996  0.31885460974211005  0.40534910955524467  1.0000
  S   S50       1.0  0.10882971518652074  0.2998392778039564  0.592777958373444  1.0000
  Fe  Fe26      1.0  0.9825039373573641  0.36189075547931593  0.5332664881171698  1.0000
  S   S51       1.0  0.97603155558216  0.3636666403447893  0.4158936742131192  1.0000
  S   S52       1.0  0.9349528655216515  0.3833097325356354  0.6059779789616823  1.0000
  Fe  Fe27      1.0  0.9952904294957644  0.30701025394367554  0.41925907287430436  1.0000
  S   S53       1.0  0.9598798331335023  0.26643541474205956  0.3613086896645348  1.0000
  Fe  Fe28      1.0  0.04089505903798796  0.3755207553830513  0.41378037453106375  1.0000
  S   S54       1.0  0.07165363609714803  0.41609086055058486  0.34751023842848816  1.0000
  S   S55       1.0  0.9973173271377946  0.304226348823418  0.5376596287639102  1.0000
  S   S56       1.0  0.04592710369888775  0.37891210317302804  0.532130432174559  1.0000
  Fe  Fe29      1.0  0.8697746511103556  0.23794637714211309  0.8320745597153327  1.0000
  S   S57       1.0  0.932630989916331  0.2299261698322993  0.8661779041883724  1.0000
  S   S58       1.0  0.8586502294468034  0.2430126798186041  0.7154307200933917  1.0000
  Fe  Fe30      1.0  0.8377529333804938  0.2370036473964273  0.9832668751227395  1.0000
  S   S59       1.0  0.8978064205062055  0.2296956536046143  0.030588373087057308  1.0000
  S   S60       1.0  0.7840772951275279  0.24430755963582154  0.05293117074697706  1.0000
  Fe  Fe31      1.0  0.9171244894009924  0.2696867235836574  0.9509718374328323  1.0000
  S   S61       1.0  0.9525071924225753  0.31786281396304644  0.9746683169346064  1.0000
  Fe  Fe32      1.0  0.9067357704562752  0.19069176261270035  0.9415390908170741  1.0000
  S   S62       1.0  0.9344028335527027  0.13812136143317325  0.9633210373398575  1.0000
  S   S63       1.0  0.856112508961772  0.28062564713963184  0.911525710972194  1.0000
  S   S64       1.0  0.8449323933252668  0.19483694932666767  0.8997453030430304  1.0000
  Fe  Fe33      1.0  0.9336827531274801  0.801804400456827  0.11036061698425081  1.0000
  S   S65       1.0  0.9742754817086191  0.813849666167937  0.01897089818378328  1.0000
  S   S66       1.0  0.9437573556707373  0.8211370838201854  0.2207164120687557  1.0000
  Fe  Fe34      1.0  0.8817940187195985  0.7543610793279057  0.02290720925890799  1.0000
  S   S67       1.0  0.9182514146815989  0.7611598492788791  0.9239628086497144  1.0000
  S   S68       1.0  0.8279189780195216  0.7204777622864725  0.026502576620030194  1.0000
  Fe  Fe35      1.0  0.9706010206455018  0.7559232534832436  0.9951441862304177  1.0000
  S   S69       1.0  0.024534750768919755  0.7222360003994055  0.9723999470612031  1.0000
  Fe  Fe36      1.0  0.9179786835805641  0.8179847980455666  0.9573208062582252  1.0000
  S   S70       1.0  0.9057411887608801  0.8567919239349611  0.8718428078501304  1.0000
  S   S71       1.0  0.9341263454182459  0.7435036861540018  0.09149048445468799  1.0000
  S   S72       1.0  0.8775342259125296  0.8116683558163686  0.051593458564387795  1.0000
  Fe  Fe37      1.0  0.7903842125103054  0.7814407292594894  0.6039250132488564  1.0000
  S   S73       1.0  0.8509947160948217  0.7566508465935259  0.6038326616277786  1.0000
  S   S74       1.0  0.7609499094107536  0.7938578266587921  0.7078382540203068  1.0000
  Fe  Fe38      1.0  0.7841037390091745  0.7784790952489075  0.4449622033093333  1.0000
  S   S75       1.0  0.8441423005560443  0.7535000398750973  0.42992999827521994  1.0000
  S   S76       1.0  0.7443211996135359  0.7932503610205791  0.35550789288995716  1.0000
  Fe  Fe39      1.0  0.8262208332969889  0.7199666753128194  0.5222512723239741  1.0000
  S   S77       1.0  0.8404042266741082  0.6621148178306777  0.5283503679986148  1.0000
  Fe  Fe40      1.0  0.8633001126808573  0.7922993228730585  0.5126417529930013  1.0000
  S   S78       1.0  0.922045809112421  0.8191781650744187  0.5014657362968648  1.0000
  S   S79       1.0  0.7643170233809998  0.7416153900274206  0.5308900347516532  1.0000
  S   S80       1.0  0.8043965746253635  0.8206226367799611  0.5193604721956969  1.0000
  Fe  Fe41      1.0  0.9722481417655058  0.07218176209184407  0.40885063222410456  1.0000
  S   S81       1.0  0.9068759574488404  0.06923002760815555  0.429092405657898  1.0000
  S   S82       1.0  0.008251525360999379  0.11396492660561132  0.46199987347357707  1.0000
  Fe  Fe42      1.0  0.9726961615216165  0.009954138404632662  0.3069597644474855  1.0000
  S   S83       1.0  0.9072154707895878  0.0011653900621373392  0.31914592860735214  1.0000
  S   S84       1.0  0.0072636016817069216  0.9768867593577065  0.2278750398442564  1.0000
  Fe  Fe43      1.0  0.9026745373386564  0.05999794044469548  0.31203693125155985  1.0000
  S   S85       1.0  0.8562905303132382  0.08813292350835275  0.2492492126800787  1.0000
  Fe  Fe44      1.0  0.9178689278580219  0.011005933683084779  0.43478497646302927  1.0000
  S   S86       1.0  0.8861876699068754  0.9816949783777102  0.5208147713505813  1.0000
  S   S87       1.0  0.9674375439078291  0.06839372996780949  0.29080985609054166  1.0000
  S   S88       1.0  0.9840943888324382  0.014327250549349024  0.4238311596186986  1.0000
  Fe  Fe45      1.0  0.9056476027961077  0.5305145733101706  0.2232646293105544  1.0000
  S   S89       1.0  0.8531508424391505  0.502564533945485  0.27028058597220145  1.0000
  S   S90       1.0  0.9634720023905888  0.5468246800495531  0.26949804662736904  1.0000
  Fe  Fe46      1.0  0.8672572587759572  0.5403672753198699  0.08125679118336215  1.0000
  S   S91       1.0  0.8104682000808325  0.5146365570402722  0.11421533561406583  1.0000
  S   S92       1.0  0.8846795649205559  0.5641864263528322  0.9777675566884615  1.0000
  Fe  Fe47      1.0  0.8171048933005219  0.5447397597250271  0.21675931853208508  1.0000
  S   S93       1.0  0.769071570724449  0.5783453571766648  0.2686898998580868  1.0000
  Fe  Fe48      1.0  0.8509873583184303  0.47465265479382873  0.16430703604443786  1.0000
  S   S94       1.0  0.8361474946061694  0.4168323616544114  0.15460528715749366  1.0000
  S   S95       1.0  0.8697573355225642  0.5745248610167717  0.1781169002801244  1.0000
  S   S96       1.0  0.9072596726854162  0.49863273550169235  0.12332732428080972  1.0000
  C   C1        1.0  0.81881155443889  0.6374366273694019  0.45991685249157166  1.0000
  C   C2        1.0  0.7831848678675681  0.6485492067245807  0.4295787354916986  1.0000
  C   C3        1.0  0.7676864603638823  0.6300964572744888  0.37142936274721233  1.0000
  C   C4        1.0  0.7877429188049522  0.6004047456126465  0.343504806235203  1.0000
  C   C5        1.0  0.8231832708780524  0.5891388733581158  0.3743630529913185  1.0000
  C   C6        1.0  0.8384452058963615  0.6073716240985373  0.43295112751417575  1.0000
  H   H1        1.0  0.7676758325846024  0.6713854930542495  0.45104137475437767  1.0000
  H   H2        1.0  0.7406607029209767  0.6393193737613188  0.3472552616124694  1.0000
  H   H3        1.0  0.8390060725728146  0.5663870652595582  0.3532084273806417  1.0000
  H   H4        1.0  0.8660822676561447  0.598683832482274  0.4561159923581769  1.0000
  C   C7        1.0  0.8998432874502459  0.9371681091716837  0.5230324083155851  1.0000
  C   C8        1.0  0.9330658041480377  0.9246220522969162  0.484864651605968  1.0000
  C   C9        1.0  0.9413388872855372  0.8883026477572512  0.4818422062075619  1.0000
  C   C10       1.0  0.9156026069980908  0.8646049225726326  0.51476848182568  1.0000
  C   C11       1.0  0.8836070949102875  0.8772938243139227  0.5556262651026419  1.0000
  C   C12       1.0  0.8758396983624452  0.9135824451572275  0.5601974659374875  1.0000
  H   H5        1.0  0.9518667212267268  0.9428053105003669  0.45649045338659733  1.0000
  H   H6        1.0  0.9667170712127567  0.8785645239138922  0.45169339929041824  1.0000
  H   H7        1.0  0.864904046438808  0.8591692911760445  0.5839308146308693  1.0000
  H   H8        1.0  0.8504859858126992  0.9233238325448897  0.5906839131276053  1.0000
  C   C13       1.0  0.8623477597134153  0.8428675330416072  0.8297066427929621  1.0000
  C   C14       1.0  0.8377677082442728  0.8179989505887029  0.8622434316189683  1.0000
  C   C15       1.0  0.8049930546683995  0.8045119817023931  0.8264036553396913  1.0000
  C   C16       1.0  0.7974542647391161  0.8150706690126949  0.7570550249373853  1.0000
  C   C17       1.0  0.8216332423359108  0.8401950262311492  0.7246477537696705  1.0000
  C   C18       1.0  0.8536666543681434  0.8545759417978165  0.7613623761902826  1.0000
  H   H9        1.0  0.8439367980765382  0.8089617638196764  0.9150210616868457  1.0000
  H   H10       1.0  0.7863046796393613  0.7851375740943809  0.8516951156898056  1.0000
  H   H11       1.0  0.8154054021308711  0.8487193188454414  0.6713763708769931  1.0000
  H   H12       1.0  0.8721591546173602  0.8740651790386917  0.7360393914267165  1.0000
  C   C19       1.0  0.8422051841193976  0.677143788169157  0.006727389891272528  1.0000
  C   C20       1.0  0.8169693429158689  0.6494192550356354  0.02421019237381672  1.0000
  C   C21       1.0  0.8298215555886794  0.6144901594251679  0.014002445782370199  1.0000
  C   C22       1.0  0.8670834353646024  0.6074421048831569  0.9832395858885045  1.0000
  C   C23       1.0  0.8916583839893093  0.6351716781278012  0.9630427953498322  1.0000
  C   C24       1.0  0.8796068169350485  0.670036197236404  0.976510811516976  1.0000
  H   H13       1.0  0.7880178203005684  0.654861421459775  0.04761066160108918  1.0000
  H   H14       1.0  0.8109690196067328  0.5929555241141273  0.030216521912874494  1.0000
  H   H15       1.0  0.9206132100714629  0.6297296887609183  0.9397402305260811  1.0000
  H   H16       1.0  0.8994537236979323  0.6912916628576888  0.9639386346063901  1.0000
  C   C25       1.0  0.9611054436601257  0.8644821105862941  0.22197734369976918  1.0000
  C   C26       1.0  0.9610282581713302  0.884822593010703  0.16042505445479072  1.0000
  C   C27       1.0  0.9751260528675464  0.9195227478570102  0.16236892928461932  1.0000
  C   C28       1.0  0.9882126987936276  0.9341602158507843  0.2262743322554377  1.0000
  C   C29       1.0  0.9874080335754859  0.9140565370394188  0.2881188048108465  1.0000
  C   C30       1.0  0.9745050157104861  0.8790240085902834  0.28558170959923834  1.0000
  H   H17       1.0  0.9497688166080929  0.8740313756411019  0.11149325257895737  1.0000
  H   H18       1.0  0.9753310940957853  0.9352586519633993  0.11469266836173042  1.0000
  H   H19       1.0  0.99765103960756  0.9252885594369304  0.337518040315143  1.0000
  H   H20       1.0  0.9749664386997127  0.8630639990932818  0.33282323206258435  1.0000
  C   C31       1.0  0.9219575167879855  0.34523158792727077  0.028271423986584  1.0000
  C   C32       1.0  0.8883486880322911  0.33141812499571505  0.06200052522221933  1.0000
  C   C33       1.0  0.8627651348320865  0.35347295478437374  0.10184781912794882  1.0000
  C   C34       1.0  0.870278793380657  0.3896330260180474  0.10755139519499002  1.0000
  C   C35       1.0  0.9040619439804872  0.4033789221575446  0.07432344532910173  1.0000
  C   C36       1.0  0.9299918054660519  0.3812190250258615  0.035086433942286055  1.0000
  H   H21       1.0  0.881978611272008  0.30364865765120064  0.05773170765254454  1.0000
  H   H22       1.0  0.8368927719096156  0.34239632048234475  0.12751959968757198  1.0000
  H   H23       1.0  0.9101814350858499  0.43104760443319107  0.07783323561195554  1.0000
  H   H24       1.0  0.9558844379521543  0.39209599614564095  0.009093499481496181  1.0000
  C   C37       1.0  0.9088941011883495  0.12022719172181677  0.03612001476418336  1.0000
  C   C38       1.0  0.9246779242064963  0.09105266553518936  0.07149530533340576  1.0000
  C   C39       1.0  0.9077311051075898  0.08023210943969158  0.13603347487431972  1.0000
  C   C40       1.0  0.8746930311817973  0.09830142588324732  0.16464379038121457  1.0000
  C   C41       1.0  0.8575385562982021  0.1261113220999305  0.12714088334435214  1.0000
  C   C42       1.0  0.8746648724517733  0.13710720097159151  0.06303521622439479  1.0000
  H   H25       1.0  0.95075069128206  0.0775368628185438  0.05029445882888495  1.0000
  H   H26       1.0  0.9203278775612865  0.057990713620255714  0.16374116921889348  1.0000
  H   H27       1.0  0.8318814992105392  0.14001359560024437  0.1489734323370806  1.0000
  H   H28       1.0  0.8618649045079981  0.15927113109901772  0.03564689208363525  1.0000
  C   C43       1.0  0.9075137953464897  0.3468367691804372  0.6333518908470002  1.0000
  C   C44       1.0  0.8947270312808207  0.3444600855299569  0.7039062400086514  1.0000
  C   C45       1.0  0.8786734148552008  0.31286231942762355  0.7288749438890021  1.0000
  C   C46       1.0  0.8745025513902902  0.2839090586032849  0.6830589459847936  1.0000
  C   C47       1.0  0.8849378970250379  0.28717422614289817  0.6113320439713418  1.0000
  C   C48       1.0  0.9018026843204864  0.3185009618990618  0.5866434968646174  1.0000
  H   H29       1.0  0.8989155720270677  0.36643262183636977  0.7399862083118687  1.0000
  H   H30       1.0  0.8699559954658544  0.31093755580608445  0.7836691194270718  1.0000
  H   H31       1.0  0.8812264421200426  0.2651615106471197  0.5752333381632372  1.0000
  H   H32       1.0  0.9110770555758327  0.3204459675099713  0.531664573652207  1.0000
  C   C49       1.0  0.9928564154619646  0.5100838432866222  0.2908750058885984  1.0000
  C   C50       1.0  0.033391609153482715  0.5145798045499143  0.3027247011962012  1.0000
  C   C51       1.0  0.05747272458490138  0.48546114804497364  0.3190437390884639  1.0000
  C   C52       1.0  0.04090271685145064  0.4519114465845531  0.32540819990562875  1.0000
  C   C53       1.0  0.0003297873493899317  0.44735357394859676  0.3134358483987611  1.0000
  C   C54       1.0  0.9763390323418226  0.47640242262641885  0.2953987785630145  1.0000
  H   H33       1.0  0.046206669005804946  0.5405718870712536  0.2992123874346432  1.0000
  H   H34       1.0  0.08881641112663297  0.48905934189388384  0.32805655598552663  1.0000
  H   H35       1.0  0.9876622920124638  0.4213770871752085  0.3166218239951449  1.0000
  H   H36       1.0  0.9450677118553229  0.47280833511856457  0.28573135107967734  1.0000
  C   C55       1.0  0.9716821243214278  0.2245311505990658  0.39375807737089025  1.0000
  C   C56       1.0  0.9473626772709213  0.19583482913262282  0.37817362911800634  1.0000
  C   C57       1.0  0.9585143815126742  0.16170457203676117  0.39884440503066565  1.0000
  C   C58       1.0  0.9935916511003967  0.15640780586034952  0.43646464233208  1.0000
  C   C59       1.0  0.017130749881319574  0.18528176142672947  0.45424170910337536  1.0000
  C   C60       1.0  0.006303938639848461  0.219306848078836  0.43260501216914793  1.0000
  H   H37       1.0  0.9201489819755542  0.1999244613298907  0.34935668786047164  1.0000
  H   H38       1.0  0.940036707594829  0.13953918650437339  0.3853248113078227  1.0000
  H   H39       1.0  0.04427123037943348  0.18125288676323703  0.4833771022468218  1.0000
  H   H40       1.0  0.025361562653975156  0.2413218348139477  0.44447600168228407  1.0000
  C   C61       1.0  0.6438580445601142  0.7155300915764429  0.38158362005649393  1.0000
  C   C62       1.0  0.6831618249972705  0.7047302921683479  0.391825504864814  1.0000
  C   C63       1.0  0.7142280640120215  0.7280710124610883  0.3786109979642718  1.0000
  C   C64       1.0  0.7061423287821094  0.762307873446065  0.35580870825724226  1.0000
  C   C65       1.0  0.6670386081736491  0.7725498413303736  0.3414613094018659  1.0000
  C   C66       1.0  0.6357789520741987  0.7491716526041176  0.35482724752460537  1.0000
  H   H41       1.0  0.689550126226861  0.6788625406476345  0.41296093115549465  1.0000
  H   H42       1.0  0.7445374503392702  0.719932284619827  0.3876023885598264  1.0000
  H   H43       1.0  0.6607588499792577  0.7989658939374392  0.3229535317123288  1.0000
  H   H44       1.0  0.6054955289979809  0.7573185835888556  0.34517373652074046  1.0000
  C   C67       1.0  0.4479950069147168  0.6182942285036149  0.4370913995833393  1.0000
  C   C68       1.0  0.489436540138003  0.617197204564968  0.44091981732490937  1.0000
  C   C69       1.0  0.5114108908671924  0.5931765345563438  0.3990664476417654  1.0000
  C   C70       1.0  0.49207622436471365  0.5710132799380604  0.3513913923571418  1.0000
  C   C71       1.0  0.4505328316833338  0.5706124631432195  0.35061881764279956  1.0000
  C   C72       1.0  0.42840575067327  0.5941500530360334  0.39377216962952155  1.0000
  H   H45       1.0  0.5047658595608241  0.6353435236742134  0.4750601598800339  1.0000
  H   H46       1.0  0.5433887094352522  0.5929328538369623  0.40168762315012274  1.0000
  H   H47       1.0  0.43542008867309817  0.552367126260394  0.316404290219145  1.0000
  H   H48       1.0  0.39634462112304397  0.5946423585613868  0.39109557857324057  1.0000
  C   C73       1.0  0.46302312903480436  0.9115013155926002  0.33517705849718493  1.0000
  C   C74       1.0  0.4742065803716067  0.8875216612243646  0.38758876864735453  1.0000
  C   C75       1.0  0.4727213734267079  0.8511158379906312  0.3742563919403567  1.0000
  C   C76       1.0  0.4606946010232077  0.8386270852299259  0.30800138076265926  1.0000
  C   C77       1.0  0.45010002367861385  0.8625396238494552  0.25521583424007405  1.0000
  C   C78       1.0  0.4511690007258785  0.8989498516903102  0.2688409041681345  1.0000
  H   H49       1.0  0.48332639047925396  0.8971170898682302  0.4390453709245119  1.0000
  H   H50       1.0  0.4806316651867404  0.8327870031732488  0.41544709891922477  1.0000
  H   H51       1.0  0.4411681736666604  0.8528874745560934  0.2037393651747524  1.0000
  H   H52       1.0  0.44258020482988314  0.9171713472984977  0.22814687477364326  1.0000
  C   C79       1.0  0.1257022525694791  0.7928407966644464  0.8990234505208918  1.0000
  C   C80       1.0  0.08617408481058521  0.8037429352810164  0.891085512842547  1.0000
  C   C81       1.0  0.0551038226139835  0.7816823431283908  0.9119700397006056  1.0000
  C   C82       1.0  0.0634215586828768  0.7486740738928195  0.9412673383692142  1.0000
  C   C83       1.0  0.10293586323525572  0.7373887929772317  0.9477890216377837  1.0000
  C   C84       1.0  0.134111637689728  0.7595169121662647  0.9268296242489752  1.0000
  H   H53       1.0  0.07965932378843488  0.8293802537141701  0.8689878812347251  1.0000
  H   H54       1.0  0.02470199300141762  0.7900572911071374  0.9047889214012304  1.0000
  H   H55       1.0  0.10948659543696992  0.7117947936374973  0.9700978762378895  1.0000
  H   H56       1.0  0.16455442943042983  0.7508701677409773  0.932689682394817  1.0000
  C   C85       1.0  0.38565870337864966  0.8336740103913407  0.7164482756971539  1.0000
  C   C86       1.0  0.41051342261396306  0.8169347481914164  0.7648815965844868  1.0000
  C   C87       1.0  0.447664015347997  0.803590331682993  0.7424944732009223  1.0000
  C   C88       1.0  0.45954289793953723  0.8060245597070613  0.6712454121810005  1.0000
  C   C89       1.0  0.4346070734395095  0.8226227667528163  0.6226822323293845  1.0000
  C   C90       1.0  0.3980090938222267  0.8369978747307487  0.6455938190949836  1.0000
  H   H57       1.0  0.4016545713825419  0.8149531473590436  0.8199063328871057  1.0000
  H   H58       1.0  0.46706094086816674  0.7910047408347614  0.7802381271168636  1.0000
  H   H59       1.0  0.44395268107423114  0.8250539393509937  0.5678028166625586  1.0000
  H   H60       1.0  0.37899345501924  0.8501954780984731  0.6081586279983573  1.0000
  C   C91       1.0  0.34591962111788127  0.6743113065775798  0.8987304346716798  1.0000
  C   C92       1.0  0.34685187887053714  0.6410148844201331  0.9304684388494381  1.0000
  C   C93       1.0  0.38005236933171227  0.6303956726719667  0.9695916930207068  1.0000
  C   C94       1.0  0.412545754829395  0.6528642143017385  0.9755372897220104  1.0000
  C   C95       1.0  0.4120659316932746  0.6856045839826103  0.9421602156812114  1.0000
  C   C96       1.0  0.37886745386072535  0.6962609546877362  0.9038791323343345  1.0000
  H   H61       1.0  0.32145211636465426  0.623873734251461  0.9265002954689484  1.0000
  H   H62       1.0  0.3801421878199371  0.6051465456056888  0.995935841033217  1.0000
  H   H63       1.0  0.4373164119344323  0.7029114794154695  0.9462462162933656  1.0000
  H   H64       1.0  0.37927734228515864  0.7212717244981965  0.8774646952833329  1.0000
  C   C97       1.0  0.3170585916805432  0.8585158771755009  0.11207467195548015  1.0000
  C   C98       1.0  0.34741032741640687  0.876321257229452  0.14691792573472462  1.0000
  C   C99       1.0  0.3469023625452683  0.9133097614487115  0.15024557996780574  1.0000
  C   C100      1.0  0.3157902968596846  0.9322814066169044  0.11948543355354357  1.0000
  C   C101      1.0  0.28434722899577436  0.9143245076365794  0.08846188153239898  1.0000
  C   C102      1.0  0.28499173296385616  0.8774428557904058  0.08477246723480691  1.0000
  H   H65       1.0  0.3722956435016062  0.8616353625437141  0.16779267230734018  1.0000
  H   H66       1.0  0.37125933501854586  0.9271117096934124  0.17421861016812978  1.0000
  H   H67       1.0  0.26007842043019863  0.9289838286748491  0.06525103227696372  1.0000
  H   H68       1.0  0.2609180171080211  0.8636491087506918  0.0597905878954097  1.0000
  C   C103      1.0  0.685024353970701  0.28916248241659287  0.9186219262134776  1.0000
  C   C104      1.0  0.6796183048432558  0.2860847427668991  0.9920156259184199  1.0000
  C   C105      1.0  0.7099493732089903  0.271756824884183  0.03337115565133408  1.0000
  C   C106      1.0  0.7452969732532801  0.2599769954538112  0.0010272809647950965  1.0000
  C   C107      1.0  0.7500561316152956  0.26184558258067225  0.9273678163856511  1.0000
  C   C108      1.0  0.720025412508353  0.27668379485718897  0.8861985068557051  1.0000
  H   H69       1.0  0.6525048692851225  0.29567346340560047  0.017139371020253646  1.0000
  H   H70       1.0  0.7062474391321737  0.2703379279416794  0.090388077505831  1.0000
  H   H71       1.0  0.7768310358432694  0.25187096082354343  0.9018513138591716  1.0000
  H   H72       1.0  0.7238119176366998  0.27831465956272833  0.8291882641127288  1.0000
  C   C109      1.0  0.4756910849856335  0.37513471621979955  0.964582625723079  1.0000
  C   C110      1.0  0.5143990777566118  0.38026659501002685  0.9390991407811664  1.0000
  C   C111      1.0  0.5292416956808574  0.4145198953603841  0.932417180318064  1.0000
  C   C112      1.0  0.5056951169151515  0.4435392043483931  0.9529040203484934  1.0000
  C   C113      1.0  0.4668110012443626  0.43838587474710167  0.9774885477838539  1.0000
  C   C114      1.0  0.45167367419794124  0.40423005382950566  0.9826094230822248  1.0000
  H   H73       1.0  0.5332303749664791  0.3579054144149441  0.9254019525291787  1.0000
  H   H74       1.0  0.5594146384919868  0.4184083471852964  0.9138507375397078  1.0000
  H   H75       1.0  0.4482784257129532  0.4607112104729387  0.9927672310427774  1.0000
  H   H76       1.0  0.421549447569394  0.4004568978505899  0.001442947742802625  1.0000
  C   C115      1.0  0.5470848302337217  0.15890466062187142  0.08782057576566338  1.0000
  C   C116      1.0  0.5380470465177758  0.1375191240117692  0.14578970380769962  1.0000
  C   C117      1.0  0.5201282184850442  0.1047265349108802  0.13493778683373026  1.0000
  C   C118      1.0  0.5123868752799144  0.0929130383089275  0.06604970505904428  1.0000
  C   C119      1.0  0.5229327842322624  0.1137584244173937  0.008003629835858339  1.0000
  C   C120      1.0  0.5397329358142873  0.14698463300573592  0.01890794561966258  1.0000
  H   H77       1.0  0.5437859267110231  0.14672970027930393  0.19916304920641204  1.0000
  H   H78       1.0  0.5125411515644385  0.08855410618683134  0.17983664295060509  1.0000
  H   H79       1.0  0.5169214503544967  0.10469291104901349  0.954631144721201  1.0000
  H   H80       1.0  0.5468070424753003  0.16335300704321887  0.9738730505577256  1.0000
  C   C121      1.0  0.21242609450267227  0.28391586166764604  0.4391722094187559  1.0000
  C   C122      1.0  0.21965358931313106  0.2933935481799892  0.5097615429254285  1.0000
  C   C123      1.0  0.18803190219350396  0.29601545069491375  0.5588553608570447  1.0000
  C   C124      1.0  0.14932766575108647  0.28883364695077285  0.5373223078082976  1.0000
  C   C125      1.0  0.14277136571901172  0.2765119092630059  0.4684391629139313  1.0000
  C   C126      1.0  0.17418421032451104  0.2743723264124191  0.4191856273064066  1.0000
  H   H81       1.0  0.2492961948030433  0.2997661397329004  0.5261500571285721  1.0000
  H   H82       1.0  0.19333591922644744  0.30508225109565634  0.6124509251357256  1.0000
  H   H83       1.0  0.1133625835083456  0.2688533432931496  0.4529011789569616  1.0000
  H   H84       1.0  0.16861488810836914  0.26621893442637096  0.36509246933537587  1.0000
  C   C127      1.0  0.3993501371227778  0.26910961634718555  0.6894055916354968  1.0000
  C   C128      1.0  0.42918052216280683  0.2601443812721986  0.6399822527000173  1.0000
  C   C129      1.0  0.46188269452759306  0.23968015086471656  0.660765843764313  1.0000
  C   C130      1.0  0.46491991787717535  0.22863898414124767  0.7310819298889821  1.0000
  C   C131      1.0  0.43557113862027674  0.23837870765919306  0.780833174511138  1.0000
  C   C132      1.0  0.4026147594767081  0.2583536927414588  0.7598666003499164  1.0000
  H   H85       1.0  0.4269496585227494  0.26870126676830797  0.5856805062969326  1.0000
  H   H86       1.0  0.4852140107383345  0.23294457033802107  0.6228358648792169  1.0000
  H   H87       1.0  0.43799313137031437  0.23006250958784105  0.8353235083047674  1.0000
  H   H88       1.0  0.379664759959928  0.2654520180895741  0.7982732065987169  1.0000
  C   C133      1.0  0.37330654378320405  0.4384983429900587  0.35047550368107777  1.0000
  C   C134      1.0  0.3467183264712821  0.42330060668365804  0.3028517290954095  1.0000
  C   C135      1.0  0.34114192628664286  0.4384581655446397  0.23585422685399343  1.0000
  C   C136      1.0  0.36274337781730287  0.46831842390239814  0.21628932729442796  1.0000
  C   C137      1.0  0.38910121594793257  0.4833552897718068  0.2641512923821461  1.0000
  C   C138      1.0  0.3940248157660962  0.46878254619136206  0.3313830153494576  1.0000
  H   H89       1.0  0.3303806988069483  0.4000663725111106  0.3177167747419727  1.0000
  H   H90       1.0  0.32074697450912  0.4267609090307897  0.19878866427655098  1.0000
  H   H91       1.0  0.40576919813703866  0.5063359102865391  0.24944175226696647  1.0000
  H   H92       1.0  0.4146645538032866  0.48057761137279975  0.3679758905523623  1.0000
  C   C139      1.0  0.4191707991640758  0.21490615717972816  0.3225512680310918  1.0000
  C   C140      1.0  0.4434199910712009  0.18499022325606188  0.3118719669756093  1.0000
  C   C141      1.0  0.4264184425753284  0.15128989800459558  0.30894385248971096  1.0000
  C   C142      1.0  0.3853235110539744  0.14773917532635716  0.3177694752674365  1.0000
  C   C143      1.0  0.3611732563050505  0.1777607077994926  0.3255945151248059  1.0000
  C   C144      1.0  0.3780009838190524  0.211300980470346  0.3263065344160764  1.0000
  H   H93       1.0  0.4753549608135674  0.1877529236278729  0.30859434606307157  1.0000
  H   H94       1.0  0.44518796721622694  0.12808112006824918  0.302768286064083  1.0000
  H   H95       1.0  0.3293089913790814  0.17511046741036396  0.331430602730501  1.0000
  H   H96       1.0  0.3590093966900314  0.23437268980330112  0.3314071880176203  1.0000
  N   N1        1.0  0.1877964932242151  0.3911063605388771  0.3931395398961986  1.0000
  C   C145      1.0  0.16196835808084287  0.3836019044716926  0.4551220797251687  1.0000
  C   C146      1.0  0.17657313464666524  0.3680364106983365  0.3331635340322434  1.0000
  C   C147      1.0  0.22969461586753348  0.3842657980080809  0.41150281781685916  1.0000
  C   C148      1.0  0.18295190514963444  0.42847836520720173  0.37273363571494655  1.0000
  H   H97       1.0  0.16983535794162052  0.3999970946955608  0.501956536275489  1.0000
  H   H98       1.0  0.16437600110845074  0.3554287337307858  0.4708375937355856  1.0000
  H   H99       1.0  0.13016907440714465  0.3888718024566618  0.4433533406378052  1.0000
  H   H100      1.0  0.19514958390143566  0.37303906090185424  0.2851585065868248  1.0000
  H   H101      1.0  0.18040587359891536  0.3396500684837252  0.3464899629379502  1.0000
  H   H102      1.0  0.1448859433980263  0.372192582201618  0.3187217322401149  1.0000
  H   H103      1.0  0.249956195268618  0.3882505780546797  0.3651837340485538  1.0000
  H   H104      1.0  0.2341210574591508  0.356661530412862  0.4293379280427059  1.0000
  H   H105      1.0  0.23955361721338142  0.4018498521482757  0.4552911883099555  1.0000
  H   H106      1.0  0.20230929327334035  0.43502774157840535  0.3264784431666026  1.0000
  H   H107      1.0  0.19052366781705032  0.4466090388907614  0.4171546666838145  1.0000
  H   H108      1.0  0.15179653565972528  0.43451763167913743  0.35765443266422053  1.0000
  N   N2        1.0  0.4006304920788256  0.7123860065594615  0.18061908472316146  1.0000
  C   C149      1.0  0.4419912673694329  0.7119776639579465  0.15338005396577614  1.0000
  C   C150      1.0  0.3823637705266912  0.7473520238471615  0.16740904134279444  1.0000
  C   C151      1.0  0.4005426380241364  0.7054106887457546  0.2576831985460659  1.0000
  C   C152      1.0  0.37769930664720447  0.684828071694585  0.1438738055920421  1.0000
  H   H109      1.0  0.4599883185804211  0.7327740825286719  0.17956018383570727  1.0000
  H   H110      1.0  0.44317146725769296  0.7165654832159483  0.09513273047586246  1.0000
  H   H111      1.0  0.45683617456831926  0.6860555372208537  0.16286432388389294  1.0000
  H   H112      1.0  0.3510404278308945  0.7487814419605039  0.18678984292708356  1.0000
  H   H113      1.0  0.39878591624124354  0.7689046681795939  0.1942768451758976  1.0000
  H   H114      1.0  0.3821507675171364  0.7535447682950882  0.10975424112824617  1.0000
  H   H115      1.0  0.4175503732239508  0.7258072712987658  0.2868852730697382  1.0000
  H   H116      1.0  0.4143373739522096  0.6792661589523126  0.2694981170826214  1.0000
  H   H117      1.0  0.36987154216704204  0.7055555841346255  0.28023816532627044  1.0000
  H   H118      1.0  0.34682949760636833  0.6833265711842553  0.16524865293997548  1.0000
  H   H119      1.0  0.39186360022410494  0.6582792195993705  0.14931478569103374  1.0000
  H   H120      1.0  0.37555910903956335  0.6903116872225241  0.08615977149960852  1.0000
  N   N3        1.0  0.9800331673188505  0.8445735807428593  0.6989824676777795  1.0000
  C   C153      1.0  0.963837647190042  0.8809914346586373  0.7033064487203652  1.0000
  C   C154      1.0  0.947050102935654  0.8191887841822317  0.6955146889532474  1.0000
  C   C155      1.0  0.00399274641036329  0.837311163607801  0.7625140914125125  1.0000
  C   C156      1.0  0.00528912093277456  0.8407821174145826  0.6345759047923982  1.0000
  H   H121      1.0  0.9878612319319159  0.9008479380410234  0.7060524525359424  1.0000
  H   H122      1.0  0.9445373977941088  0.8848781114624645  0.7511451640555126  1.0000
  H   H123      1.0  0.9455221820981418  0.8874080778226304  0.6563193383142754  1.0000
  H   H124      1.0  0.9264012382104679  0.8255980254581688  0.6518297438932256  1.0000
  H   H125      1.0  0.958074911956901  0.7917231899280726  0.6865036397908519  1.0000
  H   H126      1.0  0.9291855763679092  0.8193796324590849  0.7454564973760517  1.0000
  H   H127      1.0  0.01625178273304284  0.8098920512409217  0.7614906029904362  1.0000
  H   H128      1.0  0.9857787702660871  0.8403737651839357  0.8120503061078141  1.0000
  H   H129      1.0  0.029388619128339455  0.8557286928276869  0.7666086516955238  1.0000
  H   H130      1.0  0.017982616010896013  0.8136294836651737  0.6293479628375984  1.0000
  H   H131      1.0  0.03036085722893822  0.859661998707188  0.6351103572009555  1.0000
  H   H132      1.0  0.9879809502132259  0.8459050562829934  0.5857658303920424  1.0000
  N   N4        1.0  0.43539068005885617  0.37206571749002243  0.7497776463848843  1.0000
  C   C157      1.0  0.4672068448215549  0.3459444328979975  0.7632451997368457  1.0000
  C   C158      1.0  0.4487338861686415  0.4075672844628956  0.771338626647959  1.0000
  C   C159      1.0  0.3996306767915363  0.3627158228526795  0.7916018584973895  1.0000
  C   C160      1.0  0.42612555575840017  0.3719498607071536  0.673302996119552  1.0000
  H   H133      1.0  0.45826700740150045  0.31881237196635287  0.7473641407332707  1.0000
  H   H134      1.0  0.4743921924089675  0.34507801024209445  0.8206046191281953  1.0000
  H   H135      1.0  0.49499184210656516  0.3521567534250194  0.7335425769638315  1.0000
  H   H136      1.0  0.4254259833423677  0.4279331496633635  0.7616857218087669  1.0000
  H   H137      1.0  0.45581235616789867  0.40853995886468475  0.828818854757742  1.0000
  H   H138      1.0  0.47605177999138504  0.4152600030628522  0.7416967352523525  1.0000
  H   H139      1.0  0.3746710624289513  0.3815046844665738  0.7823773186443526  1.0000
  H   H140      1.0  0.40575833716579024  0.36256472469432366  0.849594579835022  1.0000
  H   H141      1.0  0.38904461265741025  0.3359098364075278  0.7773068305801689  1.0000
  H   H142      1.0  0.40102406004454183  0.39020519737720416  0.6613188429120466  1.0000
  H   H143      1.0  0.4174878587312415  0.3452154283953582  0.6547927020257395  1.0000
  H   H144      1.0  0.45215576834566734  0.3798949686396114  0.6404021953648504  1.0000
  N   N5        1.0  0.4073113668707464  0.1606626453370233  0.5459691895670493  1.0000
  C   C161      1.0  0.3764383605962942  0.1774184046027872  0.5919204456000444  1.0000
  C   C162      1.0  0.43865039645984705  0.1450038822456663  0.5904348929217109  1.0000
  C   C163      1.0  0.4249941898337414  0.18746961688746583  0.4990675422606606  1.0000
  C   C164      1.0  0.38910120768803863  0.13280936491941034  0.5020763519055871  1.0000
  H   H145      1.0  0.3530582161777016  0.1906429038202421  0.5600020344211174  1.0000
  H   H146      1.0  0.3892197989068484  0.19784251739282158  0.6273259792396325  1.0000
  H   H147      1.0  0.3615897524214713  0.15775703471966565  0.6264822330783921  1.0000
  H   H148      1.0  0.4624557106314047  0.1322442800055614  0.557301220312465  1.0000
  H   H149      1.0  0.45305658001085125  0.16538958709769022  0.624182873601768  1.0000
  H   H150      1.0  0.4264368953125927  0.12466810176781687  0.6266620579342419  1.0000
  H   H151      1.0  0.44786185861100863  0.17567892337231228  0.4626177688447014  1.0000
  H   H152      1.0  0.4395632702539741  0.20871985926364375  0.5296982235425788  1.0000
  H   H153      1.0  0.4020825031136318  0.20024831375831734  0.4658129622680333  1.0000
  H   H154      1.0  0.3760973651248727  0.11160683513381874  0.5352119119746256  1.0000
  H   H155      1.0  0.41117021975813195  0.12022830516635215  0.46497065535036397  1.0000
  H   H156      1.0  0.36480553587068715  0.14373331571343856  0.468910021930161  1.0000
  N   N6        1.0  0.41229540661289155  0.17456821815595253  0.08794809160152406  1.0000
  C   C165      1.0  0.42543502486255946  0.14642237889627732  0.03791015629348382  1.0000
  C   C166      1.0  0.3950503288477879  0.2043352233736605  0.04812147381290255  1.0000
  C   C167      1.0  0.4466643189161871  0.1870300073445899  0.1288283508054393  1.0000
  C   C168      1.0  0.38200144519401735  0.16041003461271627  0.13713846173572475  1.0000
  H   H157      1.0  0.437543763019162  0.12320187362266738  0.06664053583614726  1.0000
  H   H158      1.0  0.44922097402402283  0.15578105326738287  0.0012393342915417715  1.0000
  H   H159      1.0  0.4005237476836301  0.13678830992630245  0.005075104166106126  1.0000
  H   H160      1.0  0.3687731620580495  0.1959549243111327  0.017281538258327567  1.0000
  H   H161      1.0  0.3853183281594888  0.22619339719550144  0.08445174087485197  1.0000
  H   H162      1.0  0.4169661153875719  0.21540087856977305  0.009917228663721467  1.0000
  H   H163      1.0  0.47058233580259456  0.1972567297080187  0.0935010806568062  1.0000
  H   H164      1.0  0.4599467500094239  0.16533210882938051  0.16044371805950353  1.0000
  H   H165      1.0  0.4380778546560637  0.20865374019880628  0.166524761846363  1.0000
  H   H166      1.0  0.3941146012628765  0.13802000127672365  0.16836613407122658  1.0000
  H   H167      1.0  0.3557409192268092  0.15037838830305536  0.10834077837201139  1.0000
  H   H168      1.0  0.3713139833951243  0.18093825629294122  0.1756315000603954  1.0000
  N   N7        1.0  0.8628512855417599  0.36587510473228824  0.34248061962702364  1.0000
  C   C169      1.0  0.8896433895432998  0.3883876006466287  0.3001458119775378  1.0000
  C   C170      1.0  0.8228399005186968  0.3666706926472759  0.3112282769514685  1.0000
  C   C171      1.0  0.8605841073503072  0.3792929252002414  0.41638127243452766  1.0000
  C   C172      1.0  0.8781564335731886  0.32914133504430065  0.34180529640229784  1.0000
  H   H169      1.0  0.9194358020633526  0.39033801938816165  0.32393565580899203  1.0000
  H   H170      1.0  0.8776711640478493  0.41577054471092584  0.29548040344513077  1.0000
  H   H171      1.0  0.8940655015609538  0.3777052311944412  0.24546208766379327  1.0000
  H   H172      1.0  0.8016247889772153  0.3502331235962695  0.3419059720934934  1.0000
  H   H173      1.0  0.8106026264447251  0.39408251430156777  0.3094522809558926  1.0000
  H   H174      1.0  0.8236069942501865  0.3565389818047123  0.2555995372551955  1.0000
  H   H175      1.0  0.8405410068916157  0.3629982707004786  0.449851064143623  1.0000
  H   H176      1.0  0.8494391876134261  0.40705729063770935  0.4186441124520729  1.0000
  H   H177      1.0  0.8902214723723859  0.3788789445316836  0.4419250534995178  1.0000
  H   H178      1.0  0.9081549015767537  0.3273674970817106  0.3652424505781863  1.0000
  H   H179      1.0  0.8807669020775386  0.3182538937726589  0.28681933023048545  1.0000
  H   H180      1.0  0.8586328425811502  0.31129554982204033  0.3728521480893066  1.0000
  N   N8        1.0  0.9267610420168995  0.15833026520326157  0.6288695064907993  1.0000
  C   C173      1.0  0.9219567095663209  0.1930864398116098  0.5947430341369752  1.0000
  C   C174      1.0  0.9035925624030565  0.1579332538469847  0.696049630790124  1.0000
  C   C175      1.0  0.9691964698555801  0.15192541009308466  0.6437700505415147  1.0000
  C   C176      1.0  0.9123038715622798  0.13038339688861839  0.5808079602224797  1.0000
  H   H181      1.0  0.9390582923132182  0.19441136783657148  0.5438909589511959  1.0000
  H   H182      1.0  0.9323223424624123  0.21486030197625344  0.6297024806466098  1.0000
  H   H183      1.0  0.8902301394367006  0.19876633445865974  0.5829144206217232  1.0000
  H   H184      1.0  0.9063664008120489  0.13208262571957613  0.7233088138415881  1.0000
  H   H185      1.0  0.9136764079994117  0.17875634034179916  0.7335343308079981  1.0000
  H   H186      1.0  0.8714491698636859  0.16307490666059377  0.6867793197418487  1.0000
  H   H187      1.0  0.9875465453019098  0.15228217480987946  0.5941811549859624  1.0000
  H   H188      1.0  0.9739822236174757  0.12568382502854306  0.6685830662230442  1.0000
  H   H189      1.0  0.9810511277880787  0.1723809074581218  0.6802510647813911  1.0000
  H   H190      1.0  0.9155608226091779  0.10370741768264576  0.604553096953018  1.0000
  H   H191      1.0  0.9293071527917336  0.12990587249034835  0.5298091652189606  1.0000
  H   H192      1.0  0.8804270059484046  0.13441648084108385  0.5679567400392123  1.0000
  N   N9        1.0  0.08124006575950515  0.860815461833187  0.09253278206247684  1.0000
  C   C177      1.0  0.08039844399006602  0.8832228846556107  0.15719200988979254  1.0000
  C   C178      1.0  0.06716939649521314  0.8250674003719888  0.11030834303128145  1.0000
  C   C179      1.0  0.12226715734055493  0.8584485610016361  0.06383317391621968  1.0000
  C   C180      1.0  0.05505960371067453  0.8765344570889719  0.0386883940841205  1.0000
  H   H193      1.0  0.08913101847494143  0.9108742178386156  0.14545391016331766  1.0000
  H   H194      1.0  0.10077902332427602  0.8728565329304881  0.1982246738776441  1.0000
  H   H195      1.0  0.050129837468930516  0.8845010910259171  0.18154101399807065  1.0000
  H   H196      1.0  0.0363926807675472  0.825933270048246  0.1328859177976096  1.0000
  H   H197      1.0  0.06700819736433528  0.8074869398204704  0.0625722162926452  1.0000
  H   H198      1.0  0.0864585552113597  0.8122678684018004  0.15028511657383614  1.0000
  H   H199      1.0  0.14295599769506073  0.846524789829304  0.10267621715946751  1.0000
  H   H200      1.0  0.13384693588281693  0.884918967737954  0.049630027692054934  1.0000
  H   H201      1.0  0.12389197363028925  0.8417982498758194  0.014896196994898192  1.0000
  H   H202      1.0  0.05475429747563365  0.8601674772884303  0.9893765956385134  1.0000
  H   H203      1.0  0.0648272343361278  0.9035071392936286  0.02390515306747787  1.0000
  H   H204      1.0  0.02392494811366941  0.8789345854561237  0.05865048466215406  1.0000
  N   N10       1.0  0.7815153123507018  0.3733398328791987  0.9382580194676133  1.0000
  C   C181      1.0  0.7747677000117209  0.3506986181251896  0.0006833564172878949  1.0000
  C   C182      1.0  0.7568644476801057  0.40571689641281433  0.9456116782125312  1.0000
  C   C183      1.0  0.7703993967275616  0.3540470178854519  0.8730943894898742  1.0000
  C   C184      1.0  0.8238789129113144  0.38302043171781813  0.9338359837548877  1.0000
  H   H205      1.0  0.7935151072961882  0.326295019571746  0.9981130869015391  1.0000
  H   H206      1.0  0.7432788682292355  0.3422025366092853  0.004561416510499683  1.0000
  H   H207      1.0  0.7819148929686685  0.3647983616108632  0.050915999804530765  1.0000
  H   H208      1.0  0.7611456042320757  0.423470838696389  0.8994616144362947  1.0000
  H   H209      1.0  0.7246858558815761  0.39930121144280123  0.9492485898036351  1.0000
  H   H210      1.0  0.7645082809309224  0.42087878651522587  0.9944389565482936  1.0000
  H   H211      1.0  0.7872382711484155  0.3287090530627662  0.8673652384769076  1.0000
  H   H212      1.0  0.776373067403723  0.36979651895947013  0.8246395580836331  1.0000
  H   H213      1.0  0.7381874104774945  0.3476160711440987  0.8735137238472197  1.0000
  H   H214      1.0  0.8304300122600845  0.3989071916345732  0.8857951586938768  1.0000
  H   H215      1.0  0.8435529982507184  0.3592197848944177  0.9318283646657265  1.0000
  H   H216      1.0  0.8326674376406852  0.3990208106543465  0.9807078343623433  1.0000
  N   N11       1.0  0.9999342017015058  0.5929067581454915  0.07151209558363414  1.0000
  C   C185      1.0  0.028176314330635055  0.5738952771964471  0.11737533322511862  1.0000
  C   C186      1.0  0.015653131337493464  0.628131591754414  0.053924000175659126  1.0000
  C   C187      1.0  0.9615732798647797  0.5970209787999002  0.109537714152522  1.0000
  C   C188      1.0  0.993981563008794  0.5723550301019831  0.005528991157123464  1.0000
  H   H217      1.0  0.057629541344078376  0.5701873480387143  0.09083218605482068  1.0000
  H   H218      1.0  0.016872600125890536  0.5472876262864912  0.13184454022345582  1.0000
  H   H219      1.0  0.03276072933326968  0.5883383583787613  0.16829752336991244  1.0000
  H   H220      1.0  0.9949320545529609  0.643206747662868  0.01952385776062715  1.0000
  H   H221      1.0  0.02033923041010155  0.6443959837456037  0.1024994930883274  1.0000
  H   H222      1.0  0.04461090852050353  0.6261203724149323  0.024952288840196735  1.0000
  H   H223      1.0  0.939421073360945  0.6114990756920348  0.0772863764033942  1.0000
  H   H224      1.0  0.9648879588248703  0.6113225582593022  0.16092287865342758  1.0000
  H   H225      1.0  0.9488792287391132  0.5707869113261511  0.12195772814470152  1.0000
  H   H226      1.0  0.9725781404304178  0.5858133766162865  0.9699647413553513  1.0000
  H   H227      1.0  0.9815030653731369  0.5458321904444937  0.016987930610502966  1.0000
  H   H228      1.0  0.022315735994358873  0.5684170952619758  0.9753833500364821  1.0000
  N   N12       1.0  0.3810532085071524  0.9160812981389836  0.9194435009937683  1.0000
  C   C189      1.0  0.3990549417887374  0.9385502196759348  0.9746618518658594  1.0000
  C   C190      1.0  0.4053516186029201  0.9175319690848778  0.8536657313611989  1.0000
  C   C191      1.0  0.34036291595646534  0.9289374873463017  0.9051060289852244  1.0000
  C   C192      1.0  0.37933912393783464  0.8792112911567015  0.9442107372834635  1.0000
  H   H229      1.0  0.42961404164967815  0.9294365326582306  0.9876400740875775  1.0000
  H   H230      1.0  0.3812432238452851  0.9383738430716947  0.024707686078454305  1.0000
  H   H231      1.0  0.4008814360856549  0.9665900589471115  0.9577731147401177  1.0000
  H   H232      1.0  0.39242115413039935  0.901048120581904  0.8107373940117908  1.0000
  H   H233      1.0  0.4074429102612038  0.9449893033015817  0.8335462499122828  1.0000
  H   H234      1.0  0.4361088959635061  0.9075983163187599  0.8624391104765169  1.0000
  H   H235      1.0  0.3403599847027312  0.956740080195587  0.8865652356775868  1.0000
  H   H236      1.0  0.32126014192636276  0.928141732993727  0.9537677407549423  1.0000
  H   H237      1.0  0.32587949180166637  0.912498909954392  0.8636856807450193  1.0000
  H   H238      1.0  0.3607717131450577  0.8770570196767448  0.9931413707953927  1.0000
  H   H239      1.0  0.4093649915298409  0.8685942121241943  0.956540855933564  1.0000
  H   H240      1.0  0.36615718034936784  0.8616238507280555  0.9034043725994552  1.0000
  N   N13       1.0  0.8463103634430744  0.8854431993275819  0.31946223174973065  1.0000
  C   C193      1.0  0.8057102673589942  0.8720463881814576  0.30918355601713365  1.0000
  C   C194      1.0  0.8632006309248228  0.8968451224079581  0.2506793594486958  1.0000
  C   C195      1.0  0.8714252548179147  0.8570435271679  0.3487958208687316  1.0000
  C   C196      1.0  0.8450496387197385  0.9157876221943475  0.36933445988845315  1.0000
  H   H241      1.0  0.792216744015504  0.8631625895510467  0.3601917581490828  1.0000
  H   H242      1.0  0.8056524805856857  0.8489700174880159  0.27215257404893145  1.0000
  H   H243      1.0  0.7857836764631282  0.8926781446138601  0.2870141001025066  1.0000
  H   H244      1.0  0.8664705774742633  0.8742871517361573  0.21265907966900333  1.0000
  H   H245      1.0  0.8443156619710763  0.9174253294585009  0.22567477858899943  1.0000
  H   H246      1.0  0.8932187469097449  0.9083794634760023  0.25738136388257216  1.0000
  H   H247      1.0  0.9023058872057019  0.866053822516098  0.35700941175046497  1.0000
  H   H248      1.0  0.8732144297410768  0.8336815480280988  0.31268310234389296  1.0000
  H   H249      1.0  0.8598552983402624  0.8479564510756143  0.4009332178403715  1.0000
  H   H250      1.0  0.875196717347952  0.9267862338267707  0.37734391306746096  1.0000
  H   H251      1.0  0.833350609402106  0.9081412920161576  0.4224784912659141  1.0000
  H   H252      1.0  0.8260554264777894  0.9376857248915123  0.3494369714628154  1.0000
  N   N14       1.0  0.8209049968070025  0.6874705298722468  0.7782761493044639  1.0000
  C   C197      1.0  0.8075037932533431  0.6615917533903982  0.8314701612387007  1.0000
  C   C198      1.0  0.8462457068990973  0.7140457946868342  0.8127974224501511  1.0000
  C   C199      1.0  0.7859793050033254  0.7052625245630981  0.7474869533416242  1.0000
  C   C200      1.0  0.8438069662845009  0.6689992587134378  0.7213828191705796  1.0000
  H   H253      1.0  0.8330775427510309  0.6471574631217114  0.8547487973522292  1.0000
  H   H254      1.0  0.7877444617882832  0.6414973211268218  0.8076044946692822  1.0000
  H   H255      1.0  0.7908974743373891  0.6747607334469876  0.8760536775674407  1.0000
  H   H256      1.0  0.8304311280007923  0.7274380093031265  0.8580610462386925  1.0000
  H   H257      1.0  0.8736681149333968  0.7017584833992374  0.8342342605710324  1.0000
  H   H258      1.0  0.8553586737452837  0.7350025873288081  0.7749976953513539  1.0000
  H   H259      1.0  0.7950161784371885  0.7242236421993224  0.7057957318088882  1.0000
  H   H260      1.0  0.7687653786548894  0.7205864243113429  0.7884216281411102  1.0000
  H   H261      1.0  0.7656509377405339  0.6860557623625319  0.7222869336076395  1.0000
  H   H262      1.0  0.855072229012821  0.6877424498860785  0.6808748366796148  1.0000
  H   H263      1.0  0.8253146461224736  0.6494243710414527  0.6927208065049704  1.0000
  H   H264      1.0  0.8699568185234455  0.6545999191466665  0.7427688829026028  1.0000
  N   N15       1.0  0.6824555408987953  0.16116295607762585  0.06391535476536903  1.0000
  C   C201      1.0  0.7217575468257851  0.17412473343273882  0.0854776822245309  1.0000
  C   C202      1.0  0.6619606699816443  0.18855737402073616  0.02218505214272981  1.0000
  C   C203      1.0  0.6583669952322988  0.15308300996252605  0.12775692673568995  1.0000
  C   C204      1.0  0.6876753793799351  0.12886466597194016  0.02009110918887491  1.0000
  H   H265      1.0  0.7379125666380412  0.1544954561340098  0.11827858904707056  1.0000
  H   H266      1.0  0.7190994428414237  0.19905776787347093  0.1170003941351232  1.0000
  H   H267      1.0  0.7409705871725556  0.17975883994365247  0.038467921763781554  1.0000
  H   H268      1.0  0.6327127438420214  0.17912989360086504  0.0033694172140825707  1.0000
  H   H269      1.0  0.655980822485978  0.2128325559752511  0.05448585808375506  1.0000
  H   H270      1.0  0.6798622148055276  0.19646045387254804  0.9749178931582364  1.0000
  H   H271      1.0  0.6288402044339382  0.14248125950330776  0.11322401828474526  1.0000
  H   H272      1.0  0.6526576211091145  0.1771944030362403  0.16075548838036946  1.0000
  H   H273      1.0  0.6732979553521262  0.13315642668893082  0.16158903138394343  1.0000
  H   H274      1.0  0.658518726542359  0.11827949901022049  0.003154712346080224  1.0000
  H   H275      1.0  0.7032914417393639  0.10769340123211693  0.04981499430773528  1.0000
  H   H276      1.0  0.7055084506711687  0.13417680861919662  0.9712172881281298  1.0000
  N   N16       1.0  0.6345306163475958  0.5939157265134287  0.2795298326472256  1.0000
  C   C205      1.0  0.6586439405523742  0.5899283259390885  0.21380355181233698  1.0000
  C   C206      1.0  0.65847223793202  0.6110700868774989  0.3348356073764948  1.0000
  C   C207      1.0  0.6221584513518499  0.5587215628093531  0.3041434313669257  1.0000
  C   C208      1.0  0.5990189397840674  0.615935782448906  0.26539909792615296  1.0000
  H   H277      1.0  0.6691985875942188  0.6159240565955136  0.19450199489827086  1.0000
  H   H278      1.0  0.6413263374488065  0.5774074299035006  0.17064180038681798  1.0000
  H   H279      1.0  0.6855009235562212  0.5731633158451925  0.22263900714045304  1.0000
  H   H280      1.0  0.6412614275493017  0.6144157001034019  0.3853669310085667  1.0000
  H   H281      1.0  0.6857838770796733  0.5953897385206153  0.34632375109687014  1.0000
  H   H282      1.0  0.6678351043560493  0.6378407960877482  0.3181037563305805  1.0000
  H   H283      1.0  0.6028181320667627  0.5607658237311022  0.3523972569372094  1.0000
  H   H284      1.0  0.648218766790407  0.5417715547875842  0.3170771274059732  1.0000
  H   H285      1.0  0.6047880954715169  0.5446535649371934  0.26296643514654355  1.0000
  H   H286      1.0  0.5811798079481831  0.6208639343244203  0.31464655153201243  1.0000
  H   H287      1.0  0.5790848039670338  0.6029709600010511  0.2265879662711304  1.0000
  H   H288      1.0  0.6072672809225366  0.6423157911318935  0.24464415258038863  1.0000
  N   N17       1.0  0.643665537154077  0.8008324051537422  0.5617751125747625  1.0000
  C   C209      1.0  0.6472415540106531  0.8211388546974259  0.49540247506179713  1.0000
  C   C210      1.0  0.6444128374083199  0.7626466203565188  0.5448793728927194  1.0000
  C   C211      1.0  0.6058586514340557  0.8101914642384814  0.5983674843954392  1.0000
  C   C212      1.0  0.6772394396527968  0.809345466042974  0.6083971768561468  1.0000
  H   H289      1.0  0.6459578798024078  0.8500818926884985  0.5059030008187968  1.0000
  H   H290      1.0  0.6229405574741269  0.8146845755471712  0.45808821635443037  1.0000
  H   H291      1.0  0.675921143950479  0.8152697852088076  0.4673166050094032  1.0000
  H   H292      1.0  0.6425946641303509  0.7464347747925508  0.5937249303395042  1.0000
  H   H293      1.0  0.6190344867593026  0.755115364582296  0.5108617437660874  1.0000
  H   H294      1.0  0.67214741885135  0.7548411696815341  0.5157428483788883  1.0000
  H   H295      1.0  0.579890305112734  0.804802637997549  0.5642333579344452  1.0000
  H   H296      1.0  0.6044629738011498  0.8386719725945685  0.6132174728243792  1.0000
  H   H297      1.0  0.6016058161968232  0.7947330080970492  0.6478418728821019  1.0000
  H   H298      1.0  0.6757588860703  0.7944077408427959  0.6589896414778748  1.0000
  H   H299      1.0  0.6777425792877214  0.8379264911799743  0.6224925723879771  1.0000
  H   H300      1.0  0.7062805106934187  0.8027088129459266  0.5824458353805502  1.0000
  N   N18       1.0  0.9939352950507968  0.16833024873051702  0.17829170854557463  1.0000
  C   C213      1.0  0.017010478594789324  0.1674418573577909  0.2444307918597035  1.0000
  C   C214      1.0  0.003188736064309694  0.20084836140475806  0.13881242091780788  1.0000
  C   C215      1.0  0.9510205071747084  0.1679893082965622  0.19565923444652666  1.0000
  C   C216      1.0  0.004437271583033864  0.13712136873050768  0.13407734947830274  1.0000
  H   H301      1.0  0.00979837510593029  0.14376578215759775  0.27664617193271535  1.0000
  H   H302      1.0  0.010767163452630735  0.191168092911471  0.27805018839736895  1.0000
  H   H303      1.0  0.04952347818121128  0.16675170122063623  0.23337351553008379  1.0000
  H   H304      1.0  0.03529855114833902  0.20209621211766082  0.12462982762917796  1.0000
  H   H305      1.0  0.9860950647701618  0.20227581459953276  0.08863597244812693  1.0000
  H   H306      1.0  0.9954599533899804  0.22491567034913137  0.17078503137290002  1.0000
  H   H307      1.0  0.9419244865525107  0.19155299768217468  0.2277151106319637  1.0000
  H   H308      1.0  0.942665543031271  0.1440606706886899  0.2261964838773236  1.0000
  H   H309      1.0  0.9328849613625991  0.1682172029478399  0.14681620825953612  1.0000
  H   H310      1.0  0.036856453746863416  0.13563101501173877  0.12240549249426724  1.0000
  H   H311      1.0  0.9890276389289785  0.1378464129079318  0.08225688359166172  1.0000
  H   H312      1.0  0.995834338407251  0.11215756407248366  0.16074926561236103  1.0000
  N   N19       1.0  0.4517614993976589  0.36988704449267595  0.20220370732558837  1.0000
  C   C217      1.0  0.45380510865527457  0.33146370642944767  0.21525172715809976  1.0000
  C   C218      1.0  0.4504220128767306  0.3891868754786016  0.27069045023645116  1.0000
  C   C219      1.0  0.4155994973562338  0.3782737219124056  0.16177173392168887  1.0000
  C   C220      1.0  0.4871840704978314  0.3806378726861333  0.1609392516432473  1.0000
  H   H313      1.0  0.48043692209659217  0.3241208053948195  0.24649433357861467  1.0000
  H   H314      1.0  0.4552414035834982  0.3161313628699443  0.16455927422042493  1.0000
  H   H315      1.0  0.4273883595243878  0.32228140594467763  0.24571791441952856  1.0000
  H   H316      1.0  0.4242622456282121  0.3814324089273862  0.3034993530515538  1.0000
  H   H317      1.0  0.4773226961528006  0.38381004079050995  0.3026135523125708  1.0000
  H   H318      1.0  0.4483258583684715  0.4182579887340375  0.26271086927124043  1.0000
  H   H319      1.0  0.41335102232660187  0.40704153870533477  0.1500934034081347  1.0000
  H   H320      1.0  0.3882507169053085  0.3710671941134358  0.19187705986070244  1.0000
  H   H321      1.0  0.41539525785598636  0.36375015101778574  0.11015426101272596  1.0000
  H   H322      1.0  0.48593078270247625  0.40923310150109676  0.14772929212573382  1.0000
  H   H323      1.0  0.4897622147495171  0.3656876818209087  0.10996789238749805  1.0000
  H   H324      1.0  0.5149753229422807  0.37570521089542397  0.19068618634647708  1.0000
  N   N20       1.0  0.8495918223930037  0.6912857720633567  0.2400027359588492  1.0000
  C   C221      1.0  0.8122431704457858  0.6746799664605279  0.2174242359183747  1.0000
  C   C222      1.0  0.882488615084844  0.679546981127282  0.19260670009834802  1.0000
  C   C223      1.0  0.8584779774785379  0.6806411015589829  0.31330248768342117  1.0000
  C   C224      1.0  0.84522293181684  0.7301396105020789  0.2367260922128888  1.0000
  H   H325      1.0  0.804132347002945  0.6829758335742577  0.16297335815620562  1.0000
  H   H326      1.0  0.7870193273939313  0.682203657741637  0.2534225487561358  1.0000
  H   H327      1.0  0.8146855628328167  0.6453162021900818  0.21738061580562024  1.0000
  H   H328      1.0  0.886372102399475  0.6503872675210675  0.19351635014226945  1.0000
  H   H329      1.0  0.8768607462055034  0.6871187394460903  0.13684724885650604  1.0000
  H   H330      1.0  0.9110877307171942  0.691526894506866  0.20851579438125198  1.0000
  H   H331      1.0  0.8861271944142911  0.6930341450029955  0.33285535636715585  1.0000
  H   H332      1.0  0.8623886841677467  0.6515101813686188  0.3172710514186152  1.0000
  H   H333      1.0  0.8340170052477698  0.6884861420640421  0.3503805107497908  1.0000
  H   H334      1.0  0.8726855542482883  0.7436688176413336  0.25417376435064615  1.0000
  H   H335      1.0  0.8201839842902494  0.7398294033601346  0.27115878097084406  1.0000
  H   H336      1.0  0.8390092137076411  0.7389707315155521  0.18166578596876984  1.0000
  N   N21       1.0  0.3503309107989949  0.7214923672433768  0.6552075121671261  1.0000
  C   C225      1.0  0.3442188272063958  0.7562853203788424  0.6219835098341956  1.0000
  C   C226      1.0  0.3114860669374964  0.7050782881737064  0.6698206420403077  1.0000
  C   C227      1.0  0.37187633586775726  0.7261528542259332  0.7223036014626046  1.0000
  C   C228      1.0  0.3739033107513911  0.6984189009401867  0.6067470630190942  1.0000
  H   H337      1.0  0.3731048736076397  0.7686862585182263  0.60839937215924  1.0000
  H   H338      1.0  0.3277356916424676  0.7748505324316266  0.658263975745421  1.0000
  H   H339      1.0  0.32712322680144357  0.7539630110598818  0.5721112494345084  1.0000
  H   H340      1.0  0.31509519462097707  0.6789426037026065  0.6957965171351869  1.0000
  H   H341      1.0  0.29288869376560817  0.721681936037586  0.7064519365093527  1.0000
  H   H342      1.0  0.29447812257066797  0.7008997504411982  0.6203261634926879  1.0000
  H   H343      1.0  0.37684035797877213  0.7003950598906644  0.7489143119068178  1.0000
  H   H344      1.0  0.35479195051461004  0.7433716875726071  0.7601523914230628  1.0000
  H   H345      1.0  0.4013527851828716  0.7385117932874349  0.7132958703838516  1.0000
  H   H346      1.0  0.3784238083948957  0.6716129165955365  0.6292099677647659  1.0000
  H   H347      1.0  0.4038668590426367  0.7094090613550269  0.5958205535631407  1.0000
  H   H348      1.0  0.35910427476616297  0.6949149100335874  0.5547121387954783  1.0000
  N   N22       1.0  0.48815210749086774  0.5832028498260201  0.8267636870998594  1.0000
  C   C229      1.0  0.5088873143168613  0.5982660968455155  0.7645810444833715  1.0000
  C   C230      1.0  0.5098339841112706  0.5923480802157612  0.8919425613824662  1.0000
  C   C231      1.0  0.48659377346479205  0.544361862762305  0.8189884810756269  1.0000
  C   C232      1.0  0.4473274664986848  0.59785135609547  0.8317007284238808  1.0000
  H   H349      1.0  0.49328264318353054  0.5919386129619789  0.7143671994790789  1.0000
  H   H350      1.0  0.5397793649170839  0.5877060147464528  0.7593259996227318  1.0000
  H   H351      1.0  0.5106686617183517  0.6275492318408359  0.7688944888724486  1.0000
  H   H352      1.0  0.49474216201825894  0.5816357377358066  0.9397205279898669  1.0000
  H   H353      1.0  0.5405960269932618  0.5812973610160929  0.8909029930505018  1.0000
  H   H354      1.0  0.5115341477626423  0.6214581077435255  0.8999870882928382  1.0000
  H   H355      1.0  0.5169184446284282  0.5323001704191604  0.8169209934838603  1.0000
  H   H356      1.0  0.47089307536239805  0.5363774148141224  0.7699423505398234  1.0000
  H   H357      1.0  0.4708606144029592  0.5321303140848098  0.8647521163027211  1.0000
  H   H358      1.0  0.43083993231733314  0.586958373319133  0.8780290231703728  1.0000
  H   H359      1.0  0.4300064599186002  0.5916529510619634  0.7833837959445689  1.0000
  H   H360      1.0  0.44741487925538637  0.6270786685630424  0.8386782298259875  1.0000
  N   N23       1.0  0.34411947566356793  0.9147733800736151  0.40669598545210794  1.0000
  C   C233      1.0  0.30874860519502745  0.8924925720808925  0.41637115233334315  1.0000
  C   C234      1.0  0.35522453348479655  0.9154404068306548  0.33063913338753864  1.0000
  C   C235      1.0  0.37741682789275444  0.9001062550731793  0.4478876928023409  1.0000
  C   C236      1.0  0.33514523594754886  0.9511385698680769  0.4316378435931933  1.0000
  H   H361      1.0  0.2993620518300464  0.8913956388672746  0.47316958637571926  1.0000
  H   H362      1.0  0.3147510595413642  0.8649335196410443  0.39778033224585907  1.0000
  H   H363      1.0  0.2831455138389613  0.902843380724757  0.38570762345620835  1.0000
  H   H364      1.0  0.3631109712965564  0.8886132406136404  0.3098930165340524  1.0000
  H   H365      1.0  0.33065841975486104  0.9261107743601928  0.29785021174832904  1.0000
  H   H366      1.0  0.38139941791943166  0.9324517065854426  0.32125067839781046  1.0000
  H   H367      1.0  0.36941109139545125  0.8974894996194641  0.5050374021576133  1.0000
  H   H368      1.0  0.40380168656961996  0.9175135694997255  0.4449110079170231  1.0000
  H   H369      1.0  0.38694459588008967  0.8736165793644105  0.4274568091748779  1.0000
  H   H370      1.0  0.3262167391914702  0.9517117468851832  0.4886866788150705  1.0000
  H   H371      1.0  0.3107042098000175  0.9633901571509992  0.40074579620027695  1.0000
  H   H372      1.0  0.36158310254639053  0.9684086002155443  0.4255433100323615  1.0000
  N   N24       1.0  0.015588628071800725  0.32922302519207663  0.7759552243162333  1.0000
  C   C237      1.0  0.9789463609906603  0.30857602937613465  0.7849729172517376  1.0000
  C   C238      1.0  0.02732344276983567  0.3438095826013835  0.8454921248716155  1.0000
  C   C239      1.0  0.008308391295446693  0.35837921473388934  0.7260892879339853  1.0000
  C   C240      1.0  0.0476473952424048  0.3060504013426848  0.7472182451416257  1.0000
  H   H373      1.0  0.954413342026335  0.3250200055372615  0.808378136167213  1.0000
  H   H374      1.0  0.9837156288790176  0.28614954287363037  0.8215945522797059  1.0000
  H   H375      1.0  0.9684901901514493  0.29776635588931094  0.7334118075653077  1.0000
  H   H376      1.0  0.055109379320688046  0.3592894942898258  0.8410971785918269  1.0000
  H   H377      1.0  0.0036823156654348654  0.36145573344854554  0.8684283276666279  1.0000
  H   H378      1.0  0.032260690805673065  0.3224576487942682  0.8848128953169847  1.0000
  H   H379      1.0  0.035130172055294784  0.3748808532749738  0.7185046410637  1.0000
  H   H380      1.0  0.9834961308852692  0.37592636247139216  0.7447708366579475  1.0000
  H   H381      1.0  4.23125218835807e-05  0.3481004907976003  0.6729469453058521  1.0000
  H   H382      1.0  0.05433206599796958  0.28386993332321725  0.7836220824219294  1.0000
  H   H383      1.0  0.07565937507141918  0.32084860285797334  0.7383670520036995  1.0000
  H   H384      1.0  0.0395209930800402  0.29434158765109186  0.6950075535963579  1.0000
