data_image0
_chemical_formula_structural       FeS2FeS2FeSFeS3FeS2FeS2FeSFeS3FeS2FeS2FeSFeS3FeS2FeS2FeSFeS3FeS2FeS2FeSFeS3FeS2FeS2FeSFeS3FeS2FeS2FeSFeS3FeS2FeS2FeSFeS3FeS2FeS2FeSFeS3FeS2FeS2FeSFeS3FeS2FeS2FeSFeS3FeS2FeS2FeSFeS3C6H4C6H4C6H4C6H4C6H4C6H4C6H4C6H4C6H4C6H4C6H4C6H4C6H4C6H4C6H4C6H4C6H4C6H4C6H4C6H4C6H4C6H4C6H4C6H4NC4H12NC4H12NC4H12NC4H12NC4H12NC4H12NC4H12NC4H12NC4H12NC4H12NC4H12NC4H12NC4H12NC4H12NC4H12NC4H12NC4H12NC4H12NC4H12NC4H12NC4H12NC4H12NC4H12NC4H12
_chemical_formula_sum              "Fe48 S96 C240 H384 N24"
_cell_length_a       32.82871175244752
_cell_length_b       25.97600209620662
_cell_length_c       38.08292913750447
_cell_angle_alpha    90.6710461922896
_cell_angle_beta     89.63185972385145
_cell_angle_gamma    89.67053942710537

_space_group_name_H-M_alt    "P 1"
_space_group_IT_number       1

loop_
  _space_group_symop_operation_xyz
  'x, y, z'

loop_
  _atom_site_type_symbol
  _atom_site_label
  _atom_site_symmetry_multiplicity
  _atom_site_fract_x
  _atom_site_fract_y
  _atom_site_fract_z
  _atom_site_occupancy
  Fe  Fe1       1.0  0.09004358631066249  0.09587082395178384  0.5099866658433034  1.0000
  S   S1        1.0  0.10184974626910015  0.13690547868643566  0.560973363162314  1.0000
  S   S2        1.0  0.09589409641358164  0.010139662451791322  0.5040743445189353  1.0000
  Fe  Fe2       1.0  0.05721201675887367  0.19139471870856992  0.4745503306028752  1.0000
  S   S3        1.0  0.06453016023320624  0.24078935428029113  0.5229005566676282  1.0000
  S   S4        1.0  0.02957967911847814  0.22668107694688058  0.42620837953019974  1.0000
  Fe  Fe3       1.0  0.12495684644888275  0.2008976532665236  0.5273824695527122  1.0000
  S   S5        1.0  0.18214802554166726  0.2459166617564341  0.5369037577879351  1.0000
  Fe  Fe4       1.0  0.040738629325783204  0.1728934425433451  0.5524106166330248  1.0000
  S   S6        1.0  0.9966798541138014  0.17217354897936216  0.597755401703231  1.0000
  S   S7        1.0  0.11959580036953253  0.1559907281914749  0.47691914185122397  1.0000
  S   S8        1.0  0.027045285477394376  0.12742917189137773  0.5036609162421793  1.0000
  Fe  Fe5       1.0  0.11082091900340985  0.8966289798398817  0.6769649230931548  1.0000
  S   S9        1.0  0.08631157927106359  0.8188500659135854  0.6632364642668188  1.0000
  S   S10       1.0  0.1635947822933747  0.9305456202286227  0.647944202111251  1.0000
  Fe  Fe6       1.0  0.049392889050993816  0.9143785435640229  0.7361020429794964  1.0000
  S   S11       1.0  0.02026696971682318  0.8370902923196819  0.7280670568731502  1.0000
  S   S12       1.0  0.03163419101401477  0.9749135799077682  0.7762688085764924  1.0000
  Fe  Fe7       1.0  0.08444750071902718  0.8081966161309593  0.7216512080951022  1.0000
  S   S13       1.0  0.11033886935753758  0.7351791411904696  0.7433959592748854  1.0000
  Fe  Fe8       1.0  0.025100519364162466  0.8557593175510115  0.670805796741756  1.0000
  S   S14       1.0  0.9744061315512692  0.8448125036204774  0.6323852288678863  1.0000
  S   S15       1.0  0.1133235244866727  0.8838260600620143  0.7348965607942265  1.0000
  S   S16       1.0  0.04969878250063453  0.9351460298079236  0.6790946309052405  1.0000
  Fe  Fe9       1.0  0.7635141557874334  0.9791969354779828  0.5585989241609753  1.0000
  S   S17       1.0  0.7402512873590273  0.9803290223160938  0.6141648673701053  1.0000
  S   S18       1.0  0.7603276055073611  0.9106139197855222  0.5223957112567332  1.0000
  Fe  Fe10      1.0  0.7904184766705551  0.09042787960100371  0.5616532693201246  1.0000
  S   S19       1.0  0.770202850113705  0.10126523014180223  0.617317444468246  1.0000
  S   S20       1.0  0.821048882925412  0.15438728406095997  0.5332969564615764  1.0000
  Fe  Fe11      1.0  0.7980264148722209  0.023253171340015033  0.625301083326551  1.0000
  S   S21       1.0  0.8392707542321749  0.008879899926590218  0.6709527597098706  1.0000
  Fe  Fe12      1.0  0.7146585293163795  0.05789169003021755  0.6006631632191962  1.0000
  S   S22       1.0  0.6509251481637391  0.08629624770582484  0.6117555072677718  1.0000
  S   S23       1.0  0.8232273061535026  0.016334855556151773  0.5706825163617105  1.0000
  S   S24       1.0  0.7328044205995816  0.053126962238584374  0.5439012466243484  1.0000
  Fe  Fe13      1.0  0.6136544435258788  0.4595385445283127  0.6482359383128035  1.0000
  S   S25       1.0  0.608400940281485  0.3795096962633946  0.6262710837160494  1.0000
  S   S26       1.0  0.6448668429208957  0.5239245912390382  0.6202929846641159  1.0000
  Fe  Fe14      1.0  0.5657621298283926  0.4349964406046915  0.7144067777187281  1.0000
  S   S27       1.0  0.5556397166820982  0.3527212050546284  0.6984319018144188  1.0000
  S   S28       1.0  0.5456830493943989  0.46878238109478076  0.7662028359946224  1.0000
  Fe  Fe15      1.0  0.6211675640383915  0.3545613494511559  0.6813527815592891  1.0000
  S   S29       1.0  0.667121013430299  0.2942937095583021  0.6961313235373604  1.0000
  Fe  Fe16      1.0  0.5435665818271322  0.3855310793627443  0.6451602288357714  1.0000
  S   S30       1.0  0.4917935238150977  0.3645312189871384  0.6099013126558558  1.0000
  S   S31       1.0  0.63240857274243  0.43432447430256294  0.7017615379730534  1.0000
  S   S32       1.0  0.5477423846661185  0.46788905302889283  0.6626499528204123  1.0000
  Fe  Fe17      1.0  0.5467939669261689  0.6639402075540505  0.4770824952352909  1.0000
  S   S33       1.0  0.5181485213226149  0.7042582182426672  0.5232968497664976  1.0000
  S   S34       1.0  0.5553383971016126  0.5782563189156611  0.4793233065120526  1.0000
  Fe  Fe18      1.0  0.5602125600680709  0.763381177480644  0.4382417301857658  1.0000
  S   S35       1.0  0.53271934964116  0.8120926814358586  0.48145153029791793  1.0000
  S   S36       1.0  0.5827419979217069  0.8033441469533574  0.390084866200249  1.0000
  Fe  Fe19      1.0  0.568532202975302  0.7609322971697285  0.5168544458247952  1.0000
  S   S37       1.0  0.6028586763586158  0.7889360405014155  0.5640178619720015  1.0000
  Fe  Fe20      1.0  0.48516364621772917  0.7504893095909394  0.48333681406753254  1.0000
  S   S38       1.0  0.4187213097890359  0.7651639400838857  0.4936615625939884  1.0000
  S   S39       1.0  0.6001566926963311  0.7170067771257442  0.47357923736488056  1.0000
  S   S40       1.0  0.5096530601746736  0.705706748525866  0.4369577629563949  1.0000
  Fe  Fe21      1.0  0.21624528093319662  0.5142274307554177  0.5904944062660453  1.0000
  S   S41       1.0  0.2335011871497635  0.5411956391092504  0.6444794377237241  1.0000
  S   S42       1.0  0.15497299919979698  0.47771692699153084  0.5825663943734573  1.0000
  Fe  Fe22      1.0  0.29575215343557815  0.548107627395337  0.5584654906241907  1.0000
  S   S43       1.0  0.3206143350236743  0.5780900950201906  0.6092073788048596  1.0000
  S   S44       1.0  0.33409326361892316  0.5490210771115006  0.5099086380698292  1.0000
  Fe  Fe23      1.0  0.29453921056212196  0.5062580477079827  0.6318417312197055  1.0000
  S   S45       1.0  0.32860623345865947  0.4597871542186631  0.6713070352303677  1.0000
  Fe  Fe24      1.0  0.25789788282253917  0.6108102497584919  0.6173207446367533  1.0000
  S   S46       1.0  0.2499583462737329  0.6935736630082319  0.6340868172269905  1.0000
  S   S47       1.0  0.27527564703695195  0.4728802205636932  0.5803121838119879  1.0000
  S   S48       1.0  0.2350258411232218  0.587084982152315  0.5641376406221913  1.0000
  Fe  Fe25      1.0  0.9976733440666453  0.9128626662245741  0.9620214718034693  1.0000
  S   S49       1.0  0.03139584795811756  0.852343024944852  0.9916567353556355  1.0000
  S   S50       1.0  0.9602223806821469  0.8842054041855427  0.9168530740364115  1.0000
  Fe  Fe26      1.0  0.031220368196685166  0.9998091694972184  0.006815977435758125  1.0000
  S   S51       1.0  0.0678641959711539  0.9470175182387663  0.04057352581012008  1.0000
  S   S52       1.0  0.035029192588674096  0.08552276200516618  0.013953502247375127  1.0000
  Fe  Fe27      1.0  0.08363714346589786  0.9070244726034309  0.9898099757130925  1.0000
  S   S53       1.0  0.14737802803837163  0.880561206954495  0.9779897281747904  1.0000
  Fe  Fe28      1.0  0.012229866703339587  0.897362117199219  0.03949390056345736  1.0000
  S   S54       1.0  0.9864720195313005  0.860514777505988  0.08767327165980343  1.0000
  S   S55       1.0  0.051786894606999034  0.963827478171139  0.9557674267416342  1.0000
  S   S56       1.0  0.9737321143302438  0.9538779132163603  0.010087120498642577  1.0000
  Fe  Fe29      1.0  0.05898909614651959  0.3416474825584034  0.2035059340312524  1.0000
  S   S57       1.0  0.04288869053876376  0.2717535172395044  0.23439082956717486  1.0000
  S   S58       1.0  0.027294433262954776  0.41745541848802703  0.21236634273009494  1.0000
  Fe  Fe30      1.0  0.12732506282670267  0.2883353667793004  0.16413575873115993  1.0000
  S   S59       1.0  0.11772994459337482  0.21365233968772568  0.19161871726119775  1.0000
  S   S60       1.0  0.1742612565841035  0.29522012702112216  0.1213479260467848  1.0000
  Fe  Fe31      1.0  0.05141587474094811  0.22900810395079324  0.18340058806259288  1.0000
  S   S61       1.0  0.012220105563450323  0.16041288397006198  0.17125364724508338  1.0000
  Fe  Fe32      1.0  0.1102946322155347  0.2622729050009858  0.240308948449603  1.0000
  S   S62       1.0  0.13993340363993556  0.23447929079258914  0.2897681431631643  1.0000
  S   S63       1.0  0.06122816293468891  0.30011244881003124  0.15153585379010134  1.0000
  S   S64       1.0  0.12617424411101497  0.33596961609645065  0.21352649028547688  1.0000
  Fe  Fe33      1.0  0.3951296635002003  0.04862984051525965  0.053832570276248326  1.0000
  S   S65       1.0  0.3824083190637882  0.028818473442153495  0.10984778424966027  1.0000
  S   S66       1.0  0.45851097862678747  0.053879614592404985  0.03239017798005839  1.0000
  Fe  Fe34      1.0  0.3062449865727572  0.05646663255957152  0.03519008329940054  1.0000
  S   S67       1.0  0.28519180571788577  0.036135332496784356  0.08931128860663909  1.0000
  S   S68       1.0  0.25822861925941676  0.07556087294029279  0.9959801119710808  1.0000
  Fe  Fe35      1.0  0.3341840630165511  0.0901785130601827  0.10687445107793375  1.0000
  S   S69       1.0  0.32207804351393177  0.1459991361680553  0.15113755787515898  1.0000
  Fe  Fe36      1.0  0.3349428047663149  0.9767678192939291  0.0870137376445965  1.0000
  S   S70       1.0  0.3263567838291703  0.8940538974732449  0.1018254550684707  1.0000
  S   S71       1.0  0.3514645912564412  0.11537794405685682  0.052867617363500985  1.0000
  S   S72       1.0  0.35143972340189217  0.991877695964509  0.030946710418617185  1.0000
  Fe  Fe37      1.0  0.5574918175037332  0.33637749864235245  0.9404702717125404  1.0000
  S   S73       1.0  0.5815846847167946  0.28764398554813  0.9841733541899318  1.0000
  S   S74       1.0  0.5449205751177522  0.3041372877014931  0.8864336716786458  1.0000
  Fe  Fe38      1.0  0.5497336018330939  0.43155589108601083  0.98631043988169  1.0000
  S   S75       1.0  0.5733781944018429  0.3922142566924018  0.03399680282624051  1.0000
  S   S76       1.0  0.5327912806378047  0.5153311011287458  0.9859238226537974  1.0000
  Fe  Fe39      1.0  0.6193517473759748  0.35670007135411935  0.9973372793228235  1.0000
  S   S77       1.0  0.6839034233802375  0.3501399329926369  0.015630373156772626  1.0000
  Fe  Fe40      1.0  0.5334271005886464  0.3267572874905681  0.01715598645368055  1.0000
  S   S78       1.0  0.4954906886176137  0.28873559495199214  0.05879080100937162  1.0000
  S   S79       1.0  0.5996199440847216  0.402381629935713  0.9508865752960303  1.0000
  S   S80       1.0  0.5056095455214801  0.36943206006036916  0.9723002090028773  1.0000
  Fe  Fe41      1.0  0.5081241774743264  0.6521527270639975  0.15669802875783131  1.0000
  S   S81       1.0  0.5085015528572432  0.7294471799458601  0.13093582903282808  1.0000
  S   S82       1.0  0.47472947502757873  0.5821274274054388  0.13790214449305604  1.0000
  Fe  Fe42      1.0  0.5665696027231502  0.6844222924353539  0.2140977637022365  1.0000
  S   S83       1.0  0.572368791552765  0.7646124328391798  0.19380851539907834  1.0000
  S   S84       1.0  0.5992665369197285  0.6517192519943545  0.2605281178803604  1.0000
  Fe  Fe43      1.0  0.504729328513041  0.7604190428606337  0.18618150736768588  1.0000
  S   S85       1.0  0.46763192771049883  0.8289050153559007  0.20402449979432022  1.0000
  Fe  Fe44      1.0  0.5757184118640517  0.7267003788384264  0.14077961587283558  1.0000
  S   S86       1.0  0.6222124601893456  0.7451138457156267  0.09965411358319853  1.0000
  S   S87       1.0  0.49844131564228183  0.683278280217645  0.21134225511603752  1.0000
  S   S88       1.0  0.5758322975316135  0.6465524026321475  0.16160551893739453  1.0000
  Fe  Fe45      1.0  0.8970134999205883  0.6008023735936343  0.08490008911665026  1.0000
  S   S89       1.0  0.8818825953598953  0.5864668206550675  0.14136805702957497  1.0000
  S   S90       1.0  0.9598599576249446  0.6218949396278076  0.06692215935017254  1.0000
  Fe  Fe46      1.0  0.8124530034390856  0.573111140169459  0.059916675453046686  1.0000
  S   S91       1.0  0.7899719028051765  0.5557786990421878  0.11412251835079411  1.0000
  S   S92       1.0  0.7719605026253747  0.5648139227863552  0.013092115897686663  1.0000
  Fe  Fe47      1.0  0.8232680042507432  0.6274368028682179  0.12923403734965835  1.0000
  S   S93       1.0  0.7905273545882814  0.6817228152492185  0.16593429076720537  1.0000
  Fe  Fe48      1.0  0.8502012573798107  0.5161288572153107  0.12063374960013228  1.0000
  S   S94       1.0  0.8561309984767003  0.43514690038279114  0.14033674859814066  1.0000
  S   S95       1.0  0.8413283054339453  0.6483366219650085  0.0743234271545965  1.0000
  S   S96       1.0  0.8699434446440641  0.5272948986500047  0.06491276279120917  1.0000
  C   C1        1.0  0.6702948421292195  0.7314860580817739  0.11713868986894989  1.0000
  C   C2        1.0  0.6785567367629223  0.7432335703978185  0.15229995921893222  1.0000
  C   C3        1.0  0.7163423353340589  0.7301698549412204  0.16673108664154324  1.0000
  C   C4        1.0  0.7452856853789016  0.7032052928018588  0.14648848194034972  1.0000
  C   C5        1.0  0.7369087877955606  0.691168745354833  0.11135385240089384  1.0000
  C   C6        1.0  0.6998384641903515  0.7063525630892423  0.09647386627249989  1.0000
  H   H1        1.0  0.6561471920676333  0.763387601891187  0.16823625784749097  1.0000
  H   H2        1.0  0.7228333617628574  0.7405238599798779  0.19368575265143648  1.0000
  H   H3        1.0  0.7589644214837753  0.6703575305859434  0.09550881824175174  1.0000
  H   H4        1.0  0.6938341578733092  0.6977464580302285  0.0691666441249903  1.0000
  C   C7        1.0  0.7073552947962755  0.41026073689012055  0.01447994785047979  1.0000
  C   C8        1.0  0.7035927985741743  0.44215373334597874  0.9853217516699885  1.0000
  C   C9        1.0  0.7237685910500723  0.4896494526602329  0.9847251191332623  1.0000
  C   C10       1.0  0.7479507198452182  0.5048302275450377  0.01311678640774705  1.0000
  C   C11       1.0  0.7519005512772134  0.4725328967785377  0.04199723900501362  1.0000
  C   C12       1.0  0.7308825239569033  0.4259223742709255  0.04298243999589646  1.0000
  H   H5        1.0  0.685710174916266  0.42993352891048947  0.963037060909426  1.0000
  H   H6        1.0  0.7208150086984791  0.5144423651592321  0.9622242263441737  1.0000
  H   H7        1.0  0.7709731646550686  0.4834045125399724  0.06368321178811076  1.0000
  H   H8        1.0  0.7326214739837537  0.40190886294134126  0.06586441735233106  1.0000
  C   C13       1.0  0.5132170615110866  0.5342644183215017  0.026998428469029  1.0000
  C   C14       1.0  0.513494848963728  0.5863087139602601  0.036876275341598985  1.0000
  C   C15       1.0  0.5019560065651633  0.6012540752716711  0.07106168759021236  1.0000
  C   C16       1.0  0.48846894950418146  0.5643583885611254  0.09488389284270457  1.0000
  C   C17       1.0  0.4865473780022149  0.5125707006044983  0.08445553481445803  1.0000
  C   C18       1.0  0.49939077202793375  0.4974224195789316  0.0506760529045196  1.0000
  H   H9        1.0  0.523739100071898  0.614942708682884  0.018451753900833312  1.0000
  H   H10       1.0  0.503072681609804  0.6413492965428551  0.07887389270189749  1.0000
  H   H11       1.0  0.4760329209734598  0.48399364355356167  0.10281535677868874  1.0000
  H   H12       1.0  0.4985657353800775  0.45721665686005813  0.04304724570880314  1.0000
  C   C19       1.0  0.4734055651948807  0.11744607117386457  0.040532526123982615  1.0000
  C   C20       1.0  0.463884997980739  0.14054439084388418  0.07288715994204109  1.0000
  C   C21       1.0  0.47296753650007634  0.1924413381981573  0.07890118283059944  1.0000
  C   C22       1.0  0.4898410714791212  0.2221344262078589  0.05208067878635214  1.0000
  C   C23       1.0  0.4998847541671228  0.19884033962871056  0.019824497151358367  1.0000
  C   C24       1.0  0.49221609777306213  0.14623382892117295  0.014226922099817907  1.0000
  H   H13       1.0  0.449487938929335  0.11834760872885783  0.0933196774709193  1.0000
  H   H14       1.0  0.46620591044858734  0.20959861609504518  0.10420107661253408  1.0000
  H   H15       1.0  0.5124273742777202  0.22151973064688318  0.9988278830967768  1.0000
  H   H16       1.0  0.4991582427581557  0.12851654118447237  0.9890243197754024  1.0000
  C   C25       1.0  0.36365390080684634  0.8744946852305112  0.1316854428865284  1.0000
  C   C26       1.0  0.3810298344089876  0.8252488862269538  0.1286800299259061  1.0000
  C   C27       1.0  0.4127996524601889  0.8106305997883088  0.15104953487100997  1.0000
  C   C28       1.0  0.4266686682679795  0.8449611958980956  0.17683195196414378  1.0000
  C   C29       1.0  0.40845402412514487  0.8936094690192458  0.1804563455537549  1.0000
  C   C30       1.0  0.37712269579741964  0.9084651921186068  0.15780877346960903  1.0000
  H   H17       1.0  0.37053176782483815  0.7987605959429972  0.10859469578096917  1.0000
  H   H18       1.0  0.4263170059188019  0.7727213494555677  0.14846624074540143  1.0000
  H   H19       1.0  0.4189639920160328  0.9201638313078274  0.20050439552236032  1.0000
  H   H20       1.0  0.3633012465074871  0.9461763408222478  0.16069389826403555  1.0000
  C   C31       1.0  0.9770896087263369  0.4187072237432171  0.1970665738092931  1.0000
  C   C32       1.0  0.9545533166799933  0.4643762694926815  0.20016967414227954  1.0000
  C   C33       1.0  0.9167873812106925  0.4689111295193484  0.18361582827011458  1.0000
  C   C34       1.0  0.9011342569373255  0.4275623218476861  0.16432704515413826  1.0000
  C   C35       1.0  0.9225325436816634  0.3807428324625843  0.16292035664572568  1.0000
  C   C36       1.0  0.9607056723955621  0.3764048946766962  0.17909030178335753  1.0000
  H   H21       1.0  0.966800456199665  0.49680463962445376  0.21466127252275738  1.0000
  H   H22       1.0  0.8996564011275183  0.5043220375925107  0.186102325429329  1.0000
  H   H23       1.0  0.910195923548128  0.3482532889210144  0.14864743452599266  1.0000
  H   H24       1.0  0.9777814305675683  0.34076303475480957  0.17703962138797444  1.0000
  C   C37       1.0  0.2167111666686811  0.2562442055389098  0.12993945924520897  1.0000
  C   C38       1.0  0.2408619021312528  0.23769868431792432  0.10203469067396206  1.0000
  C   C39       1.0  0.2725517029181534  0.20254516709411355  0.10829682502708113  1.0000
  C   C40       1.0  0.28129722459196527  0.1877629054451075  0.14265153377687317  1.0000
  C   C41       1.0  0.25808644391285646  0.20778759359992863  0.17063605043199728  1.0000
  C   C42       1.0  0.22535438593447585  0.24126230342195593  0.16424645172017346  1.0000
  H   H25       1.0  0.2342662988279077  0.2493105943018942  0.07545754401146776  1.0000
  H   H26       1.0  0.2904875534057169  0.18739607796555507  0.08659617894705385  1.0000
  H   H27       1.0  0.2649568288708514  0.19669630124027823  0.19728009730565374  1.0000
  H   H28       1.0  0.2069965574159829  0.25574493383656516  0.1859519190734752  1.0000
  C   C43       1.0  0.9813784284075133  0.7934850648315291  0.08398702263069979  1.0000
  C   C44       1.0  0.007857105406812837  0.7644716808706298  0.06259305595872844  1.0000
  C   C45       1.0  0.0018404002281124932  0.7113577285936402  0.058198985400219394  1.0000
  C   C46       1.0  0.9691276886460234  0.6873120243717474  0.07495905821646187  1.0000
  C   C47       1.0  0.9432910081318135  0.7160184955763574  0.09710372417200674  1.0000
  C   C48       1.0  0.949578715138822  0.7690306197252802  0.1017603619295222  1.0000
  H   H29       1.0  0.033184480716110576  0.7828356534333035  0.0496869589715736  1.0000
  H   H30       1.0  0.02210063893370573  0.6891205245865588  0.041324485190514126  1.0000
  H   H31       1.0  0.9182518024719202  0.6975479865723193  0.1104880604713776  1.0000
  H   H32       1.0  0.9292410343092318  0.7912930663357681  0.11858947287394628  1.0000
  C   C49       1.0  0.17882723296595854  0.9347435167707987  0.979121436262186  1.0000
  C   C50       1.0  0.22115808662903114  0.9289355504606689  0.9806308303051503  1.0000
  C   C51       1.0  0.24587299223914041  0.9722237116751374  0.9857478673863787  1.0000
  C   C52       1.0  0.22834787187962177  0.021423685399214687  0.9875194208134026  1.0000
  C   C53       1.0  0.18622132987228104  0.027276329169529934  0.984249620108276  1.0000
  C   C54       1.0  0.1614471610627127  0.9839442608277867  0.9810004125777724  1.0000
  H   H33       1.0  0.23483392651641258  0.8910114911991411  0.9787193127700382  1.0000
  H   H34       1.0  0.2785263286676156  0.9676498833608733  0.987705103082709  1.0000
  H   H35       1.0  0.17253669806020316  0.0652179985472019  0.9849885881968181  1.0000
  H   H36       1.0  0.1288957722517723  0.9889757610656502  0.9801815423552783  1.0000
  C   C55       1.0  0.0253383143442929  0.10648750105965177  0.05716068722967882  1.0000
  C   C56       1.0  0.01315664711305442  0.07187266999319626  0.08301641231355306  1.0000
  C   C57       1.0  0.008243730258103987  0.08887349175634984  0.1179568539369685  1.0000
  C   C58       1.0  0.016192808388884927  0.14021760489750945  0.12717021408775708  1.0000
  C   C59       1.0  0.02798698718356052  0.1748094671753277  0.1012187609660234  1.0000
  C   C60       1.0  0.032209953270438074  0.15807164178055677  0.06623288968384955  1.0000
  H   H37       1.0  0.0076123919050274935  0.03199969091211918  0.07614017933605388  1.0000
  H   H38       1.0  0.998859197500327  0.06200413756081136  0.1379003410595709  1.0000
  H   H39       1.0  0.03360680752498402  0.2145768896560299  0.10801434835477211  1.0000
  H   H40       1.0  0.04140424899615569  0.18495698207380262  0.04623315648705861  1.0000
  C   C61       1.0  0.5918236213707505  0.7608351630771689  0.35481278980547615  1.0000
  C   C62       1.0  0.5971951541869039  0.7805098144222357  0.321043698912317  1.0000
  C   C63       1.0  0.6004103923638755  0.7470505275179005  0.2920065244898187  1.0000
  C   C64       1.0  0.5990993434089766  0.6938163117130077  0.29679559978755604  1.0000
  C   C65       1.0  0.595521914532185  0.6740474700247737  0.3307275271240744  1.0000
  C   C66       1.0  0.5913110166035735  0.707564985098522  0.35971589771697204  1.0000
  H   H41       1.0  0.5978027843347623  0.8217282164193923  0.317237278681988  1.0000
  H   H42       1.0  0.603734352055988  0.7625293759307007  0.265950019780317  1.0000
  H   H43       1.0  0.5944687849803854  0.6328497667797078  0.3345164180268509  1.0000
  H   H44       1.0  0.5873236747360856  0.6921839719451981  0.38578772862139754  1.0000
  C   C67       1.0  0.39439050430437367  0.7055084142908186  0.49774060756647676  1.0000
  C   C68       1.0  0.3591924063861061  0.7011217710493183  0.5184444235239252  1.0000
  C   C69       1.0  0.3405096226873579  0.65299769136109  0.5224169582329862  1.0000
  C   C70       1.0  0.3563537954632425  0.6096333459270642  0.5047829818730388  1.0000
  C   C71       1.0  0.39116275525274496  0.614220665242286  0.4837654125637016  1.0000
  C   C72       1.0  0.4104887384442243  0.6618712459671596  0.4807144318565079  1.0000
  H   H45       1.0  0.34692666129791794  0.7346639743163267  0.531922884998646  1.0000
  H   H46       1.0  0.31373574607299864  0.6495333259851491  0.5388817016202475  1.0000
  H   H47       1.0  0.40354507193138867  0.5807646046049785  0.4701693029321015  1.0000
  H   H48       1.0  0.4375180496151214  0.6648075362746342  0.4647136195406698  1.0000
  C   C73       1.0  0.5466057264269614  0.42192489233594255  0.7986822966563984  1.0000
  C   C74       1.0  0.5230228109625062  0.3774692109171417  0.7954165021393955  1.0000
  C   C75       1.0  0.5223630107414424  0.3415141835430323  0.8226383933310644  1.0000
  C   C76       1.0  0.5454961176538453  0.3498375468101917  0.8529577501943285  1.0000
  C   C77       1.0  0.5696007042494893  0.39383329615360907  0.8558008900220654  1.0000
  C   C78       1.0  0.5700959232835445  0.4298621501673452  0.8287270118919798  1.0000
  H   H49       1.0  0.5047349165565138  0.3713457841070422  0.7721973177198697  1.0000
  H   H50       1.0  0.5036640681680278  0.30747177551616717  0.820300528931075  1.0000
  H   H51       1.0  0.5884704428059988  0.3997879983438844  0.8784968307976809  1.0000
  H   H52       1.0  0.5888948096998476  0.4638436122072454  0.8309389697328922  1.0000
  C   C79       1.0  0.44630659205842316  0.38998963718987545  0.6271778334665765  1.0000
  C   C80       1.0  0.4421123594286154  0.3994692492504678  0.6632521893251717  1.0000
  C   C81       1.0  0.40570465281574614  0.42047291830622663  0.6767544404790959  1.0000
  C   C82       1.0  0.37418863595570967  0.43416945061020074  0.6540611631969782  1.0000
  C   C83       1.0  0.3789640583999004  0.4261967459488524  0.6178687962137458  1.0000
  C   C84       1.0  0.41447698709446357  0.4026930900932057  0.6045558794132091  1.0000
  H   H53       1.0  0.46670923609637965  0.38995684385300006  0.6808375627423134  1.0000
  H   H54       1.0  0.4022836228582751  0.4268979767313892  0.704750774966795  1.0000
  H   H55       1.0  0.35523367960000174  0.43760840891422464  0.6000765146592132  1.0000
  H   H56       1.0  0.41778106471711485  0.39559538917683573  0.5766183122327206  1.0000
  C   C85       1.0  0.6186837011498637  0.537829998227175  0.5816311071609926  1.0000
  C   C86       1.0  0.6094946714179141  0.5889946909680206  0.5739272041481567  1.0000
  C   C87       1.0  0.59065551795722  0.6012654748567934  0.5422650709192223  1.0000
  C   C88       1.0  0.580202129908461  0.5624086985631369  0.5183668975579631  1.0000
  C   C89       1.0  0.5888927352729714  0.5109756347435379  0.5262005522467601  1.0000
  C   C90       1.0  0.607995993127079  0.4986278175873351  0.5579595881117123  1.0000
  H   H57       1.0  0.6165169370327611  0.6191936220029364  0.5926575088110029  1.0000
  H   H58       1.0  0.5844408090383233  0.6409753033234689  0.5363939547937648  1.0000
  H   H59       1.0  0.5807783906212369  0.4807437630681136  0.5077883958014975  1.0000
  H   H60       1.0  0.6149698420031275  0.4589309249668215  0.5638767314285419  1.0000
  C   C91       1.0  0.6518985046291887  0.1412503555365747  0.6388068545712262  1.0000
  C   C92       1.0  0.683842084490565  0.1484032008710147  0.6623978506365509  1.0000
  C   C93       1.0  0.6874966250529864  0.19503301643972532  0.6808503281237416  1.0000
  C   C94       1.0  0.6591068103254979  0.23454594258169428  0.6758380493091991  1.0000
  C   C95       1.0  0.6261321386510679  0.22680464320206814  0.6533438504568357  1.0000
  C   C96       1.0  0.6225003064743097  0.1800086693067227  0.6348428348035872  1.0000
  H   H61       1.0  0.7057961775932928  0.11793125618725357  0.6664359588724188  1.0000
  H   H62       1.0  0.7128668034221863  0.2008197970014329  0.6984381275903001  1.0000
  H   H63       1.0  0.6040129736318937  0.2572609027068579  0.6495065952473235  1.0000
  H   H64       1.0  0.5976822004609742  0.17455750825568553  0.6166296227421432  1.0000
  C   C97       1.0  0.7197087100959643  0.8709030730805812  0.5338707881837327  1.0000
  C   C98       1.0  0.6941632663130423  0.851550475188758  0.5076596849562427  1.0000
  C   C99       1.0  0.6584904681528473  0.8254293423936633  0.516807281350636  1.0000
  C   C100      1.0  0.6487027227236805  0.8180128930932227  0.5521585396265878  1.0000
  C   C101      1.0  0.6751973075952356  0.8352656901719562  0.5783346449662499  1.0000
  C   C102      1.0  0.7107201011541348  0.8617374462992268  0.5691910822299878  1.0000
  H   H65       1.0  0.7010357099544151  0.8587286227881061  0.48030622879550333  1.0000
  H   H66       1.0  0.637983107308482  0.8126421312559857  0.4964545632412339  1.0000
  H   H67       1.0  0.6677597547245728  0.8293255391025708  0.605720435524813  1.0000
  H   H68       1.0  0.7308751911414951  0.8756477289507703  0.5894712973792936  1.0000
  C   C103      1.0  0.9763422617948768  0.91155364203138  0.8771834766457195  1.0000
  C   C104      1.0  0.9933718644283804  0.9607867601957608  0.8767713006111474  1.0000
  C   C105      1.0  0.009069215024741338  0.9806733827607719  0.8453943917891441  1.0000
  C   C106      1.0  0.008311675209690339  0.9511297058219681  0.8144241207960553  1.0000
  C   C107      1.0  0.9905489522561317  0.9023134760103649  0.8147136613369811  1.0000
  C   C108      1.0  0.9743336816684743  0.8827007596499241  0.845982343069134  1.0000
  H   H69       1.0  0.9940181054755317  0.9838654534976354  0.9005536859657124  1.0000
  H   H70       1.0  0.02246744568099213  0.01863788185752102  0.8453092920432734  1.0000
  H   H71       1.0  0.9890931137287521  0.8796273134583126  0.7908953940662411  1.0000
  H   H72       1.0  0.9610077614766306  0.8446972087651522  0.8460971880106848  1.0000
  C   C109      1.0  0.1554923888747279  0.7243551302570012  0.7196082327800981  1.0000
  C   C110      1.0  0.17208906369044893  0.7646640424632494  0.7004244558101185  1.0000
  C   C111      1.0  0.2031234567781101  0.7551670218609255  0.6760041879583675  1.0000
  C   C112      1.0  0.2176892028488565  0.7051574618776294  0.6702876101551498  1.0000
  C   C113      1.0  0.20331170893324482  0.6651842834785154  0.6913255394282979  1.0000
  C   C114      1.0  0.172272404033846  0.6748598996517358  0.7162084072234303  1.0000
  H   H73       1.0  0.1604025825497837  0.8032698382150181  0.7036591870675369  1.0000
  H   H74       1.0  0.21453199634766856  0.7866159676964857  0.6607376188269031  1.0000
  H   H75       1.0  0.21536913267184085  0.6267624131032975  0.687981078429777  1.0000
  H   H76       1.0  0.15999131399785288  0.6436630565451602  0.7315082872049411  1.0000
  C   C115      1.0  0.9336749909521379  0.8847987177297564  0.6452981597025276  1.0000
  C   C116      1.0  0.9358509981998124  0.9131737861855055  0.6766635814619326  1.0000
  C   C117      1.0  0.9052663401674158  0.9489705847484696  0.6853840266172686  1.0000
  C   C118      1.0  0.8729411592313829  0.9574857820433381  0.662448996670786  1.0000
  C   C119      1.0  0.8695736335891855  0.9272284466278393  0.6319566407447724  1.0000
  C   C120      1.0  0.8999720509375483  0.8908552051843768  0.6233603090693971  1.0000
  H   H77       1.0  0.9612066021063232  0.9078657538071141  0.6941862228862161  1.0000
  H   H78       1.0  0.9069176881993528  0.9706336525048482  0.7096847915514661  1.0000
  H   H79       1.0  0.8437877030665965  0.9320718585710779  0.614826774273618  1.0000
  H   H80       1.0  0.8978258504213855  0.8683853445239254  0.5993463879064944  1.0000
  C   C121      1.0  0.059210995005737566  0.226117721233045  0.3876073390024219  1.0000
  C   C122      1.0  0.04698160025653442  0.25606696424661357  0.3591255150135536  1.0000
  C   C123      1.0  0.07167759389147887  0.25915274610135797  0.3289915290280721  1.0000
  C   C124      1.0  0.10852489707762558  0.231933962688657  0.32715006471827623  1.0000
  C   C125      1.0  0.12037631237962021  0.20136523932712427  0.3553552724876002  1.0000
  C   C126      1.0  0.09563738342698769  0.19816147803092898  0.3853833795169987  1.0000
  H   H81       1.0  0.01885836762330606  0.2779701821257042  0.3607259805774386  1.0000
  H   H82       1.0  0.06267166530780459  0.28362128110286433  0.3076256084594607  1.0000
  H   H83       1.0  0.14868591018856314  0.17982123314034096  0.3538916582190765  1.0000
  H   H84       1.0  0.10485605014262189  0.17392606231148958  0.40668144063369543  1.0000
  C   C127      1.0  0.17240440139814597  0.3106391538490442  0.5473991765661015  1.0000
  C   C128      1.0  0.13756682730605543  0.3252513992717043  0.5664622187155125  1.0000
  C   C129      1.0  0.13147924657086124  0.3770616213150943  0.5761866333574176  1.0000
  C   C130      1.0  0.16025627163747305  0.41418947700091496  0.5669236853183922  1.0000
  C   C131      1.0  0.19422365532775163  0.39971302788336127  0.5467069369603546  1.0000
  C   C132      1.0  0.20054602603260893  0.34795962015131665  0.5373306624377464  1.0000
  H   H85       1.0  0.11596288481189941  0.2964597366913826  0.5747168192704883  1.0000
  H   H86       1.0  0.10510263787641855  0.38805986300337264  0.591797935526396  1.0000
  H   H87       1.0  0.21558562792241115  0.4284568033705021  0.5381216618000949  1.0000
  H   H88       1.0  0.22729295677033842  0.3368472641583618  0.5222200417359029  1.0000
  C   C133      1.0  0.9474095848689598  0.17071945767383942  0.5806132345509208  1.0000
  C   C134      1.0  0.9157624802882431  0.14955310414474712  0.6003407419224551  1.0000
  C   C135      1.0  0.8769820483347527  0.14433657458757723  0.585694659197658  1.0000
  C   C136      1.0  0.8694146753498327  0.1618857804462526  0.551730135102604  1.0000
  C   C137      1.0  0.9007984132146167  0.1844204474923027  0.5323598726889687  1.0000
  C   C138      1.0  0.9399583045641393  0.1882353101299869  0.546638782787108  1.0000
  H   H89       1.0  0.9213261118642802  0.13613136862304706  0.6266105324251561  1.0000
  H   H90       1.0  0.8529812363940114  0.12684167674125277  0.6008199248671069  1.0000
  H   H91       1.0  0.895092900216489  0.19790830634522014  0.5060502941167931  1.0000
  H   H92       1.0  0.9642869408187148  0.2050627588091672  0.5313843995341768  1.0000
  C   C139      1.0  0.11702787591618297  0.9858223617600419  0.5425764199115736  1.0000
  C   C140      1.0  0.14800861124705664  0.012667178857437733  0.5597643276745008  1.0000
  C   C141      1.0  0.1630465680915803  0.9948672413226255  0.5917943457966571  1.0000
  C   C142      1.0  0.14620691304547362  0.9511400895208691  0.6071264111667325  1.0000
  C   C143      1.0  0.11535915984047661  0.9240986360412928  0.5898674702581106  1.0000
  C   C144      1.0  0.10131219656394695  0.940906536553599  0.5572522572398768  1.0000
  H   H93       1.0  0.16042247484910546  0.047178279318262246  0.5483174649970161  1.0000
  H   H94       1.0  0.1868446222243511  0.015875803661248966  0.6051680298731729  1.0000
  H   H95       1.0  0.10240650806524734  0.8901493645009999  0.6015775897314779  1.0000
  H   H96       1.0  0.0775760281051072  0.9198924836211323  0.5438792440064221  1.0000
  N   N1        1.0  0.13028574630305823  0.33996801289557677  0.43983279717560614  1.0000
  C   C145      1.0  0.16968994694786632  0.36677544951432195  0.4364980420437443  1.0000
  C   C146      1.0  0.10704011198031194  0.36178500575430644  0.4699359868144945  1.0000
  C   C147      1.0  0.13780601433616324  0.28462022705240836  0.44564084126720266  1.0000
  C   C148      1.0  0.10651456806571735  0.34641840010543457  0.4073229641452726  1.0000
  H   H97       1.0  0.1878572211951557  0.3511798216453669  0.41392750889444757  1.0000
  H   H98       1.0  0.18839573592938685  0.3622175804251039  0.46058748619555656  1.0000
  H   H99       1.0  0.16529013041356588  0.408781269542662  0.432364602987038  1.0000
  H   H100      1.0  0.10051795900502736  0.40347370853362097  0.4664396305010753  1.0000
  H   H101      1.0  0.07736120063633956  0.34176103828965443  0.4734323832677049  1.0000
  H   H102      1.0  0.12410795015296427  0.35772824343111487  0.49487653783187013  1.0000
  H   H103      1.0  0.10872885174156344  0.26349715848753036  0.44898994361920297  1.0000
  H   H104      1.0  0.15617880678717144  0.27821175301718437  0.46964054361534935  1.0000
  H   H105      1.0  0.1544978017554386  0.266374847917006  0.42315559433730116  1.0000
  H   H106      1.0  0.07587961615293626  0.3285630954904324  0.4097981243122873  1.0000
  H   H107      1.0  0.12201308630956675  0.32783792264978123  0.38428038787612345  1.0000
  H   H108      1.0  0.10172006917367837  0.3877533659237668  0.40116605168898267  1.0000
  N   N2        1.0  0.11611527047767355  0.8770441010880737  0.8694879120429377  1.0000
  C   C149      1.0  0.10639783967587008  0.8726003818394197  0.8317138679784224  1.0000
  C   C150      1.0  0.11827432896826992  0.9320182532764245  0.8797888116804288  1.0000
  C   C151      1.0  0.15579570618557576  0.8519126703269094  0.8761356171294793  1.0000
  C   C152      1.0  0.08402596843971245  0.8516810780415005  0.8903710711710427  1.0000
  H   H109      1.0  0.10446737230812635  0.8316340640258099  0.8228876127750653  1.0000
  H   H110      1.0  0.12985271193260214  0.8916112099897239  0.8151810208575582  1.0000
  H   H111      1.0  0.07669219008067124  0.8911702050031187  0.8257498391365932  1.0000
  H   H112      1.0  0.12611530316765304  0.9366865236754188  0.9080760823135184  1.0000
  H   H113      1.0  0.1418140321086397  0.9526310755510192  0.8642950874243365  1.0000
  H   H114      1.0  0.08862478378384056  0.952010871925895  0.8755408394898769  1.0000
  H   H115      1.0  0.15521955729209536  0.8103462213533581  0.8686963093281733  1.0000
  H   H116      1.0  0.16408586753776902  0.8545987196865692  0.9044273523072869  1.0000
  H   H117      1.0  0.18072665292783593  0.8702222439388994  0.860862289273818  1.0000
  H   H118      1.0  0.09065353517457297  0.8539244916477641  0.9189923026353001  1.0000
  H   H119      1.0  0.08107003623724619  0.8103051444664772  0.8830065095977883  1.0000
  H   H120      1.0  0.05378772752682482  0.8701646174403684  0.886352489905101  1.0000
  N   N3        1.0  0.9711732696142056  0.9993209657561565  0.5593333431490408  1.0000
  C   C153      1.0  0.9579409989809728  0.025962812279822334  0.5272253351358808  1.0000
  C   C154      1.0  0.9812313712881239  0.9450371415731892  0.5507879836336272  1.0000
  C   C155      1.0  0.9379193886266006  0.0012473078329977572  0.5856043883231871  1.0000
  C   C156      1.0  0.007571832204542384  0.02502176630094599  0.5737413085685951  1.0000
  H   H121      1.0  0.9822128687320475  0.024811529954194  0.5066362820670324  1.0000
  H   H122      1.0  0.950526665370089  0.06723697517065941  0.5327705683168719  1.0000
  H   H123      1.0  0.9301705074987587  0.007995902885477024  0.5159104486376549  1.0000
  H   H124      1.0  0.9915148957286545  0.9238934321609782  0.5745001112748662  1.0000
  H   H125      1.0  0.9543444893024368  0.9241884306028639  0.5402183855645092  1.0000
  H   H126      1.0  0.0060925096460224815  0.942295383145545  0.5307918382436319  1.0000
  H   H127      1.0  0.9470180181894273  0.9821719830518523  0.6103413226938759  1.0000
  H   H128      1.0  0.9103253964473781  0.9811612946862036  0.5757772423823247  1.0000
  H   H129      1.0  0.9287371439554029  0.04155145264318416  0.592066431047515  1.0000
  H   H130      1.0  0.03291451616969043  0.025164934193063315  0.5542561420255965  1.0000
  H   H131      1.0  0.019065241253543697  0.0052652132021737685  0.5975256307878695  1.0000
  H   H132      1.0  0.001052421826459815  0.06587665048060054  0.5807892939865072  1.0000
  N   N4        1.0  0.10195513769712376  0.6402034678446772  0.6225400185579412  1.0000
  C   C157      1.0  0.0959599955677263  0.5856278956981363  0.6124859491204331  1.0000
  C   C158      1.0  0.14450280514398428  0.6548559166490046  0.6148920054098599  1.0000
  C   C159      1.0  0.0934940452431473  0.6471396989381683  0.66047979489085  1.0000
  C   C160      1.0  0.07396950079626846  0.6732315139834959  0.6023716470908209  1.0000
  H   H133      1.0  0.1165202919142398  0.5597458799594514  0.6275016956484403  1.0000
  H   H134      1.0  0.10283872838970455  0.5785991556565071  0.5841395260897211  1.0000
  H   H135      1.0  0.06415251493460385  0.5730442980471693  0.6175519873394366  1.0000
  H   H136      1.0  0.15189891321688398  0.6508288731434904  0.5864336867655338  1.0000
  H   H137      1.0  0.15055363458992396  0.6954363571226397  0.6229345837574166  1.0000
  H   H138      1.0  0.16646570293504664  0.6300254710892252  0.6291612395981144  1.0000
  H   H139      1.0  0.06155927704722797  0.6369075351395417  0.6672670653523253  1.0000
  H   H140      1.0  0.09811204708685695  0.6878242628990469  0.6691161841509834  1.0000
  H   H141      1.0  0.1138999127766127  0.6226322099761774  0.6765554509930741  1.0000
  H   H142      1.0  0.07785333978478319  0.7146651612195717  0.6094961417200246  1.0000
  H   H143      1.0  0.04154566593459985  0.6634053063018673  0.6076466243432738  1.0000
  H   H144      1.0  0.07942177582770782  0.6690035463316004  0.5736002637190198  1.0000
  N   N5        1.0  0.6018753542890992  0.9736972033360389  0.5467959885347317  1.0000
  C   C161      1.0  0.6162274315899785  0.017311136969266453  0.5255016476226212  1.0000
  C   C162      1.0  0.5674325808054653  0.9906667737598657  0.5693602902076391  1.0000
  C   C163      1.0  0.6354350937802388  0.9554037175880661  0.5691246777412411  1.0000
  C   C164      1.0  0.5886684266838931  0.9312731281636405  0.5233349338663874  1.0000
  H   H145      1.0  0.6425732071100015  0.005800108145462168  0.5084933348901275  1.0000
  H   H146      1.0  0.6264873360626615  0.04987508583178846  0.54250092197375  1.0000
  H   H147      1.0  0.5917476680165876  0.03209109380538023  0.5081884879430719  1.0000
  H   H148      1.0  0.5561145244088719  0.9585426070196285  0.5858377981071927  1.0000
  H   H149      1.0  0.5766837975430616  0.02249827619715905  0.5875018158668355  1.0000
  H   H150      1.0  0.5414784152476598  0.004899777351860868  0.5534628774795012  1.0000
  H   H151      1.0  0.645247921471822  0.9854387791847485  0.5881804131061853  1.0000
  H   H152      1.0  0.662602487802649  0.944730283899148  0.5530509470477488  1.0000
  H   H153      1.0  0.6262025025385175  0.9213092239461054  0.5846300691628212  1.0000
  H   H154      1.0  0.5785531174107249  0.8971780487010536  0.5385658569405728  1.0000
  H   H155      1.0  0.613941390287305  0.9180337626011018  0.5057281711421754  1.0000
  H   H156      1.0  0.5628903581262159  0.9431935765964418  0.5063819985210362  1.0000
  N   N6        1.0  0.3796703403622114  0.2963119829797046  0.11445113721780725  1.0000
  C   C165      1.0  0.3822948909578801  0.3433519994111475  0.09308779348726838  1.0000
  C   C166      1.0  0.34311658904358383  0.2989408072728694  0.13729594303956086  1.0000
  C   C167      1.0  0.4164012831231406  0.29214519968004427  0.13651429323375533  1.0000
  C   C168      1.0  0.37698557882842026  0.25078026237226875  0.09091806207950107  1.0000
  H   H157      1.0  0.40974529148035743  0.34223034324618273  0.07560933842432882  1.0000
  H   H158      1.0  0.38464762632935884  0.37852176280762073  0.10992163379451636  1.0000
  H   H159      1.0  0.35510210109859447  0.3477536186005116  0.07606502975029317  1.0000
  H   H160      1.0  0.3437680904539066  0.33310865432877407  0.15516483106181753  1.0000
  H   H161      1.0  0.3146539452355862  0.30133227486527714  0.12164286556792454  1.0000
  H   H162      1.0  0.3407778431641396  0.26411855466371786  0.1540035445314665  1.0000
  H   H163      1.0  0.41847053217369673  0.3248250991933946  0.15555243441411662  1.0000
  H   H164      1.0  0.44469679064808826  0.2926672734602185  0.12026359586020692  1.0000
  H   H165      1.0  0.41649375441285313  0.2557484444625257  0.15170460426787094  1.0000
  H   H166      1.0  0.37666132339062075  0.21425638262930685  0.10600577434671477  1.0000
  H   H167      1.0  0.4032241597785841  0.24882033764229075  0.07227966041910117  1.0000
  H   H168      1.0  0.348818274694432  0.2516998695638226  0.07486235688574339  1.0000
  N   N7        1.0  0.6379454464862289  0.5653307123792718  0.06436624178981165  1.0000
  C   C169      1.0  0.6398131448666192  0.5405536709684875  0.029273496492386416  1.0000
  C   C170      1.0  0.6106982080505553  0.5354883221266945  0.08743667152675423  1.0000
  C   C171      1.0  0.6219717840020429  0.6183172640407018  0.06116000484493478  1.0000
  C   C172      1.0  0.6792599486134371  0.5670655188504753  0.0795406025897863  1.0000
  H   H169      1.0  0.6610280280409778  0.5611446184187123  0.011412865546681639  1.0000
  H   H170      1.0  0.6093794813309087  0.5400480769268514  0.01661252828155657  1.0000
  H   H171      1.0  0.6504232475470415  0.49990020315207206  0.030886189666099014  1.0000
  H   H172      1.0  0.6080984016151738  0.553302200735081  0.11407513082501552  1.0000
  H   H173      1.0  0.5793511532328867  0.5334671378235539  0.07658720171327005  1.0000
  H   H174      1.0  0.6216903337102094  0.49514719381994254  0.09034172407783005  1.0000
  H   H175      1.0  0.6195492753342999  0.6378011264896986  0.08724347117944727  1.0000
  H   H176      1.0  0.5911068007594992  0.6188031514029948  0.04946353209706378  1.0000
  H   H177      1.0  0.6419013735969605  0.6422296449330687  0.04423913039697025  1.0000
  H   H178      1.0  0.6791775335717709  0.5869101691619215  0.10559890814707708  1.0000
  H   H179      1.0  0.7007475173712978  0.588373334037037  0.06226143208066626  1.0000
  H   H180      1.0  0.6920504581012851  0.527692226654597  0.08285722587399333  1.0000
  N   N8        1.0  0.7354816677328061  0.2554576709515469  0.5781271122618624  1.0000
  C   C173      1.0  0.7646947426712167  0.24168868937575597  0.6059201874742083  1.0000
  C   C174      1.0  0.7146260093673608  0.20846236860326403  0.5656078659208181  1.0000
  C   C175      1.0  0.7576005930643851  0.2791277138105324  0.5485437275927394  1.0000
  C   C176      1.0  0.7050673347143351  0.29246708795140713  0.5924279638245051  1.0000
  H   H181      1.0  0.7806642313157234  0.2762254919188342  0.6163574535858409  1.0000
  H   H182      1.0  0.7883943313102634  0.21429381934751768  0.5958169155339053  1.0000
  H   H183      1.0  0.7490459874500784  0.22303561850649156  0.6284354321279855  1.0000
  H   H184      1.0  0.6919296761750399  0.21728041279460308  0.5449397498828664  1.0000
  H   H185      1.0  0.7367020883719025  0.1799621247735119  0.5543110655975407  1.0000
  H   H186      1.0  0.6981593033253237  0.1891560234449068  0.587360558681176  1.0000
  H   H187      1.0  0.7365172055306691  0.28969891938731346  0.5269940587686243  1.0000
  H   H188      1.0  0.7808582522244927  0.2522103173646282  0.537169945861996  1.0000
  H   H189      1.0  0.7738267400547483  0.3145791386219577  0.5570678392870959  1.0000
  H   H190      1.0  0.6822997503349709  0.30354557304854357  0.5723010594208504  1.0000
  H   H191      1.0  0.7196623729764077  0.32833922282729144  0.6023366385417511  1.0000
  H   H192      1.0  0.6879545280314678  0.27590618161627045  0.6148219434899155  1.0000
  N   N9        1.0  0.028618647141855465  0.4962159417564493  0.1080740722461131  1.0000
  C   C177      1.0  0.07217853929330743  0.5003782984382228  0.11726326396955677  1.0000
  C   C178      1.0  0.004132901941609202  0.5285938825619507  0.13255045227479156  1.0000
  C   C179      1.0  0.015836496838614877  0.44191924442639363  0.11079499328992437  1.0000
  C   C180      1.0  0.022365003627520696  0.5139770596978982  0.0717707153028615  1.0000
  H   H193      1.0  0.09162333555094132  0.476249484803933  0.0994698899637183  1.0000
  H   H194      1.0  0.0777266922685989  0.4871752970747092  0.14462417079717627  1.0000
  H   H195      1.0  0.0828664801117894  0.5408758629073764  0.11560171550014608  1.0000
  H   H196      1.0  0.9708903274807372  0.524690964741823  0.12751446241150632  1.0000
  H   H197      1.0  0.009668706622230962  0.5178502335595507  0.1603278035896829  1.0000
  H   H198      1.0  0.01152291997008148  0.5701796456079642  0.12987650966147068  1.0000
  H   H199      1.0  0.031979101868799154  0.41685006172233474  0.09126792078248402  1.0000
  H   H200      1.0  0.9824464095141314  0.4376788952527059  0.10674838068053827  1.0000
  H   H201      1.0  0.022918846321354103  0.4263053694135387  0.13711429058968871  1.0000
  H   H202      1.0  0.9896137021206963  0.5120868241602666  0.06435656771953568  1.0000
  H   H203      1.0  0.04010196634699414  0.4903718535393108  0.05244198190539451  1.0000
  H   H204      1.0  0.031844009064486034  0.5548186985601532  0.0687590816651027  1.0000
  N   N10       1.0  0.46520639098954614  0.7535352642027924  0.32216468227296025  1.0000
  C   C181      1.0  0.44890039552788324  0.781424955259528  0.29164041155547193  1.0000
  C   C182      1.0  0.4926941989128305  0.7118832396114989  0.30963633752972997  1.0000
  C   C183      1.0  0.4313712067707863  0.7311478227502523  0.3426077642825864  1.0000
  C   C184      1.0  0.4880730980442908  0.7897107700275614  0.3447660463267748  1.0000
  H   H205      1.0  0.42744497823206823  0.8126791239535921  0.29983448317528544  1.0000
  H   H206      1.0  0.4325421828154533  0.7552025708260055  0.27325942705990375  1.0000
  H   H207      1.0  0.4738448444254059  0.7996406850989461  0.2762591782611764  1.0000
  H   H208      1.0  0.5071689312113695  0.691415614701607  0.3319016964059458  1.0000
  H   H209      1.0  0.47624878732308834  0.6827822442227619  0.293506220907641  1.0000
  H   H210      1.0  0.5175510032064498  0.7272972008317978  0.29288584944678453  1.0000
  H   H211      1.0  0.44294836937511434  0.7097289114585448  0.36574574404073285  1.0000
  H   H212      1.0  0.41334339475028986  0.7037555829763099  0.3263466932024362  1.0000
  H   H213      1.0  0.41017801134600596  0.7615491433160066  0.3527347166052492  1.0000
  H   H214      1.0  0.5012565517310429  0.7699318702748579  0.367893389253727  1.0000
  H   H215      1.0  0.4683473381770689  0.8215809316244296  0.3549061528573272  1.0000
  H   H216      1.0  0.5138676386323132  0.8074605339849741  0.3302535126396569  1.0000
  N   N11       1.0  0.01928523051679476  0.12489434404184374  0.2792046462315402  1.0000
  C   C185      1.0  0.02508238139453889  0.11429062847088645  0.31692363532089435  1.0000
  C   C186      1.0  0.001711829093387518  0.0793315638748866  0.2614428639780336  1.0000
  C   C187      1.0  0.05905027665910478  0.13684296299727983  0.2629338155031059  1.0000
  C   C188      1.0  0.9913622259595372  0.1693067692339978  0.27540448360167935  1.0000
  H   H217      1.0  0.03870559281747932  0.14794379476640263  0.3308371841017954  1.0000
  H   H218      1.0  0.04591292442675421  0.080933490564711  0.3208762656755797  1.0000
  H   H219      1.0  0.9956644428684565  0.10574971925060206  0.330267502790381  1.0000
  H   H220      1.0  0.9968504549385029  0.08660834751597024  0.23293143589445164  1.0000
  H   H221      1.0  0.022168565585814592  0.045195642496347554  0.2634264277019834  1.0000
  H   H222      1.0  0.9716923659142592  0.06900662768235577  0.27304337545735474  1.0000
  H   H223      1.0  0.07236082505936903  0.17217528329192033  0.27465024029280927  1.0000
  H   H224      1.0  0.0561450059142663  0.14358832251256515  0.23428087478687645  1.0000
  H   H225      1.0  0.08152905234657837  0.10515157753669957  0.26643834615914497  1.0000
  H   H226      1.0  0.9868103609679394  0.17886654915232691  0.2472202581020199  1.0000
  H   H227      1.0  0.0034821277241221527  0.20427859735845533  0.288836026169929  1.0000
  H   H228      1.0  0.9608650354041464  0.1614279446036866  0.2869881089697335  1.0000
  N   N12       1.0  0.6304227974482264  0.25901160838271603  0.7973473535069361  1.0000
  C   C189      1.0  0.6202880958632769  0.30552819212337945  0.7771338321398982  1.0000
  C   C190      1.0  0.6492307387073797  0.27445130759937264  0.8310037245046418  1.0000
  C   C191      1.0  0.6592026273885835  0.2265517735767289  0.776743032563123  1.0000
  C   C192      1.0  0.592904379313623  0.22954881697887572  0.8043954812980917  1.0000
  H   H229      1.0  0.6001537254484574  0.33207872576635483  0.7923130934506405  1.0000
  H   H230      1.0  0.6044932352991386  0.2955049231558597  0.7522369713371294  1.0000
  H   H231      1.0  0.6480602901916375  0.32757056598494355  0.7699592305888459  1.0000
  H   H232      1.0  0.6573436259743984  0.24035437633108092  0.8469964017408781  1.0000
  H   H233      1.0  0.6773836818850961  0.2972403503059448  0.8266557990327656  1.0000
  H   H234      1.0  0.6279684687554048  0.2986683444386418  0.8472111778170659  1.0000
  H   H235      1.0  0.6682560945596896  0.19146929946529637  0.7913035975860212  1.0000
  H   H236      1.0  0.6873870553035263  0.2480575821296328  0.7699578599200501  1.0000
  H   H237      1.0  0.6454606110895327  0.21381553137623413  0.7514374210964029  1.0000
  H   H238      1.0  0.5995275200091115  0.19381785664284804  0.8192018464069029  1.0000
  H   H239      1.0  0.5773258523737834  0.21835467842158032  0.7795936570629114  1.0000
  H   H240      1.0  0.5708160297583383  0.2524365388043209  0.8204876969175666  1.0000
  N   N13       1.0  0.8289676266340871  0.32958485519256614  0.06015394429909659  1.0000
  C   C193      1.0  0.8686763974379952  0.3559224575806038  0.06259204136549168  1.0000
  C   C194      1.0  0.8028041785057369  0.34611559188382346  0.08998375875169876  1.0000
  C   C195      1.0  0.8352645431191406  0.27323984363574116  0.06143893288805646  1.0000
  C   C196      1.0  0.8091062338560014  0.34312303370100605  0.026721132872165484  1.0000
  H   H241      1.0  0.8892629725845961  0.3447240096151799  0.04044585581460991  1.0000
  H   H242      1.0  0.8843839326980508  0.3466996994809865  0.08758436289143892  1.0000
  H   H243      1.0  0.8647832601387713  0.39858831637410597  0.06223131050294085  1.0000
  H   H244      1.0  0.7982557650871727  0.38863352656684963  0.09032153172117897  1.0000
  H   H245      1.0  0.772235953104684  0.3278143611410437  0.08880203305914774  1.0000
  H   H246      1.0  0.8167521738213526  0.3361621318418726  0.11564072121822998  1.0000
  H   H247      1.0  0.8057824167836308  0.25237533418522995  0.059456082772877616  1.0000
  H   H248      1.0  0.8499253878885272  0.261672092453263  0.08646908759377624  1.0000
  H   H249      1.0  0.8551743152796797  0.25932049237813043  0.0394923058328609  1.0000
  H   H250      1.0  0.8269652189543366  0.3289081707825525  0.003623070902717407  1.0000
  H   H251      1.0  0.8058826290760511  0.3855760670845066  0.024041896126509643  1.0000
  H   H252      1.0  0.7779343222858698  0.32642203248649365  0.024821119209977427  1.0000
  N   N14       1.0  0.713725935159371  0.6733306589494743  0.5585481641770577  1.0000
  C   C197      1.0  0.7088758791986874  0.6304945791072539  0.5834569571580934  1.0000
  C   C198      1.0  0.7450209865112505  0.6595006644761467  0.5319570708654356  1.0000
  C   C199      1.0  0.7263388213418804  0.7202238767481662  0.5778434519904081  1.0000
  C   C200      1.0  0.674615863897206  0.683263478747909  0.5408062852964745  1.0000
  H   H253      1.0  0.6982994139549962  0.5947174484477732  0.5699895351874124  1.0000
  H   H254      1.0  0.6860178469905516  0.6399906484451208  0.604321859037953  1.0000
  H   H255      1.0  0.7379424043014977  0.6211767744606381  0.5968728747069975  1.0000
  H   H256      1.0  0.7490689311071063  0.69094194828862  0.5125933566746409  1.0000
  H   H257      1.0  0.7750968231634752  0.6522141752528962  0.5443280000742589  1.0000
  H   H258      1.0  0.7363860690061452  0.6241071439578452  0.5170405075296579  1.0000
  H   H259      1.0  0.7027029790390906  0.7325361576163684  0.5973856518836647  1.0000
  H   H260      1.0  0.7311104813242046  0.7529832235612933  0.5596702635384943  1.0000
  H   H261      1.0  0.7552906811187663  0.7140417976159923  0.5922629058043528  1.0000
  H   H262      1.0  0.6769301260108193  0.7160782295811565  0.5223860044475038  1.0000
  H   H263      1.0  0.6500076997346764  0.6931080506371488  0.5600522981190531  1.0000
  H   H264      1.0  0.664460901784702  0.6491145255500881  0.5253343780578038  1.0000
  N   N15       1.0  0.4742211723634331  0.49218638152219985  0.8919460444434485  1.0000
  C   C201      1.0  0.5181676623964399  0.5026745318440451  0.8959298261198552  1.0000
  C   C202      1.0  0.45609214360248435  0.5308291574917137  0.8684175894335984  1.0000
  C   C203      1.0  0.454018677707474  0.4951058218923446  0.9267235559411927  1.0000
  C   C204      1.0  0.46870352085381467  0.44015840843823956  0.8766345414490673  1.0000
  H   H265      1.0  0.5333825986888234  0.47270404475218697  0.9119932961544073  1.0000
  H   H266      1.0  0.5234653585352282  0.540378296417031  0.9093006490386966  1.0000
  H   H267      1.0  0.5339524947287232  0.5037415650350083  0.8700486771378378  1.0000
  H   H268      1.0  0.45996776412828044  0.5705678283878955  0.8791052246413578  1.0000
  H   H269      1.0  0.47073376571016345  0.5293869367614734  0.8418872956274712  1.0000
  H   H270      1.0  0.422927961550468  0.5241648330759933  0.8647361213825486  1.0000
  H   H271      1.0  0.4207454058463339  0.4879253449326125  0.9248077317437454  1.0000
  H   H272      1.0  0.45831941995809433  0.5335220387156174  0.9394477489873828  1.0000
  H   H273      1.0  0.4669615148909272  0.4661834213810834  0.9449511020597632  1.0000
  H   H274      1.0  0.4832956053233988  0.41002932948620746  0.8930422733847461  1.0000
  H   H275      1.0  0.48251587670173535  0.4372146295038255  0.8499418396104433  1.0000
  H   H276      1.0  0.43593017604247425  0.43026600584871383  0.87411083210326  1.0000
  N   N16       1.0  0.9008020638120819  0.7878697309782621  0.9897246551263724  1.0000
  C   C205      1.0  0.8739315165505158  0.7950474386981417  0.95914205577822  1.0000
  C   C206      1.0  0.9088681463819611  0.8384052519276264  0.0064243689077976285  1.0000
  C   C207      1.0  0.9397160822248991  0.7643667021002575  0.9778979767057464  1.0000
  C   C208      1.0  0.8808439648094165  0.7537963782245904  0.015382908659185679  1.0000
  H   H277      1.0  0.8883016580762569  0.8205805678522465  0.9392776639880862  1.0000
  H   H278      1.0  0.8443713651446205  0.8130421320988271  0.9670635700400634  1.0000
  H   H279      1.0  0.8672081513011778  0.7576961547260567  0.9458447729747992  1.0000
  H   H280      1.0  0.9233176536018055  0.8651968405208532  0.9875214375816628  1.0000
  H   H281      1.0  0.8803414649570391  0.8570617256860174  0.01624464587520258  1.0000
  H   H282      1.0  0.9297057652588866  0.8347154685018499  0.029230553386769165  1.0000
  H   H283      1.0  0.9609039480352128  0.7591102975578186  0.0002556885935007802  1.0000
  H   H284      1.0  0.9554234467886343  0.7889584646020517  0.9582927964571202  1.0000
  H   H285      1.0  0.934921910492405  0.7258775174041581  0.9655318257251545  1.0000
  H   H286      1.0  0.8745205326634142  0.7151094639558621  0.003818342905630212  1.0000
  H   H287      1.0  0.8514000013519598  0.770296628355895  0.02500954712796677  1.0000
  H   H288      1.0  0.9003939698445791  0.7478207556567755  0.03874293317941091  1.0000
  N   N17       1.0  0.26221204378742136  0.3269398892569739  0.6363257862629483  1.0000
  C   C209      1.0  0.28810610353189525  0.3351559056761273  0.6050377830161102  1.0000
  C   C210      1.0  0.23609591482280037  0.28153467080639477  0.6303374004993499  1.0000
  C   C211      1.0  0.23635186044332845  0.372951236609502  0.6427124178292165  1.0000
  C   C212      1.0  0.2884210097357601  0.31823833114956124  0.6671564683149267  1.0000
  H   H289      1.0  0.3081860366833471  0.3690133598174972  0.6088368827388299  1.0000
  H   H290      1.0  0.2694651978604317  0.34227892585511954  0.5812809726045038  1.0000
  H   H291      1.0  0.30808226000069194  0.3012746364398385  0.5993398582228933  1.0000
  H   H292      1.0  0.21611251127649966  0.27406042832546973  0.6534012808737835  1.0000
  H   H293      1.0  0.2159387442347446  0.28696676864947207  0.607275485448252  1.0000
  H   H294      1.0  0.25456386405349657  0.2461867425314776  0.6250182351018007  1.0000
  H   H295      1.0  0.21618429308505896  0.36811696154097373  0.6660004806239682  1.0000
  H   H296      1.0  0.21653460139154057  0.38108798045280706  0.6198158605638346  1.0000
  H   H297      1.0  0.2551346774633123  0.40785141691546617  0.6475840735668582  1.0000
  H   H298      1.0  0.27000822280728226  0.3124045931767351  0.6913954003645911  1.0000
  H   H299      1.0  0.3086920872231643  0.3517770637555026  0.6721936316151503  1.0000
  H   H300      1.0  0.30845006030208877  0.28390626247618567  0.6632432487887379  1.0000
  N   N18       1.0  0.9773700434403085  0.08215990711159105  0.7026171508250749  1.0000
  C   C213      1.0  0.9665943115500985  0.054878903845816174  0.6697418127702611  1.0000
  C   C214      1.0  0.9637938361503458  0.13639373946303524  0.7005578150032553  1.0000
  C   C215      1.0  0.022011013050532213  0.08018704207398519  0.7074174370755706  1.0000
  C   C216      1.0  0.9570678192384329  0.0570947172863463  0.7326237955478714  1.0000
  H   H301      1.0  0.9805572876065605  0.07374778723830144  0.6465162578690767  1.0000
  H   H302      1.0  0.9329387994519767  0.05433662082144042  0.6658758462092498  1.0000
  H   H303      1.0  0.9772966161694072  0.014147857395683916  0.6700479212405286  1.0000
  H   H304      1.0  0.9712970317233235  0.15821920312692184  0.724964066530333  1.0000
  H   H305      1.0  0.9786021039204627  0.1563578287978069  0.6780811554580678  1.0000
  H   H306      1.0  0.9302397401101206  0.13912814906142534  0.6967045128586509  1.0000
  H   H307      1.0  0.031268439833654904  0.10064718465558009  0.7319144098582028  1.0000
  H   H308      1.0  0.038414860219487146  0.09798574250402692  0.6849617446416582  1.0000
  H   H309      1.0  0.033120478953411414  0.03979012042565855  0.7097328202338541  1.0000
  H   H310      1.0  0.9659624922108139  0.015733382898186044  0.7342999605230517  1.0000
  H   H311      1.0  0.9232655555529953  0.05876393213086373  0.7303102093805984  1.0000
  H   H312      1.0  0.9655725236476479  0.07543610377797916  0.7580827143902796  1.0000
  N   N19       1.0  0.46400067296577374  0.5402375480827541  0.5719592854033501  1.0000
  C   C217      1.0  0.4576710093593328  0.5420769638708344  0.6104290571817385  1.0000
  C   C218      1.0  0.4932644605159072  0.4986717006539827  0.5628794930883401  1.0000
  C   C219      1.0  0.48027174671477474  0.5900217127450348  0.560003845418973  1.0000
  C   C220      1.0  0.4247984529530502  0.5303066885490035  0.5543985167521511  1.0000
  H   H313      1.0  0.43521414803688746  0.5724646961914668  0.6181892338529426  1.0000
  H   H314      1.0  0.48664734332916676  0.5501018368626975  0.6244637954538631  1.0000
  H   H315      1.0  0.4460068637497245  0.5047775492270232  0.6203413061363414  1.0000
  H   H316      1.0  0.49983542168048184  0.49730726529397645  0.5341459381130992  1.0000
  H   H317      1.0  0.5227149159360824  0.5041058313279932  0.5767056494675443  1.0000
  H   H318      1.0  0.48148781552799014  0.46027887118081495  0.5704552628546358  1.0000
  H   H319      1.0  0.48567457069938724  0.5896562981534504  0.5310653964007522  1.0000
  H   H320      1.0  0.509828230609447  0.599022536404375  0.5727670421865737  1.0000
  H   H321      1.0  0.45874252092639317  0.622295167288139  0.5659377155536995  1.0000
  H   H322      1.0  0.4284011463833598  0.5288173158578275  0.5253098725491245  1.0000
  H   H323      1.0  0.4020294478548611  0.5610015555979229  0.560703575310939  1.0000
  H   H324      1.0  0.4113909244371068  0.49313356474171144  0.5625397142817449  1.0000
  N   N20       1.0  0.15683733037007608  0.12533256009994484  0.08154849262861652  1.0000
  C   C221      1.0  0.17155626291796047  0.1200534508415127  0.11794468360144617  1.0000
  C   C222      1.0  0.19161169364113673  0.12121510094193765  0.0568734387062686  1.0000
  C   C223      1.0  0.13680328304842213  0.1759874531707661  0.07754087185631375  1.0000
  C   C224      1.0  0.12735581217559513  0.08407643685374057  0.07369434522421159  1.0000
  H   H325      1.0  0.19305405930915176  0.15136318019311995  0.12497726813696608  1.0000
  H   H326      1.0  0.18799575658785142  0.08297086218611664  0.12161137701163427  1.0000
  H   H327      1.0  0.14595605716657983  0.12214098147915213  0.13724498481105551  1.0000
  H   H328      1.0  0.1820218222239761  0.12794637168172385  0.029333825098620814  1.0000
  H   H329      1.0  0.21557167115995587  0.14996188703818905  0.06291966984738662  1.0000
  H   H330      1.0  0.20625827239597785  0.08256850070327122  0.05773079790508362  1.0000
  H   H331      1.0  0.1221254596694944  0.17947719436909926  0.051393759799086114  1.0000
  H   H332      1.0  0.15902469701077082  0.2078678839038984  0.07989948431058913  1.0000
  H   H333      1.0  0.1129772811843568  0.18271062519444792  0.09800145515469127  1.0000
  H   H334      1.0  0.11563256347996084  0.08699885095433756  0.04637522146127737  1.0000
  H   H335      1.0  0.10061622853256302  0.08620583810306903  0.09178560280157533  1.0000
  H   H336      1.0  0.14137096809819386  0.04530861933020192  0.07615260873121832  1.0000
  N   N21       1.0  0.7125211794428822  0.5939913776256882  0.2324839914426415  1.0000
  C   C225      1.0  0.7517701555422323  0.5693345859925358  0.22271458721069554  1.0000
  C   C226      1.0  0.6907619436417359  0.5613014966865575  0.2579070101756186  1.0000
  C   C227      1.0  0.6874127975501915  0.6003199271478556  0.20070971857240033  1.0000
  C   C228      1.0  0.7201502342459402  0.6450719692501456  0.24859789125000928  1.0000
  H   H337      1.0  0.7688768481952553  0.592822539027174  0.20337158269053984  1.0000
  H   H338      1.0  0.7472269282129287  0.5306417441554385  0.21056642440891998  1.0000
  H   H339      1.0  0.7717616949349634  0.5646757554803006  0.24596229929858826  1.0000
  H   H340      1.0  0.7088834844959437  0.5556333049752006  0.28215982636118636  1.0000
  H   H341      1.0  0.6612055040951244  0.5790071186993331  0.26610631692953984  1.0000
  H   H342      1.0  0.6839482566807435  0.5226981592527654  0.24651133865456343  1.0000
  H   H343      1.0  0.7033831370882034  0.6239268883410408  0.1807696830658494  1.0000
  H   H344      1.0  0.6580305761961621  0.6201585878338854  0.2070085089537666  1.0000
  H   H345      1.0  0.6801243019022789  0.5625816764525859  0.18829564604862534  1.0000
  H   H346      1.0  0.6910619745038721  0.6656659760560607  0.25496796458815685  1.0000
  H   H347      1.0  0.7380216871360665  0.6699254708627752  0.23062440829139363  1.0000
  H   H348      1.0  0.737691289948926  0.6418526916998317  0.27336608439442667  1.0000
  N   N22       1.0  0.2508750602216578  0.8412324329719154  0.5838921730783164  1.0000
  C   C229      1.0  0.2097597309484363  0.8189407808572402  0.5876957496849619  1.0000
  C   C230      1.0  0.27130106680523447  0.8422071543679102  0.6183832455054692  1.0000
  C   C231      1.0  0.2472230465178135  0.8943781277231988  0.5707330498670677  1.0000
  C   C232      1.0  0.27515696598417194  0.8094199493772181  0.5588977704043911  1.0000
  H   H349      1.0  0.19299574096152375  0.819205652154586  0.5624084289430927  1.0000
  H   H350      1.0  0.1910388201247625  0.8410456591412064  0.607248593070943  1.0000
  H   H351      1.0  0.21139529643490326  0.7783722621219141  0.5966824875322474  1.0000
  H   H352      1.0  0.25313787728076975  0.8645664199783496  0.6382424892648678  1.0000
  H   H353      1.0  0.27570289559039385  0.8025753086398609  0.6286631825216641  1.0000
  H   H354      1.0  0.30195204626844135  0.8600853906368374  0.6166460048729162  1.0000
  H   H355      1.0  0.2776380013374661  0.9121928974300342  0.5668347193314153  1.0000
  H   H356      1.0  0.22983556652955864  0.9193618268523331  0.5895945192866686  1.0000
  H   H357      1.0  0.23090233104497557  0.8955186339590406  0.5452112033503256  1.0000
  H   H358      1.0  0.3065195329921669  0.8248281430664924  0.5555119671504726  1.0000
  H   H359      1.0  0.26079860935125687  0.8078184509257305  0.5325196504249006  1.0000
  H   H360      1.0  0.2783108342294762  0.7690240603282718  0.5682518509443489  1.0000
  N   N23       1.0  0.2021513690444463  0.8880048331416006  0.08688356331479014  1.0000
  C   C233      1.0  0.17944258651075518  0.9323205540493161  0.07266032597894334  1.0000
  C   C234      1.0  0.17340684276769003  0.8460660611425361  0.09489493822919262  1.0000
  C   C235      1.0  0.22339497948603837  0.9040618960397614  0.1192842120214313  1.0000
  C   C236      1.0  0.2323327662283563  0.8695259921778885  0.06058819537139182  1.0000
  H   H361      1.0  0.15746405349160075  0.9484701048352819  0.09226883988998438  1.0000
  H   H362      1.0  0.16158938169445358  0.9207684422715396  0.04917470574766525  1.0000
  H   H363      1.0  0.20042062027116958  0.9636066725270384  0.06443150964514244  1.0000
  H   H364      1.0  0.18958839071535039  0.8120011560878688  0.10568644895297877  1.0000
  H   H365      1.0  0.14996341919592338  0.8586554276923889  0.11448311796226966  1.0000
  H   H366      1.0  0.1569763757992817  0.8330685437650824  0.07085435343353996  1.0000
  H   H367      1.0  0.20165332591224994  0.9172597927277595  0.14005568451234088  1.0000
  H   H368      1.0  0.24490630975548422  0.9361219426617128  0.11412694011999629  1.0000
  H   H369      1.0  0.2419065135988383  0.8719425967389317  0.13016576944801106  1.0000
  H   H370      1.0  0.25121613335562154  0.8373886327205403  0.0709162638152514  1.0000
  H   H371      1.0  0.25386512867237365  0.9006195292209548  0.05308209920728269  1.0000
  H   H372      1.0  0.21721736581886475  0.8554991363165407  0.036233369718942976  1.0000
  N   N24       1.0  0.4977601870016358  0.9195691014598186  0.09131981601728345  1.0000
  C   C237      1.0  0.5075152158705132  0.881705029700978  0.11876939670784781  1.0000
  C   C238      1.0  0.5130838901480439  0.9006199253923987  0.05693298784210876  1.0000
  C   C239      1.0  0.5171301506189169  0.969335872146918  0.09999101921007791  1.0000
  C   C240      1.0  0.4531548293302932  0.9267833672507039  0.08956021525339719  1.0000
  H   H373      1.0  0.4973851232676288  0.8955856869770659  0.1452206196403738  1.0000
  H   H374      1.0  0.540843745410638  0.8738536976938078  0.12016337176086589  1.0000
  H   H375      1.0  0.4920720934940682  0.844301580741245  0.113811062942901  1.0000
  H   H376      1.0  0.4989462957517986  0.8631824885306509  0.04958792946094337  1.0000
  H   H377      1.0  0.5060859761681447  0.9285372199942933  0.03572558431179429  1.0000
  H   H378      1.0  0.5467004688480352  0.8946951863077357  0.05725578287870903  1.0000
  H   H379      1.0  0.5106539880073013  0.9986834754387011  0.07961427163975832  1.0000
  H   H380      1.0  0.5508021300287311  0.9653167455789444  0.10190887429394513  1.0000
  H   H381      1.0  0.5056175047818646  0.985240795091579  0.12548148401487325  1.0000
  H   H382      1.0  0.44464631233968516  0.9550214676982234  0.06902593255176148  1.0000
  H   H383      1.0  0.44072988327078905  0.9413778040429832  0.11501376156820808  1.0000
  H   H384      1.0  0.43728789588915584  0.8900455964742778  0.08336778931353872  1.0000
