data_image0
_chemical_formula_structural       FeS2FeS2FeSFeS3FeS2FeS2FeSFeS3FeS2FeS2FeSFeS3FeS2FeS2FeSFeS3FeS2FeS2FeSFeS3FeS2FeS2FeSFeS3FeS2FeS2FeSFeS3FeS2FeS2FeSFeS3FeS2FeS2FeSFeS3FeS2FeS2FeSFeS3FeS2FeS2FeSFeS3FeS2FeS2FeSFeS3C6H4C6H4C6H4C6H4C6H4C6H4C6H4C6H4C6H4C6H4C6H4C6H4C6H4C6H4C6H4C6H4C6H4C6H4C6H4C6H4C6H4C6H4C6H4C6H4NC4H12NC4H12NC4H12NC4H12NC4H12NC4H12NC4H12NC4H12NC4H12NC4H12NC4H12NC4H12NC4H12NC4H12NC4H12NC4H12NC4H12NC4H12NC4H12NC4H12NC4H12NC4H12NC4H12NC4H12
_chemical_formula_sum              "Fe48 S96 C240 H384 N24"
_cell_length_a       35.78748097261423
_cell_length_b       26.838945065900575
_cell_length_c       29.268975075847997
_cell_angle_alpha    89.9961736671426
_cell_angle_beta     88.87515388967242
_cell_angle_gamma    89.98412200214982

_space_group_name_H-M_alt    "P 1"
_space_group_IT_number       1

loop_
  _space_group_symop_operation_xyz
  'x, y, z'

loop_
  _atom_site_type_symbol
  _atom_site_label
  _atom_site_symmetry_multiplicity
  _atom_site_fract_x
  _atom_site_fract_y
  _atom_site_fract_z
  _atom_site_occupancy
  Fe  Fe1       1.0  0.9728686415232181  0.20232558863993455  0.09975868426061574  1.0000
  S   S1        1.0  0.9848188860012876  0.2530794389540506  0.15844978678796873  1.0000
  S   S2        1.0  0.9138286284989756  0.18782039501149725  0.07994052149362152  1.0000
  Fe  Fe2       1.0  0.054419357465507634  0.1787583951859885  0.08197673563440011  1.0000
  S   S3        1.0  0.07320207852003713  0.22716689671339702  0.1393288344887571  1.0000
  S   S4        1.0  0.09357918809560739  0.1363886533032737  0.03552797694083587  1.0000
  Fe  Fe3       1.0  0.025106598509479383  0.19365897163646145  0.17840501981595358  1.0000
  S   S5        1.0  0.032531716538710675  0.17304112686448186  0.25172379866770356  1.0000
  Fe  Fe4       1.0  0.03136122125498941  0.2816378606407793  0.11330671170229478  1.0000
  S   S6        1.0  0.04079984167132866  0.36319314767126276  0.10035886288976181  1.0000
  S   S7        1.0  0.00965460639995852  0.14019659110622032  0.12323692244250851  1.0000
  S   S8        1.0  0.015920428389446295  0.23572055630317965  0.052669976556015685  1.0000
  Fe  Fe5       1.0  0.7594787920849051  0.3541776946529907  0.1405500272955127  1.0000
  S   S9        1.0  0.7191859739093915  0.40669584078819576  0.1751963141655075  1.0000
  S   S10       1.0  0.8159075205726217  0.3793465428112444  0.11601502960208876  1.0000
  Fe  Fe6       1.0  0.7074793930045459  0.26521567296563264  0.1500834565429623  1.0000
  S   S11       1.0  0.6628272121516903  0.31029441296963606  0.18514707343243544  1.0000
  S   S12       1.0  0.7008460673114941  0.1836648401257364  0.13456101233180373  1.0000
  Fe  Fe7       1.0  0.676764337771751  0.3681405037981795  0.13244658147377297  1.0000
  S   S13       1.0  0.6308226098989385  0.40795482771204755  0.09637164650063479  1.0000
  Fe  Fe8       1.0  0.7097148131122384  0.3434294568026401  0.2243397774807019  1.0000
  S   S14       1.0  0.7016045671075667  0.3517804462201497  0.30027229499300423  1.0000
  S   S15       1.0  0.7177345109546729  0.32030193391445033  0.09387960336893575  1.0000
  S   S16       1.0  0.7539830374980016  0.2940655768656441  0.19310549059396404  1.0000
  Fe  Fe9       1.0  0.6431506563902614  0.14222991231036952  0.4400911092109766  1.0000
  S   S17       1.0  0.6011730049297175  0.2037751935830918  0.4381893479529407  1.0000
  S   S18       1.0  0.6864927979894028  0.1364224543445554  0.38438378468728013  1.0000
  Fe  Fe10      1.0  0.607430575251689  0.09455593290241682  0.5230797271938257  1.0000
  S   S19       1.0  0.5622442227908814  0.1527043212137269  0.5293949507329013  1.0000
  S   S20       1.0  0.6080044098529146  0.027113280639771142  0.5686785560484093  1.0000
  Fe  Fe11      1.0  0.5588252478991204  0.14491880524432776  0.4535495759812983  1.0000
  S   S21       1.0  0.5057804726680676  0.1448483402752896  0.4140322945853778  1.0000
  Fe  Fe12      1.0  0.6087500954370921  0.20687628615795184  0.5137866988724016  1.0000
  S   S22       1.0  0.6137116353968375  0.2849135950432215  0.54104146114433  1.0000
  S   S23       1.0  0.6000883854689508  0.08250973939597861  0.44813337222041094  1.0000
  S   S24       1.0  0.6545029140128944  0.14952884810770864  0.5147171829646835  1.0000
  Fe  Fe13      1.0  0.23145987620855196  0.9696602085078446  0.12959809182239712  1.0000
  S   S25       1.0  0.1897768116185297  0.9273163870530986  0.08894116357857107  1.0000
  S   S26       1.0  0.23442228919323668  0.052656830163125834  0.1358309516210945  1.0000
  Fe  Fe14      1.0  0.2652032916896368  0.8767724183652901  0.1692062902137308  1.0000
  S   S27       1.0  0.22647002370610264  0.8250552564613597  0.13280363825057712  1.0000
  S   S28       1.0  0.3100660744786991  0.8557745844807845  0.21798370751633533  1.0000
  Fe  Fe15      1.0  0.23729985457502378  0.8756000723246934  0.07288718539654981  1.0000
  S   S29       1.0  0.24313152971122007  0.8460459930276908  0.0016400691520788158  1.0000
  Fe  Fe16      1.0  0.18229263589607347  0.88088118777938  0.15158914408027838  1.0000
  S   S30       1.0  0.12317789374069932  0.8632318242650612  0.17127355877818223  1.0000
  S   S31       1.0  0.280019634893892  0.9226573661611727  0.10738699757548131  1.0000
  S   S32       1.0  0.21973371661849656  0.9277753298470439  0.19426523725543016  1.0000
  Fe  Fe17      1.0  0.5372122915226258  0.017166955457064814  0.1686490200073716  1.0000
  S   S33       1.0  0.5741531489039725  0.9858709282833568  0.2225492319559501  1.0000
  S   S34       1.0  0.5366093203919442  0.09885062252338406  0.15268055499537425  1.0000
  Fe  Fe18      1.0  0.5012234302555916  0.9179740245941337  0.14917679537193207  1.0000
  S   S35       1.0  0.5345622943304789  0.877397962149585  0.20118256468004633  1.0000
  S   S36       1.0  0.4599124063560297  0.8786297901122812  0.10554282445639518  1.0000
  Fe  Fe19      1.0  0.5229762968115789  0.9440356781460905  0.24521215129258975  1.0000
  S   S37       1.0  0.5117442481934225  0.9344673531708022  0.32007147571521993  1.0000
  Fe  Fe20      1.0  0.5825704163595372  0.9224230010346074  0.17369459493310746  1.0000
  S   S38       1.0  0.6389861085035863  0.8888961082962252  0.1600184673440781  1.0000
  S   S39       1.0  0.48488654091057876  0.9808973749967118  0.19577219468044682  1.0000
  S   S40       1.0  0.5502653065828816  0.9575145738570194  0.11725152411075834  1.0000
  Fe  Fe21      1.0  0.0650020259791162  0.9823699562732344  0.4413286230897904  1.0000
  S   S41       1.0  0.002427336813866088  0.9826799741035496  0.4476523087486225  1.0000
  S   S42       1.0  0.10500399112333579  0.04604877042714551  0.4488746495718651  1.0000
  Fe  Fe22      1.0  0.06861286584769122  0.8759831952546081  0.4075810305606381  1.0000
  S   S43       1.0  0.0063833838489766315  0.8656782275148714  0.4095115592525155  1.0000
  S   S44       1.0  0.1135661596762815  0.8239663176387227  0.3829954335610329  1.0000
  Fe  Fe23      1.0  0.004238223265577101  0.9429614231336347  0.3801668100931503  1.0000
  S   S45       1.0  0.969948886921414  0.9657953496995881  0.32027653407777446  1.0000
  Fe  Fe24      1.0  0.009625402492334567  0.9057582402840977  0.47673225402142866  1.0000
  S   S46       1.0  0.9763938103172335  0.8794869001973771  0.5379421003929825  1.0000
  S   S47       1.0  0.06608235735453505  0.9490834697412969  0.3715455581423823  1.0000
  S   S48       1.0  0.07220100865036705  0.9094954496094266  0.47731622970907683  1.0000
  Fe  Fe25      1.0  0.6561612692447366  0.5975219012844082  0.9256863720848084  1.0000
  S   S49       1.0  0.599122638637882  0.6144993831058924  0.9545881946044024  1.0000
  S   S50       1.0  0.6845816569774903  0.5233913304315608  0.9199852565516564  1.0000
  Fe  Fe26      1.0  0.6742356337963503  0.7052778607380682  0.9078405520022442  1.0000
  S   S51       1.0  0.619261470094606  0.7329931485087343  0.9360547249192323  1.0000
  S   S52       1.0  0.7180327027434191  0.7481338265517639  0.8689440487013742  1.0000
  Fe  Fe27      1.0  0.6278153833815187  0.6763558413630871  0.9912833042861239  1.0000
  S   S53       1.0  0.6090859257553606  0.6828600326157883  0.06459666151148924  1.0000
  Fe  Fe28      1.0  0.5949399992170847  0.6692645263716811  0.8971537578203811  1.0000
  S   S54       1.0  0.5453960947255104  0.6850460998063229  0.8534205564541623  1.0000
  S   S55       1.0  0.6854306033902569  0.6549693435727891  0.9672436855015368  1.0000
  S   S56       1.0  0.6492129686087503  0.645964040427162  0.8645165838197071  1.0000
  Fe  Fe29      1.0  0.1789376556336163  0.261401613049062  0.7310733167754908  1.0000
  S   S57       1.0  0.19821987458010779  0.31555322100590005  0.6773943693164035  1.0000
  S   S58       1.0  0.1828840665961134  0.2798005359404938  0.8059555614684774  1.0000
  Fe  Fe30      1.0  0.1561131568462973  0.1843894342856898  0.6607687942795059  1.0000
  S   S59       1.0  0.17290375051900003  0.233095109478442  0.6014764251196548  1.0000
  S   S60       1.0  0.1279189178576803  0.10993698446473515  0.6536302776314451  1.0000
  Fe  Fe31      1.0  0.22362229037888362  0.24926858723290982  0.6424690082526092  1.0000
  S   S61       1.0  0.28229373519800105  0.25167810984435457  0.6135024249303936  1.0000
  Fe  Fe32      1.0  0.1456856777516249  0.2943931711948643  0.6421131872481721  1.0000
  S   S62       1.0  0.10954708773052113  0.35142448337532084  0.6080295439767497  1.0000
  S   S63       1.0  0.20895387482721817  0.19619996868889708  0.6993163750517074  1.0000
  S   S64       1.0  0.12451823513029879  0.24438268938604174  0.6981843303450203  1.0000
  Fe  Fe33      1.0  0.4572010857787496  0.40723960946848065  0.672464582500758  1.0000
  S   S65       1.0  0.43598756744870043  0.4526185813255689  0.6143176814510383  1.0000
  S   S66       1.0  0.4726411799271001  0.3266976191676951  0.6662167994989937  1.0000
  Fe  Fe34      1.0  0.43963492081574185  0.4854561612431053  0.7429223501417941  1.0000
  S   S67       1.0  0.41560561391301026  0.538447240448483  0.6924892915034779  1.0000
  S   S68       1.0  0.44197729548162773  0.49928083324327666  0.8181726688257467  1.0000
  Fe  Fe35      1.0  0.38879723493640106  0.47141719587412406  0.6621761668176074  1.0000
  S   S69       1.0  0.33140765936069433  0.4738799954107526  0.6339749319708341  1.0000
  Fe  Fe36      1.0  0.4645521919469266  0.5166859713775083  0.6478764391147912  1.0000
  S   S70       1.0  0.48435817770620976  0.5795212498281526  0.60326047358602  1.0000
  S   S71       1.0  0.40706071451360626  0.42037587876158145  0.7176744133877211  1.0000
  S   S72       1.0  0.4916587708907456  0.46937708291745184  0.7014039809590563  1.0000
  Fe  Fe37      1.0  0.995834369761471  0.6341978795469407  0.6568773630081983  1.0000
  S   S73       1.0  0.9534873668070486  0.577381401255314  0.6801547661200246  1.0000
  S   S74       1.0  0.009877533965030105  0.6543740689875728  0.5840082594918055  1.0000
  Fe  Fe38      1.0  0.02012320075024987  0.6586358755009644  0.7529835472241555  1.0000
  S   S75       1.0  0.9794111327992855  0.6053113779884783  0.7854863782253961  1.0000
  S   S76       1.0  0.06326288683254955  0.7066182590883421  0.7863855429311394  1.0000
  Fe  Fe39      1.0  0.9972864297818614  0.5530178402100182  0.7291622964960204  1.0000
  S   S77       1.0  0.010025148980964182  0.4739560216422586  0.7493610192405401  1.0000
  Fe  Fe40      1.0  0.9389737528043527  0.6341403960136676  0.7340542434798554  1.0000
  S   S78       1.0  0.8792509261839042  0.6540736969657388  0.7508414025287078  1.0000
  S   S79       1.0  0.04133572439170896  0.6042096843332233  0.7006826977243088  1.0000
  S   S80       1.0  0.9781004317869973  0.6927893217819835  0.7071166137561199  1.0000
  Fe  Fe41      1.0  0.6743386541189536  0.6720676350157289  0.5590422975539378  1.0000
  S   S81       1.0  0.6355182306550841  0.7378267984810075  0.5633063992540199  1.0000
  S   S82       1.0  0.6562306448199384  0.5915639554518375  0.5544146403805554  1.0000
  Fe  Fe42      1.0  0.7431733471619373  0.7354275690248425  0.5725026518841707  1.0000
  S   S83       1.0  0.7107877021472845  0.8064927131872366  0.578625854360318  1.0000
  S   S84       1.0  0.8058671954411951  0.7358421899138967  0.571055350876856  1.0000
  Fe  Fe43      1.0  0.670783044195242  0.7619065887792036  0.6215593386461402  1.0000
  S   S85       1.0  0.6400614334543704  0.7934243853986336  0.6823832395661307  1.0000
  Fe  Fe44      1.0  0.6784315442557466  0.7772611048801232  0.5197962046910861  1.0000
  S   S86       1.0  0.6657359433722789  0.8339488659728453  0.46570853959076397  1.0000
  S   S87       1.0  0.7061523090259518  0.6930275305059325  0.6215320755469755  1.0000
  S   S88       1.0  0.7142375587335534  0.7093001253896186  0.5096124705798224  1.0000
  Fe  Fe45      1.0  0.21006356743678412  0.47866724136674765  0.9961497808628034  1.0000
  S   S89       1.0  0.26316162188450964  0.4999492852186555  0.9594906786401292  1.0000
  S   S90       1.0  0.2064346339101879  0.4065919629089432  0.03430595686886462  1.0000
  Fe  Fe46      1.0  0.16816641869372706  0.5696567975829717  0.9645967858138019  1.0000
  S   S91       1.0  0.21702294897247712  0.5993641040424939  0.9242109204576574  1.0000
  S   S92       1.0  0.11183604732021468  0.6063016680011375  0.9705114546635465  1.0000
  Fe  Fe47      1.0  0.22573645263698194  0.5203994061837085  0.9024748648091256  1.0000
  S   S93       1.0  0.24001550541644495  0.49972438309234574  0.8305545593029758  1.0000
  Fe  Fe48      1.0  0.25054187867763505  0.5769265256045164  0.9847810423002968  1.0000
  S   S94       1.0  0.29696819048691303  0.6239134843365787  0.011743817840889292  1.0000
  S   S95       1.0  0.17335014902239787  0.49226151854041306  0.9364093018006228  1.0000
  S   S96       1.0  0.20081263526341164  0.5539203512865144  0.027625422221674967  1.0000
  C   C1        1.0  0.07605571076028927  0.6836811883154837  0.8398830601921884  1.0000
  C   C2        1.0  0.11382253014855781  0.682923498770168  0.8514201798588896  1.0000
  C   C3        1.0  0.12499097385386682  0.6595994201465356  0.891787120636635  1.0000
  C   C4        1.0  0.09830398720154987  0.638114294485756  0.9212212066278699  1.0000
  C   C5        1.0  0.060358644139395956  0.6410287521379247  0.9107560555961806  1.0000
  C   C6        1.0  0.04926901405959505  0.6630486459587837  0.8697086652243252  1.0000
  H   H1        1.0  0.13456847834633923  0.6990993287222977  0.8284870366853593  1.0000
  H   H2        1.0  0.15418691975115983  0.6586381160324472  0.9001683965427606  1.0000
  H   H3        1.0  0.039603091503180865  0.6248683803244087  0.9336912289904147  1.0000
  H   H4        1.0  0.02001749978063394  0.6639690514067224  0.8610929783694039  1.0000
  C   C7        1.0  0.8587669737461646  0.6776842145427853  0.7012517381362275  1.0000
  C   C8        1.0  0.8790655526603136  0.6783668505209947  0.6599495093431622  1.0000
  C   C9        1.0  0.8626768340593599  0.6965298410731465  0.6202089270369218  1.0000
  C   C10       1.0  0.8257462206024572  0.713677691742534  0.6214596328255604  1.0000
  C   C11       1.0  0.8053929569613629  0.7133867766584058  0.6627893744845247  1.0000
  C   C12       1.0  0.8220200769759838  0.69567556772064  0.7027254533677221  1.0000
  H   H5        1.0  0.9073658332840376  0.6645480648209576  0.6583893289174342  1.0000
  H   H6        1.0  0.8785210402651713  0.6963054845611452  0.5883843978258266  1.0000
  H   H7        1.0  0.7771393335014596  0.7275545543429667  0.664143239969252  1.0000
  H   H8        1.0  0.8066278283310357  0.6964570898086034  0.7347343252916365  1.0000
  C   C13       1.0  0.5316955696454773  0.5796366287686523  0.5871102230682483  1.0000
  C   C14       1.0  0.5558088008354927  0.5415482503134599  0.600579952788748  1.0000
  C   C15       1.0  0.594057326992044  0.5443547283552258  0.5890974307862862  1.0000
  C   C16       1.0  0.6080755935387707  0.5854226872181388  0.5646056750927939  1.0000
  C   C17       1.0  0.5837029023754041  0.6225979926284593  0.5501664380805228  1.0000
  C   C18       1.0  0.5455850255605795  0.6197362252702333  0.5614354426585523  1.0000
  H   H9        1.0  0.5451201333743192  0.5103764482169466  0.6202896059075681  1.0000
  H   H10       1.0  0.6129156793775778  0.5155309073417937  0.6003412631475291  1.0000
  H   H11       1.0  0.5942206015120799  0.6536184781714788  0.5302144802366807  1.0000
  H   H12       1.0  0.5269459550304502  0.6490884571052825  0.5507412439197631  1.0000
  C   C19       1.0  0.08242102005067764  0.3863171929503384  0.6473258644740876  1.0000
  C   C20       1.0  0.06287474717231878  0.42851547628697884  0.632702629563  1.0000
  C   C21       1.0  0.04063865915534759  0.4559800049741705  0.663839744767406  1.0000
  C   C22       1.0  0.037124762333345496  0.4403651706965351  0.7093299213638201  1.0000
  C   C23       1.0  0.05665402916025708  0.39826623860189714  0.7238767498055972  1.0000
  C   C24       1.0  0.07970493323383376  0.371840093888512  0.6931534874379617  1.0000
  H   H13       1.0  0.06504346155878005  0.4401400005888136  0.5973448253084485  1.0000
  H   H14       1.0  0.025784797168733053  0.488709714239002  0.6524601246408122  1.0000
  H   H15       1.0  0.05418326377449878  0.38616651034109634  0.7590592482657955  1.0000
  H   H16       1.0  0.09503579540699669  0.34001855853495244  0.7050282797362618  1.0000
  C   C25       1.0  0.19452836734696205  0.3425208336565826  0.8146460081400172  1.0000
  C   C26       1.0  0.21180141433313485  0.35656627702084065  0.8551318027999038  1.0000
  C   C27       1.0  0.22537565036046942  0.4051843902159493  0.860234839474913  1.0000
  C   C28       1.0  0.2224870264601481  0.43939976391063096  0.8244053716745285  1.0000
  C   C29       1.0  0.20427158719183247  0.4258839703370754  0.7845057093276505  1.0000
  C   C30       1.0  0.18943641459101523  0.37783872222985426  0.7802011308995479  1.0000
  H   H17       1.0  0.21552622051305517  0.3295975846954472  0.8820921852144074  1.0000
  H   H18       1.0  0.23886281147744337  0.4157925213262565  0.8915379284905469  1.0000
  H   H19       1.0  0.2011528627707987  0.45265450750302494  0.7571934257967534  1.0000
  H   H20       1.0  0.17376051375632942  0.3683713966388055  0.7503903660455696  1.0000
  C   C31       1.0  0.2969564004907089  0.31364690322224853  0.6085491216281619  1.0000
  C   C32       1.0  0.3346108445843693  0.3251966388207833  0.6146854042582379  1.0000
  C   C33       1.0  0.34552044924729985  0.3748251182881211  0.6206396741624424  1.0000
  C   C34       1.0  0.318899421514221  0.41300397367284697  0.6193572788111542  1.0000
  C   C35       1.0  0.28175968090410064  0.40175245366999424  0.6096379636315223  1.0000
  C   C36       1.0  0.27078461010206945  0.3519911813245867  0.6042251035435092  1.0000
  H   H21       1.0  0.3549068572905989  0.29560333632976343  0.6179149272103287  1.0000
  H   H22       1.0  0.3742802625080579  0.3831486341488342  0.6279435873033072  1.0000
  H   H23       1.0  0.2611280645184667  0.43119095492894716  0.6082796750114616  1.0000
  H   H24       1.0  0.24183709457264937  0.34326013269119693  0.597983294296818  1.0000
  C   C37       1.0  0.6975661734153659  0.7649468687221821  0.8172223266752731  1.0000
  C   C38       1.0  0.7190168842059083  0.7677889774573559  0.776708608144771  1.0000
  C   C39       1.0  0.701498300825685  0.7757521490560326  0.7348003715313186  1.0000
  C   C40       1.0  0.662823750657037  0.7832991976589734  0.7338645681192424  1.0000
  C   C41       1.0  0.6417402915926065  0.7826897878234711  0.7745342000445613  1.0000
  C   C42       1.0  0.6589528361401937  0.7724101978184128  0.81595358049095  1.0000
  H   H25       1.0  0.7489783338931237  0.7627727771382458  0.777504071581446  1.0000
  H   H26       1.0  0.717960069253695  0.7765086921320167  0.7033979097509762  1.0000
  H   H27       1.0  0.6118927657409596  0.7890576225124775  0.7740610652762124  1.0000
  H   H28       1.0  0.6422622244111333  0.7707469733694776  0.8470328358765506  1.0000
  C   C43       1.0  0.5161577945524835  0.6336208452717724  0.8447724612456002  1.0000
  C   C44       1.0  0.5180293784787824  0.5916243961257052  0.8728883432313304  1.0000
  C   C45       1.0  0.49472447387570917  0.550631077268191  0.8651225567490389  1.0000
  C   C46       1.0  0.4704949420935317  0.5509062411129456  0.8282299112934954  1.0000
  C   C47       1.0  0.468597418397276  0.5928357204399938  0.8000110037647837  1.0000
  C   C48       1.0  0.4908503993349831  0.6345616070586161  0.8088852644288236  1.0000
  H   H29       1.0  0.5370886543764005  0.5907488172648243  0.9009089982049433  1.0000
  H   H30       1.0  0.4960847139385006  0.5182866930940745  0.8871186087017566  1.0000
  H   H31       1.0  0.44954286087631157  0.5934802678045612  0.7718306498208112  1.0000
  H   H32       1.0  0.48875900216516194  0.6672876314059508  0.7875422880886783  1.0000
  C   C49       1.0  0.9854285401619886  0.8168159485032566  0.550161427717114  1.0000
  C   C50       1.0  0.012386681259680232  0.7903102743013504  0.5248643665539131  1.0000
  C   C51       1.0  0.018991506036647232  0.7399350226201064  0.5345841983929753  1.0000
  C   C52       1.0  0.9988407627090662  0.7160471301478046  0.5697270241288263  1.0000
  C   C53       1.0  0.9714930054952932  0.7424284253541223  0.594487038889084  1.0000
  C   C54       1.0  0.9650194672559833  0.7928520001193459  0.5849972607594071  1.0000
  H   H33       1.0  0.028239048061415417  0.8085316218521827  0.4978330355947692  1.0000
  H   H34       1.0  0.040150428198792554  0.7196245144432949  0.5152869671311551  1.0000
  H   H35       1.0  0.9549200412359055  0.7238238412247204  0.6205184436833004  1.0000
  H   H36       1.0  0.9439157903102863  0.8131152593458358  0.6044072804138102  1.0000
  C   C55       1.0  0.11241308750430963  0.06139367404635725  0.5060272103688582  1.0000
  C   C56       1.0  0.14016459242818152  0.09598638087273509  0.5165623739807481  1.0000
  C   C57       1.0  0.14580603998616745  0.10982178473359176  0.5620548289284298  1.0000
  C   C58       1.0  0.12335617135355069  0.08970628247317247  0.5970394044071934  1.0000
  C   C59       1.0  0.0960218238003796  0.05437484819829499  0.5865508081360346  1.0000
  C   C60       1.0  0.09055110706174707  0.04013944598210828  0.5410231537285398  1.0000
  H   H37       1.0  0.1573657863701154  0.11205498946235062  0.48955258641422816  1.0000
  H   H38       1.0  0.16790722807356115  0.13546397249843053  0.5700598600589174  1.0000
  H   H39       1.0  0.07865679630550182  0.038643683069360175  0.6135844048367671  1.0000
  H   H40       1.0  0.06900728246832233  0.013428625234866098  0.5329950314690702  1.0000
  C   C61       1.0  0.6335709435554049  0.8299534675081804  0.13525749633046114  1.0000
  C   C62       1.0  0.6082548064292941  0.796012300519064  0.1546299307795873  1.0000
  C   C63       1.0  0.6022941816501521  0.7499197993884017  0.13367460165006584  1.0000
  C   C64       1.0  0.620924031316963  0.7380898918046492  0.09265407838677353  1.0000
  C   C65       1.0  0.6470043996450129  0.7713654081266774  0.07368424199290824  1.0000
  C   C66       1.0  0.6535511876225383  0.8172198865113331  0.09527555313248959  1.0000
  H   H41       1.0  0.5934357207955689  0.8051296788421889  0.1860196526516893  1.0000
  H   H42       1.0  0.5823072044932438  0.7240743308537858  0.14859453235136288  1.0000
  H   H43       1.0  0.6616403722802472  0.7622368948957217  0.0420761568052439  1.0000
  H   H44       1.0  0.6732805060295742  0.8434161973323041  0.08034902522397225  1.0000
  C   C67       1.0  0.12024233077244278  0.8483465677797257  0.2293754351732834  1.0000
  C   C68       1.0  0.0859344957365753  0.8523977903489429  0.25274109624301394  1.0000
  C   C69       1.0  0.08380058649668709  0.8439553212487971  0.2999145955218498  1.0000
  C   C70       1.0  0.11569953328169137  0.8297414121184973  0.32346970100229067  1.0000
  C   C71       1.0  0.14980434642061558  0.8239691525389186  0.2998251856271505  1.0000
  C   C72       1.0  0.15221947804940497  0.8341120073703391  0.25284883711736517  1.0000
  H   H45       1.0  0.061067113639219794  0.8628103839487714  0.2345994154804471  1.0000
  H   H46       1.0  0.05733437983136636  0.8481704295258771  0.3180115098695124  1.0000
  H   H47       1.0  0.17445150286073852  0.8125597716915427  0.3178632096946873  1.0000
  H   H48       1.0  0.1787278775741667  0.8304511773749953  0.23475037367514043  1.0000
  C   C73       1.0  0.2636183283875321  0.7869308835095419  0.0014761027142473626  1.0000
  C   C74       1.0  0.2573101174761761  0.7547194355314808  0.9649121785650512  1.0000
  C   C75       1.0  0.26862940441469596  0.7048868125019596  0.9674007075686856  1.0000
  C   C76       1.0  0.2867617097378925  0.6873943021454356  0.006124962025256586  1.0000
  C   C77       1.0  0.29527641119919595  0.7204370274040508  0.04139933876861579  1.0000
  C   C78       1.0  0.28349994107149845  0.7702162878882138  0.039191927714843366  1.0000
  H   H49       1.0  0.2424264926065146  0.7678668745163321  0.9354172730600753  1.0000
  H   H50       1.0  0.26340668499605274  0.6802107097900439  0.939257308915902  1.0000
  H   H51       1.0  0.3096879529762135  0.7071518168220167  0.07120747247579651  1.0000
  H   H52       1.0  0.28894004979111154  0.7952649567461252  0.06716978008940733  1.0000
  C   C79       1.0  0.35287901773694896  0.8525557384211268  0.18810757023456603  1.0000
  C   C80       1.0  0.35365347755582216  0.8444328636055487  0.14091154727902575  1.0000
  C   C81       1.0  0.3871720549471524  0.8497701660734683  0.11581864710681523  1.0000
  C   C82       1.0  0.4198490232669017  0.8636786112204071  0.1379327079486894  1.0000
  C   C83       1.0  0.419507099461763  0.8693915551780075  0.18546000622924552  1.0000
  C   C84       1.0  0.38606904412392673  0.8632721824979224  0.2106186223141877  1.0000
  H   H53       1.0  0.3282208871693348  0.83508375932098  0.12357804765501657  1.0000
  H   H54       1.0  0.3873556552881881  0.8450418159542687  0.07909524718939222  1.0000
  H   H55       1.0  0.444815550258822  0.8793984441747652  0.20281316107339253  1.0000
  H   H56       1.0  0.3856098227981389  0.8690596313483725  0.24721869036318367  1.0000
  C   C85       1.0  0.6220903118087768  0.9738700659561899  0.5378815346883301  1.0000
  C   C86       1.0  0.6114344227043609  0.9265888732050879  0.5535449593193189  1.0000
  C   C87       1.0  0.6250888484665026  0.8836275240902087  0.5316269608960952  1.0000
  C   C88       1.0  0.6486317302779789  0.8877889346088632  0.49311627768955574  1.0000
  C   C89       1.0  0.6587055204768208  0.9350915084866341  0.4768101494089432  1.0000
  C   C90       1.0  0.6457271758471081  0.9780611142585457  0.4994112085074149  1.0000
  H   H57       1.0  0.5924747105080282  0.9231169000661079  0.5825893083580218  1.0000
  H   H58       1.0  0.6168900152873997  0.8472496829686645  0.5441381092267846  1.0000
  H   H59       1.0  0.6776247332759131  0.9386712135813747  0.44777430890464215  1.0000
  H   H60       1.0  0.6549463230114649  0.014374165327495803  0.48783991300037943  1.0000
  C   C91       1.0  0.5144653794354416  0.3172183463792879  0.6356947804979967  1.0000
  C   C92       1.0  0.5297297508790315  0.26928317282250497  0.6336314170017543  1.0000
  C   C93       1.0  0.5608568178228092  0.2595955795976549  0.605359380546747  1.0000
  C   C94       1.0  0.5769856376550887  0.2979492872770257  0.5794659315531077  1.0000
  C   C95       1.0  0.5626949311823012  0.3464451455052663  0.5829393768296917  1.0000
  C   C96       1.0  0.5312393972081971  0.3560643708965585  0.610928052468239  1.0000
  H   H61       1.0  0.5172970759770797  0.23949172275206565  0.6536480972767346  1.0000
  H   H62       1.0  0.5726199989892897  0.22252532010693787  0.6039559049586039  1.0000
  H   H63       1.0  0.5752031209963661  0.37627204951818294  0.5631195652972929  1.0000
  H   H64       1.0  0.5195427506811797  0.3932118959767486  0.612621473852418  1.0000
  C   C97       1.0  0.5015048678984567  0.08533892469852189  0.39016550951121587  1.0000
  C   C98       1.0  0.513573010604511  0.04366060309695663  0.4144414091977467  1.0000
  C   C99       1.0  0.5153350354557773  0.996947228535599  0.39318214114065947  1.0000
  C   C100      1.0  0.5059081528974547  0.992095607868789  0.3472647509798316  1.0000
  C   C101      1.0  0.49326077584957706  0.0336181063139136  0.3230993728064634  1.0000
  C   C102      1.0  0.4902538268512718  0.08005010821533887  0.3449017237028831  1.0000
  H   H65       1.0  0.5218437899771913  0.04743873046800284  0.4496284491703027  1.0000
  H   H66       1.0  0.524991911014444  0.9648859315241163  0.4120311540412144  1.0000
  H   H67       1.0  0.48571302984140763  0.029938727488253436  0.28770535982348805  1.0000
  H   H68       1.0  0.4806142202748294  0.11217684166395459  0.32620040297166986  1.0000
  C   C103      1.0  0.6550788519484991  0.16029180084826222  0.13855487108643194  1.0000
  C   C104      1.0  0.6490841251292002  0.10873423826123418  0.13823666558235725  1.0000
  C   C105      1.0  0.6126630268777629  0.08954285041912069  0.1420664344714171  1.0000
  C   C106      1.0  0.5821360627155482  0.12196753122998572  0.1454780005092  1.0000
  C   C107      1.0  0.5880540248223682  0.1734850587184739  0.144863063181619  1.0000
  C   C108      1.0  0.6244714945401053  0.19254218451890265  0.1418459402435437  1.0000
  H   H69       1.0  0.672666675440829  0.08355088361088225  0.13546778730528364  1.0000
  H   H70       1.0  0.6083006598819466  0.04965539249133588  0.14217512734758686  1.0000
  H   H71       1.0  0.5644770236549678  0.19863334707107552  0.14762911325937908  1.0000
  H   H72       1.0  0.6287988750420338  0.23214416941713686  0.14178207632916393  1.0000
  C   C109      1.0  0.6995917663694762  0.2920652881639003  0.32468867870417173  1.0000
  C   C110      1.0  0.6911165364282555  0.28627633580972217  0.37126409320346615  1.0000
  C   C111      1.0  0.6884112889295522  0.2383726626776469  0.39033931943228106  1.0000
  C   C112      1.0  0.695067458030292  0.19634119785475898  0.3629999884382947  1.0000
  C   C113      1.0  0.7046180978574097  0.20223704022886316  0.3168429408595607  1.0000
  C   C114      1.0  0.7059237932037391  0.2498910244489021  0.2975494376647213  1.0000
  H   H73       1.0  0.6860545815072818  0.3187209113000641  0.3922742312218205  1.0000
  H   H74       1.0  0.6812148303792648  0.23393545491080772  0.4261667722151821  1.0000
  H   H75       1.0  0.709761324489235  0.1699414039443888  0.29553824288491903  1.0000
  H   H76       1.0  0.7113763012941773  0.2536621375934236  0.2614961559571466  1.0000
  C   C115      1.0  0.6453896382568429  0.4351271495186978  0.04460981484528248  1.0000
  C   C116      1.0  0.6826154134676976  0.43181961647018685  0.029331818208892413  1.0000
  C   C117      1.0  0.6943069892815235  0.4570447329969596  0.989602283071788  1.0000
  C   C118      1.0  0.668937192360025  0.4863301186789731  0.9656834522118526  1.0000
  C   C119      1.0  0.631544272803118  0.4884180715486888  0.9802564073026796  1.0000
  C   C120      1.0  0.6197160671986894  0.46254669921651775  0.019474787962487916  1.0000
  H   H77       1.0  0.7028039107249693  0.4114703648381398  0.04888279068727175  1.0000
  H   H78       1.0  0.7233183756448404  0.4555412883191853  0.9785156643091865  1.0000
  H   H79       1.0  0.611629381895313  0.5098118147619428  0.9611446966122607  1.0000
  H   H80       1.0  0.5908313674617351  0.46492324623014525  0.03095569274796328  1.0000
  C   C121      1.0  0.13427725695201698  0.11563723175769483  0.061878860470090835  1.0000
  C   C122      1.0  0.1475500920590467  0.1392396261702189  0.1009293895125356  1.0000
  C   C123      1.0  0.17931044864686332  0.12101118154341364  0.12262215484292827  1.0000
  C   C124      1.0  0.19765992578885258  0.07882630696319426  0.10547247505929858  1.0000
  C   C125      1.0  0.18532534282617577  0.056363002890727376  0.0653973091015303  1.0000
  C   C126      1.0  0.1537825788540641  0.07495916344105259  0.04344017729732563  1.0000
  H   H81       1.0  0.1336373315064626  0.1716551772430328  0.11444248361662268  1.0000
  H   H82       1.0  0.18909571064103847  0.13889799404298286  0.1532938112803086  1.0000
  H   H83       1.0  0.20020411292847728  0.024787942461280243  0.051103321908343664  1.0000
  H   H84       1.0  0.14402513551795493  0.05704352378326072  0.012755899708956077  1.0000
  C   C127      1.0  0.014048714647732385  0.11580754197778746  0.269912244765552  1.0000
  C   C128      1.0  0.9900178434984253  0.08813657305390185  0.24255709030003453  1.0000
  C   C129      1.0  0.9757714700751879  0.042338137351626504  0.25833434557804685  1.0000
  C   C130      1.0  0.9860868137623698  0.02395270504190217  0.30109520959329433  1.0000
  C   C131      1.0  0.01010221817711865  0.05176692389932037  0.3282115558378363  1.0000
  C   C132      1.0  0.023895687483034278  0.09764047926717097  0.31275175019213586  1.0000
  H   H85       1.0  0.9822159114507056  0.10205061349475736  0.20953000206048084  1.0000
  H   H86       1.0  0.9572560907353393  0.020768926343045727  0.23725338033684432  1.0000
  H   H87       1.0  0.017892656213093883  0.03824205296666383  0.36142026346563594  1.0000
  H   H88       1.0  0.04242017709582613  0.11896012266197407  0.33406173551933216  1.0000
  C   C133      1.0  0.08720403394790988  0.37685704714986035  0.08445033088573806  1.0000
  C   C134      1.0  0.11610596398756057  0.3442946351917362  0.09555095220255772  1.0000
  C   C135      1.0  0.15283746427906397  0.3542142833531463  0.08097006170751309  1.0000
  C   C136      1.0  0.1608000679697752  0.39672861499648365  0.0550157749299629  1.0000
  C   C137      1.0  0.13209049950951912  0.4300656592816704  0.04469589455176548  1.0000
  C   C138      1.0  0.0953109320933212  0.42021784981260674  0.059574348544813915  1.0000
  H   H89       1.0  0.11045409720365962  0.3120316689746258  0.11626319348389602  1.0000
  H   H90       1.0  0.17511671662066663  0.3290837095190734  0.09011425902606307  1.0000
  H   H91       1.0  0.13816870406965664  0.46350233622735704  0.02540028695335428  1.0000
  H   H92       1.0  0.07321580368631331  0.4460950184339882  0.0515825561752683  1.0000
  C   C139      1.0  0.8866200138563864  0.24144779880271347  0.08739540568272464  1.0000
  C   C140      1.0  0.9036882485777704  0.28739210782053276  0.0953852113332887  1.0000
  C   C141      1.0  0.8818059340030496  0.32977717982883903  0.10396661082876557  1.0000
  C   C142      1.0  0.8428663077206772  0.3262898299615319  0.10450828208139074  1.0000
  C   C143      1.0  0.8257387020998747  0.28034252908643975  0.09644361578528127  1.0000
  C   C144      1.0  0.8476307938735906  0.23798560555348472  0.08752636885179711  1.0000
  H   H93       1.0  0.9337469303361878  0.29031991006488106  0.09474996654983792  1.0000
  H   H94       1.0  0.8948809662571986  0.36507283775421195  0.11122632691001355  1.0000
  H   H95       1.0  0.7956269162761556  0.2773647421053343  0.09687708182700305  1.0000
  H   H96       1.0  0.8343298337987638  0.20243806640353015  0.08145401391766116  1.0000
  N   N1        1.0  0.06165730867825414  0.22473826740031355  0.5485771989389302  1.0000
  C   C145      1.0  0.03493864292576099  0.2662801847501011  0.5433438961425199  1.0000
  C   C146      1.0  0.06889767213904019  0.21720952100994353  0.59762535176543  1.0000
  C   C147      1.0  0.09703068422530148  0.23701722937629643  0.5241925389508173  1.0000
  C   C148      1.0  0.04590408395140444  0.17854859143847704  0.5292811887894231  1.0000
  H   H97       1.0  0.028728145692861196  0.2731125221425917  0.5067713121329835  1.0000
  H   H98       1.0  0.046346047063380524  0.3016535050336155  0.5575272778457163  1.0000
  H   H99       1.0  0.008051597617504402  0.2586122653856196  0.5617513169470513  1.0000
  H   H100      1.0  0.0898636545739453  0.1872898248500211  0.6029300920264906  1.0000
  H   H101      1.0  0.07981305164372188  0.25176881474362617  0.6135236951157425  1.0000
  H   H102      1.0  0.04309419356122923  0.2064626924661585  0.6170021500152305  1.0000
  H   H103      1.0  0.11779291857051599  0.20636090376230612  0.5272159489510233  1.0000
  H   H104      1.0  0.1098952475651036  0.27146344622249696  0.5382272224911389  1.0000
  H   H105      1.0  0.09257031488070422  0.24337566999564275  0.4871345771805892  1.0000
  H   H106      1.0  0.06536456094720866  0.14653522010853123  0.5333865531775533  1.0000
  H   H107      1.0  0.040651146782940684  0.1824272977951389  0.4920853790933768  1.0000
  H   H108      1.0  0.019063914680742755  0.16822184395403667  0.5466238333596662  1.0000
  N   N2        1.0  0.3469744845447331  0.5724471653990391  0.8674065718970433  1.0000
  C   C149      1.0  0.31229988665715014  0.5981836567323874  0.8821613806423081  1.0000
  C   C150      1.0  0.3791424363467306  0.5947502516947273  0.8908694246211224  1.0000
  C   C151      1.0  0.3520506537439602  0.5777458832569988  0.8173943598158238  1.0000
  C   C152      1.0  0.34424337400525  0.5190219691254697  0.8793093063506371  1.0000
  H   H109      1.0  0.3136695772207009  0.6388473877428149  0.8748998332963659  1.0000
  H   H110      1.0  0.30718926225065446  0.5939252286023529  0.9195581701522246  1.0000
  H   H111      1.0  0.28753567505613054  0.5828458709882072  0.8645210353985567  1.0000
  H   H112      1.0  0.4056494459111479  0.5751142512986555  0.8816810751869635  1.0000
  H   H113      1.0  0.38280644627631333  0.6347018102066029  0.8816847472543142  1.0000
  H   H114      1.0  0.375445225196011  0.5926515717727833  0.9287402838149938  1.0000
  H   H115      1.0  0.35390796788137374  0.617586216036172  0.8071334970151116  1.0000
  H   H116      1.0  0.3283658359451228  0.560601796747975  0.7988583756652067  1.0000
  H   H117      1.0  0.37813306489353365  0.5591395849973964  0.8050824193400821  1.0000
  H   H118      1.0  0.3697082500651857  0.4982930189315984  0.8678047594945157  1.0000
  H   H119      1.0  0.31969719478317277  0.5012435393374639  0.8630910059360827  1.0000
  H   H120      1.0  0.3411811000664898  0.5136840931476673  0.9169234490313749  1.0000
  N   N3        1.0  0.6211089713921348  0.8919636235290817  0.3405752772987196  1.0000
  C   C153      1.0  0.6188242741592427  0.9469726675036393  0.3411852665166671  1.0000
  C   C154      1.0  0.6081989858479788  0.8730503624143825  0.2961272344970242  1.0000
  C   C155      1.0  0.5971759358304916  0.871533746351594  0.3778437564706026  1.0000
  C   C156      1.0  0.6602367580408169  0.8763102491182987  0.34718457677550524  1.0000
  H   H121      1.0  0.6363964392102837  0.9637183147309778  0.31340054149103536  1.0000
  H   H122      1.0  0.6283659806450302  0.9623848887390397  0.3743411406029618  1.0000
  H   H123      1.0  0.5895678921873106  0.959855231506446  0.3365436465423133  1.0000
  H   H124      1.0  0.6097858690237512  0.8316944498758309  0.29439187985586235  1.0000
  H   H125      1.0  0.5786448911060214  0.8836880161615861  0.2902662962081297  1.0000
  H   H126      1.0  0.625321346821364  0.8881472742366258  0.26704779536596085  1.0000
  H   H127      1.0  0.5672768682969049  0.8815952126755536  0.37334224384792525  1.0000
  H   H128      1.0  0.6055455955983319  0.8860977860628565  0.41173470962585973  1.0000
  H   H129      1.0  0.5990735345017049  0.8301945092489932  0.37955031118185223  1.0000
  H   H130      1.0  0.6627819577545311  0.8349835657939648  0.3484342150192121  1.0000
  H   H131      1.0  0.6711374542070407  0.8906152254450435  0.37998655175505475  1.0000
  H   H132      1.0  0.678964789813987  0.8901642190329987  0.3191542801608282  1.0000
  N   N4        1.0  0.1891318019129092  0.9431304364512931  0.4014135089321666  1.0000
  C   C157      1.0  0.21201171289728882  0.987554863832062  0.41122732715715815  1.0000
  C   C158      1.0  0.21344407876715132  0.9014547534962954  0.3863882844939504  1.0000
  C   C159      1.0  0.16273489817456951  0.9551217996464375  0.3648213068288092  1.0000
  C   C160      1.0  0.16810605512509838  0.9283979672033714  0.4432331029706289  1.0000
  H   H133      1.0  0.1940522037135687  0.01938912404894122  0.4227191061955446  1.0000
  H   H134      1.0  0.22817454721259833  0.9999173225212388  0.38039965752979144  1.0000
  H   H135      1.0  0.23220646755005947  0.9800200612253666  0.4388206232439187  1.0000
  H   H136      1.0  0.19663984426328224  0.8673064859998203  0.37968599408934206  1.0000
  H   H137      1.0  0.22910885990491825  0.9106008150613539  0.3542199372523046  1.0000
  H   H138      1.0  0.23413102153112297  0.8917018078974084  0.4128137925589882  1.0000
  H   H139      1.0  0.14491509144803424  0.9224468625565643  0.3567093275076669  1.0000
  H   H140      1.0  0.17761086231503706  0.9660539879153877  0.332648182936188  1.0000
  H   H141      1.0  0.14386442435385097  0.9864051496187226  0.37502687226912645  1.0000
  H   H142      1.0  0.15041985339484082  0.8950783967517084  0.43710561704461093  1.0000
  H   H143      1.0  0.14923547153339917  0.9587601175121756  0.45542859025488913  1.0000
  H   H144      1.0  0.18710487981433147  0.9191399770714779  0.4716070417944019  1.0000
  N   N5        1.0  0.15578992891550014  0.2521167802214137  0.9708247462930384  1.0000
  C   C161      1.0  0.17009786345916958  0.20115752037458312  0.9784008627733548  1.0000
  C   C162      1.0  0.14495702403394775  0.25749554884317316  0.9225946989483712  1.0000
  C   C163      1.0  0.18527493480479584  0.288751064612913  0.9811581832906089  1.0000
  C   C164      1.0  0.12287157514359155  0.26099035536483656  0.001065886611412381  1.0000
  H   H145      1.0  0.14866099626661772  0.17257887181313333  0.9702415350598169  1.0000
  H   H146      1.0  0.1778537653434632  0.19536107107796483  0.014686768619826209  1.0000
  H   H147      1.0  0.19522567685197678  0.19327087942953963  0.9566270402219494  1.0000
  H   H148      1.0  0.13484533452550698  0.2958249767949589  0.9151756305925083  1.0000
  H   H149      1.0  0.16899328262417143  0.24996545656090766  0.8988832615756152  1.0000
  H   H150      1.0  0.12234782562379662  0.23091883861315182  0.9136773325851038  1.0000
  H   H151      1.0  0.19397704265001395  0.2861489828074516  0.017384838296205855  1.0000
  H   H152      1.0  0.17549479350697494  0.3276538957455575  0.9755651091253057  1.0000
  H   H153      1.0  0.21062738400105055  0.28310817943021266  0.9592062644618875  1.0000
  H   H154      1.0  0.11225845777413607  0.2998057834878878  0.9978076251702505  1.0000
  H   H155      1.0  0.12970351152786305  0.25496367303722756  0.03761676328582975  1.0000
  H   H156      1.0  0.09958497902802077  0.23507698836014113  0.9931133779792306  1.0000
  N   N6        1.0  0.38163185413578266  0.5600021419625878  0.5292038165000582  1.0000
  C   C165      1.0  0.38082723373754723  0.5751147918054269  0.5777434584234277  1.0000
  C   C166      1.0  0.3625261741942208  0.5981999944400519  0.5017741680084981  1.0000
  C   C167      1.0  0.3622752463440182  0.5116469855066657  0.5243934729480456  1.0000
  C   C168      1.0  0.42089988526795646  0.5550937127656863  0.5131226908119405  1.0000
  H   H157      1.0  0.3949107403191027  0.5469594598418424  0.5991329961635341  1.0000
  H   H158      1.0  0.35168311993804874  0.5787532066403488  0.5914210649710265  1.0000
  H   H159      1.0  0.39561291515155406  0.6111091093665548  0.5830077274197282  1.0000
  H   H160      1.0  0.3764055135171396  0.6351631733626649  0.5048084745490815  1.0000
  H   H161      1.0  0.36258881771809565  0.5880422974004311  0.464890720057856  1.0000
  H   H162      1.0  0.33283738067226687  0.6027700700115469  0.5131917166647813  1.0000
  H   H163      1.0  0.3620473341826761  0.4990319687806063  0.48820802602074614  1.0000
  H   H164      1.0  0.33271512009296667  0.5138234738072023  0.5370066648532572  1.0000
  H   H165      1.0  0.37591471563334283  0.4819807587245946  0.544812527056925  1.0000
  H   H166      1.0  0.42278369148208067  0.5440302279246755  0.4765300303328942  1.0000
  H   H167      1.0  0.4361288515786085  0.5265961353452259  0.5332374015975644  1.0000
  H   H168      1.0  0.4365210542587141  0.5907132963556934  0.5170888917844882  1.0000
  N   N7        1.0  0.6243674016644624  0.2697844824831764  0.016927800889656067  1.0000
  C   C169      1.0  0.5955255969184895  0.25231486485717536  0.9852229428353869  1.0000
  C   C170      1.0  0.6461319651698831  0.31049941485837096  0.9951769997355832  1.0000
  C   C171      1.0  0.6495639072247225  0.22796043293350318  0.02802758143885087  1.0000
  C   C172      1.0  0.6061102379300592  0.28842033579659493  0.05931202208423026  1.0000
  H   H169      1.0  0.5785971542856686  0.22153708841051886  0.0006153796611672036  1.0000
  H   H170      1.0  0.6083287118708112  0.23807445374370764  0.9527976932152803  1.0000
  H   H171      1.0  0.575960430476527  0.28295070313604165  0.9763305987620167  1.0000
  H   H172      1.0  0.6605022497571739  0.2979534500937189  0.963146880994146  1.0000
  H   H173      1.0  0.6280092827192777  0.3428235686653938  0.9866260678843539  1.0000
  H   H174      1.0  0.6679184482042688  0.32479695619366555  0.01829918615155535  1.0000
  H   H175      1.0  0.671224244835251  0.2393605516269025  0.052755382307806416  1.0000
  H   H176      1.0  0.6644880382778918  0.21349010658681244  0.9970814855915229  1.0000
  H   H177      1.0  0.6339768069532795  0.19626516736517555  0.04391006416415456  1.0000
  H   H178      1.0  0.5883098237418071  0.25934134972860406  0.07586119566371231  1.0000
  H   H179      1.0  0.588124353427769  0.32141542351909247  0.052642621387202  1.0000
  H   H180      1.0  0.6271431561027109  0.3003508269573102  0.0846054589689913  1.0000
  N   N8        1.0  0.6828685076649377  0.9396980735130993  0.6622461848692206  1.0000
  C   C173      1.0  0.6429142054163384  0.9257790801115157  0.6627833069424841  1.0000
  C   C174      1.0  0.6956980571229998  0.9485712427691415  0.614595763332709  1.0000
  C   C175      1.0  0.7049201296500567  0.8988857956573819  0.6823305433917041  1.0000
  C   C176      1.0  0.6877902447889257  0.9856557053449443  0.6892689465307669  1.0000
  H   H181      1.0  0.6325316859945058  0.9169080152822213  0.6979414161178126  1.0000
  H   H182      1.0  0.6380478409525902  0.8920409056732135  0.6415549883553875  1.0000
  H   H183      1.0  0.6252889908218557  0.9563393645341112  0.6490468449771886  1.0000
  H   H184      1.0  0.7261041907438508  0.9570210123343231  0.6125194750318335  1.0000
  H   H185      1.0  0.6905726381782101  0.9155515892986889  0.5925386996156047  1.0000
  H   H186      1.0  0.6806697038991796  0.9805739768837897  0.5991609282452457  1.0000
  H   H187      1.0  0.7352667859957503  0.9078359004137427  0.6825495940042203  1.0000
  H   H188      1.0  0.7016047327493251  0.8637271742360543  0.6627592222118203  1.0000
  H   H189      1.0  0.69567432757984  0.890778698946332  0.7181287641680233  1.0000
  H   H190      1.0  0.6783339828506676  0.9802570149416894  0.7253959389287676  1.0000
  H   H191      1.0  0.6712955630971972  0.017061591401916765  0.6749370865380153  1.0000
  H   H192      1.0  0.7176118028401887  0.9974126651665001  0.6894222871843977  1.0000
  N   N9        1.0  0.15758195019950194  0.7207105787885126  0.053803536819518216  1.0000
  C   C177      1.0  0.19394041601194845  0.7103472086341032  0.07490771185125733  1.0000
  C   C178      1.0  0.130427944966369  0.6818657471437588  0.06781869256907047  1.0000
  C   C179      1.0  0.16223905793127313  0.7204781275820952  0.0034943162068565847  1.0000
  C   C180      1.0  0.14387845943964628  0.7701553742700217  0.06895748071578955  1.0000
  H   H193      1.0  0.2146706380524812  0.7396167875145976  0.0658524154932294  1.0000
  H   H194      1.0  0.205863977804301  0.6740647699696936  0.06318778778806178  1.0000
  H   H195      1.0  0.1914541674428465  0.709302013466565  0.11286141773713054  1.0000
  H   H196      1.0  0.10300673260575488  0.6873662735076741  0.051182928288357576  1.0000
  H   H197      1.0  0.14051051091846256  0.644029756470749  0.0578879424384664  1.0000
  H   H198      1.0  0.12544352049752172  0.6818813141779808  0.10547185670733006  1.0000
  H   H199      1.0  0.13507896672276032  0.7262151812982907  0.9863279894705603  1.0000
  H   H200      1.0  0.17380126226681014  0.6843262935800336  0.9910144444279559  1.0000
  H   H201      1.0  0.1815748994665909  0.7505425354270199  0.991695121141622  1.0000
  H   H202      1.0  0.11628267322595898  0.7790427069816014  0.05409624084241926  1.0000
  H   H203      1.0  0.16364290390190694  0.8003552070525359  0.05841041178819917  1.0000
  H   H204      1.0  0.14055764476950516  0.7721340279570713  0.10686838980203217  1.0000
  N   N10       1.0  0.8874681074594591  0.7838273149805196  0.4780572251584597  1.0000
  C   C181      1.0  0.8792353241110022  0.8223186972312548  0.4435502118806965  1.0000
  C   C182      1.0  0.8615394203624199  0.7413988948884055  0.47309226257307035  1.0000
  C   C183      1.0  0.882781973441092  0.8054300110286268  0.5242820142650774  1.0000
  C   C184      1.0  0.926337092301701  0.7662685292498077  0.4713445746564401  1.0000
  H   H205      1.0  0.8982870298601141  0.8549693045724829  0.44676623723664544  1.0000
  H   H206      1.0  0.850053192369752  0.8362823887163585  0.44752447574314635  1.0000
  H   H207      1.0  0.8828245419626212  0.8075337305002454  0.4082094521917384  1.0000
  H   H208      1.0  0.866593053864586  0.7122503610616185  0.49940586265010717  1.0000
  H   H209      1.0  0.8318919853587154  0.7533916345991954  0.4776237952901866  1.0000
  H   H210      1.0  0.864525885229979  0.7236151246992422  0.43890898106004395  1.0000
  H   H211      1.0  0.9017032667569319  0.837800596715991  0.5292510481042341  1.0000
  H   H212      1.0  0.8889836864300069  0.7775760051589684  0.5512640365853635  1.0000
  H   H213      1.0  0.8535823028423192  0.8183070708551617  0.5307694656386998  1.0000
  H   H214      1.0  0.9304949173102263  0.747622390784585  0.43769139898921133  1.0000
  H   H215      1.0  0.9343077184691037  0.7392068585624086  0.4983632708558145  1.0000
  H   H216      1.0  0.9464071321079136  0.7978705275598622  0.4723777604587117  1.0000
  N   N11       1.0  0.9589021696887958  0.4043938561748047  0.013218026109885317  1.0000
  C   C185      1.0  0.9588908528958676  0.4125152473386757  0.06317760912134074  1.0000
  C   C186      1.0  0.9562024636445406  0.45300324817856863  0.9897618666060328  1.0000
  C   C187      1.0  0.926649147302407  0.3728823027961574  0.0011962814748311956  1.0000
  C   C188      1.0  0.9939479032730953  0.37921115082047263  0.9988149906461948  1.0000
  H   H217      1.0  0.9831465794097521  0.43565217667675293  0.07356085546253532  1.0000
  H   H218      1.0  0.9610609438218158  0.37662053982048965  0.08203733067671881  1.0000
  H   H219      1.0  0.9329682845777253  0.4316095189326271  0.07542261658624061  1.0000
  H   H220      1.0  0.9800721143523746  0.47769962166526336  0.9984410997464841  1.0000
  H   H221      1.0  0.9564532664605703  0.4484494617263023  0.9519394882529932  1.0000
  H   H222      1.0  0.9299629396007417  0.47285611662408583  0.9997590598851305  1.0000
  H   H223      1.0  0.9289063735203297  0.3350298490481234  0.016451114426893954  1.0000
  H   H224      1.0  0.9247497202974619  0.3678589099863154  0.9635742823930058  1.0000
  H   H225      1.0  0.8997515172673586  0.3892468078987256  0.013859986969558147  1.0000
  H   H226      1.0  0.9949735676700798  0.3722297793137867  0.9613503282445413  1.0000
  H   H227      1.0  0.9970273489563969  0.34264433991384186  0.016372546618592665  1.0000
  H   H228      1.0  0.018906409264975332  0.40179318109811846  0.007654237387327623  1.0000
  N   N12       1.0  0.3652632474545915  0.01624663714036023  0.17096583855864012  1.0000
  C   C189      1.0  0.32595816485196016  0.032598631423610636  0.16752772954857434  1.0000
  C   C190      1.0  0.39024665356305327  0.060032301491313333  0.16812839024514634  1.0000
  C   C191      1.0  0.3744779834858214  0.9816910955239619  0.1330884025415634  1.0000
  C   C192      1.0  0.3703079377122019  0.990486647717174  0.21507172378764397  1.0000
  H   H229      1.0  0.30628166134298473  0.0006197335753566069  0.17091700569174184  1.0000
  H   H230      1.0  0.32050255583509485  0.05060577530085553  0.13401623265321622  1.0000
  H   H231      1.0  0.31811623233762887  0.05977868510182338  0.19475769538409124  1.0000
  H   H232      1.0  0.4201435303873543  0.0488992938163304  0.17035585484383847  1.0000
  H   H233      1.0  0.38697770658576147  0.0802620847697133  0.13523335418228521  1.0000
  H   H234      1.0  0.3842520917209697  0.08686430438632153  0.19631906986938194  1.0000
  H   H235      1.0  0.40406724815205797  0.9689000055800936  0.13424423229024804  1.0000
  H   H236      1.0  0.3702477095865012  0.9992876195367267  0.09916441914059983  1.0000
  H   H237      1.0  0.3565926945189083  0.9478975790912413  0.13473286379045046  1.0000
  H   H238      1.0  0.39927632243031774  0.97589613036361  0.2182256611616696  1.0000
  H   H239      1.0  0.35099442198124764  0.9580705199558852  0.21869150098773124  1.0000
  H   H240      1.0  0.36460029591452414  0.015721010963428705  0.24452154451983457  1.0000
  N   N13       1.0  0.6695237961054374  0.5658866364442529  0.12094220139215485  1.0000
  C   C193      1.0  0.6330569669729159  0.559150907762717  0.09887173818820405  1.0000
  C   C194      1.0  0.6656225905577949  0.5539555815456788  0.1701172335429185  1.0000
  C   C195      1.0  0.6819370036248694  0.618098900775764  0.11529546955325087  1.0000
  C   C196      1.0  0.6974228311895827  0.5321787002717815  0.09950913731055212  1.0000
  H   H241      1.0  0.6350077718971261  0.5670310140025728  0.061515336659504934  1.0000
  H   H242      1.0  0.6115046755782989  0.5847898976928746  0.11355668591925938  1.0000
  H   H243      1.0  0.6225002505333079  0.5203861482511974  0.10317999822736401  1.0000
  H   H244      1.0  0.6926810746261954  0.5582362974678545  0.18783115550301802  1.0000
  H   H245      1.0  0.6447852449008996  0.5787375381978119  0.18740970963179318  1.0000
  H   H246      1.0  0.6561245451005918  0.5147459164260013  0.17537657628692246  1.0000
  H   H247      1.0  0.7096625329173071  0.6245027844324433  0.13078146222203094  1.0000
  H   H248      1.0  0.6617453585948144  0.6445250897476005  0.13167475642010285  1.0000
  H   H249      1.0  0.6841935710751871  0.6285798046777291  0.07850320343627004  1.0000
  H   H250      1.0  0.7256616635574469  0.5375635839320569  0.11397638350942653  1.0000
  H   H251      1.0  0.6997182554831143  0.5382702564617209  0.061894296438958836  1.0000
  H   H252      1.0  0.68972983305625  0.49247368805316705  0.10523666146005863  1.0000
  N   N14       1.0  0.8900078477089342  0.17852117011573967  0.228187163272948  1.0000
  C   C197      1.0  0.9207758491534155  0.18476090188726887  0.2607249519002164  1.0000
  C   C198      1.0  0.9018424143133945  0.1435633371863966  0.1916561094948803  1.0000
  C   C199      1.0  0.8806721287008376  0.2272799289037226  0.20781455871507515  1.0000
  C   C200      1.0  0.8566782075319062  0.15838168614563408  0.25244674153958935  1.0000
  H   H253      1.0  0.9131245294864758  0.21136811219996227  0.28851029396482375  1.0000
  H   H254      1.0  0.9465997585506795  0.19919602279221874  0.24340297448020293  1.0000
  H   H255      1.0  0.9283042524875719  0.14871514729802776  0.27703769612653073  1.0000
  H   H256      1.0  0.879886088953569  0.13928610492818838  0.16544527399788736  1.0000
  H   H257      1.0  0.9274869534719452  0.15700680796667957  0.17340055110452227  1.0000
  H   H258      1.0  0.9081245744902054  0.10593718986247314  0.20553971938199492  1.0000
  H   H259      1.0  0.8572028570490846  0.22396667357444297  0.1835598415587853  1.0000
  H   H260      1.0  0.9048603972219482  0.24310275331480963  0.1882995482304552  1.0000
  H   H261      1.0  0.8721364416001077  0.25496274047319206  0.23432881364287853  1.0000
  H   H262      1.0  0.8467591129523964  0.18401479459526807  0.28004037946365073  1.0000
  H   H263      1.0  0.8626980172090615  0.12165132022392086  0.2684312144852414  1.0000
  H   H264      1.0  0.8330571364824334  0.15295737928169145  0.22868004358835545  1.0000
  N   N15       1.0  0.5950420407104008  0.1363461709461884  0.29139176829236335  1.0000
  C   C201      1.0  0.5927018443939129  0.09727891980195524  0.3268820018427383  1.0000
  C   C202      1.0  0.5604198665610218  0.13621928931798655  0.2647761516572354  1.0000
  C   C203      1.0  0.627518195855509  0.12634078421438977  0.2607908711128977  1.0000
  C   C204      1.0  0.5994334306565461  0.18555674514332243  0.3132850367406588  1.0000
  H   H265      1.0  0.5699762878028397  0.10538200063673697  0.3521589513911808  1.0000
  H   H266      1.0  0.6191516200546027  0.09467103680084787  0.3461271687710996  1.0000
  H   H267      1.0  0.5870440041838335  0.06004229332624167  0.3118469494478893  1.0000
  H   H268      1.0  0.5615035034185245  0.16456580673847143  0.23707487290238652  1.0000
  H   H269      1.0  0.5556453412341684  0.0993577748644936  0.24849630637879622  1.0000
  H   H270      1.0  0.5355586208149871  0.1446017450901773  0.2867938343602018  1.0000
  H   H271      1.0  0.6243089102733058  0.09052515130797212  0.24211025723222193  1.0000
  H   H272      1.0  0.653866221613256  0.12413235366158193  0.28027657623590574  1.0000
  H   H273      1.0  0.6313075280157702  0.15629217281458585  0.23484381728426845  1.0000
  H   H274      1.0  0.6244913528860869  0.18640123746834458  0.33497483075242046  1.0000
  H   H275      1.0  0.5749220510285372  0.19478464276484608  0.3357610385133926  1.0000
  H   H276      1.0  0.6027451759610094  0.21579470035596615  0.2874813382165038  1.0000
  N   N16       1.0  0.09613539581141972  0.01964542480177567  0.19203778745395836  1.0000
  C   C205      1.0  0.06581465004815046  0.9916675351500682  0.21558086706816265  1.0000
  C   C206      1.0  0.09583216266405681  0.008448811475137985  0.1425818998824651  1.0000
  C   C207      1.0  0.13253231311412628  0.004675206447658509  0.2106959240548419  1.0000
  C   C208      1.0  0.0904549633777405  0.07365959461090865  0.19923055281268975  1.0000
  H   H277      1.0  0.0649735485583669  0.9993020365719865  0.253009723603131  1.0000
  H   H278      1.0  0.06937506936592874  0.9507471455569984  0.21094576318404845  1.0000
  H   H279      1.0  0.037952811834077727  0.001787612299164243  0.2021289177293306  1.0000
  H   H280      1.0  0.06904390138682115  0.019984005926602988  0.1270116184760397  1.0000
  H   H281      1.0  0.1187319953047512  0.028331656711870767  0.12389959173832721  1.0000
  H   H282      1.0  0.09969906049176136  0.9678225849060704  0.13603072175274158  1.0000
  H   H283      1.0  0.1339030308586444  0.012972020102138826  0.24784712515653007  1.0000
  H   H284      1.0  0.15612214300988603  0.0244797837294648  0.19307483765923195  1.0000
  H   H285      1.0  0.1373756645779154  0.9639559165764658  0.2062380601709005  1.0000
  H   H286      1.0  0.11282793824045423  0.09595489096447718  0.18202418635138967  1.0000
  H   H287      1.0  0.09027647077461198  0.08348646587545838  0.23621107513987888  1.0000
  H   H288      1.0  0.0632963049725499  0.08627141776657332  0.18547334178487496  1.0000
  N   N17       1.0  0.5837762596478611  0.6532177034309486  0.7104461167870977  1.0000
  C   C209      1.0  0.6044671791408536  0.6583157664150404  0.6665085182174846  1.0000
  C   C210      1.0  0.5617412229811607  0.6989205970408541  0.7192657454656805  1.0000
  C   C211      1.0  0.6105234153057912  0.6459656844602144  0.7477044322303963  1.0000
  C   C212      1.0  0.5583759190776233  0.6098646986123751  0.7083137891462692  1.0000
  H   H289      1.0  0.6207876584235658  0.6241301579516927  0.6579471758048913  1.0000
  H   H290      1.0  0.6245201047396606  0.689919947561815  0.6673285011783874  1.0000
  H   H291      1.0  0.5851703418114171  0.6654880833889437  0.6379289483298278  1.0000
  H   H292      1.0  0.579949738947046  0.7324862051345824  0.7196323805837637  1.0000
  H   H293      1.0  0.5405102818984707  0.7049160876782027  0.692545435339537  1.0000
  H   H294      1.0  0.546943170879231  0.6972609865543573  0.7530066664995313  1.0000
  H   H295      1.0  0.5957328605299286  0.6421658169706519  0.7813812738998016  1.0000
  H   H296      1.0  0.6299173158748042  0.6782510578963349  0.7503792360413675  1.0000
  H   H297      1.0  0.6277209528454725  0.6118962461421594  0.7421820372366063  1.0000
  H   H298      1.0  0.5739266235813906  0.5749507519814209  0.7001963102359082  1.0000
  H   H299      1.0  0.5370525551505307  0.6148717197095177  0.6814770698397955  1.0000
  H   H300      1.0  0.5431744742211553  0.6040062073656898  0.7414107030217805  1.0000
  N   N18       1.0  0.7698148072341183  0.6105015340071098  0.8325184072142672  1.0000
  C   C213      1.0  0.7497329269118401  0.562872558966052  0.8266828254587895  1.0000
  C   C214      1.0  0.8102167235896554  0.6030218714920029  0.8235095459453182  1.0000
  C   C215      1.0  0.7638656269528985  0.6287081536974383  0.8797408544230811  1.0000
  C   C216      1.0  0.7553828189659645  0.6477507725192293  0.8001712142473528  1.0000
  H   H301      1.0  0.7191023482999072  0.5675176529056459  0.8328698291214591  1.0000
  H   H302      1.0  0.7593338052827932  0.5342090071948564  0.8513471462993372  1.0000
  H   H303      1.0  0.7539772361568208  0.5477197720175129  0.7915728258792931  1.0000
  H   H304      1.0  0.8261504707313228  0.6383311157707665  0.8279520530353183  1.0000
  H   H305      1.0  0.8222034997552492  0.574831341566179  0.8468866191593319  1.0000
  H   H306      1.0  0.8159053573649323  0.5903829917041349  0.7877671985820924  1.0000
  H   H307      1.0  0.7743073774704575  0.6016413234885462  0.9052931914426713  1.0000
  H   H308      1.0  0.7336713771411163  0.6348224210342999  0.8873333576123706  1.0000
  H   H309      1.0  0.7781686502337003  0.6650579065258095  0.8852105062188637  1.0000
  H   H310      1.0  0.7250252715151532  0.6548326255717347  0.8060985357880911  1.0000
  H   H311      1.0  0.759566435835589  0.6356434063199083  0.7640557573388448  1.0000
  H   H312      1.0  0.7698916516465413  0.6841138066446336  0.8042681157533259  1.0000
  N   N19       1.0  0.0614062997008622  0.8055999010460623  0.6765784962850913  1.0000
  C   C217      1.0  0.09095952492879888  0.8198721031386158  0.7086390933509462  1.0000
  C   C218      1.0  0.06264133425722052  0.8391419527852249  0.636503254005657  1.0000
  C   C219      1.0  0.02450029682511823  0.8097232258905219  0.6998571878963378  1.0000
  C   C220      1.0  0.06746863329862962  0.7536270403454446  0.6613734076782757  1.0000
  H   H313      1.0  0.0905880952654603  0.7953278249250728  0.7393788566940037  1.0000
  H   H314      1.0  0.08724236452598988  0.8588832139193413  0.720830978817807  1.0000
  H   H315      1.0  0.11921924712979652  0.8168560852029173  0.692357221663838  1.0000
  H   H316      1.0  0.057880158934960235  0.8786875062379289  0.6465366813976395  1.0000
  H   H317      1.0  0.08999850922657293  0.8369428843431533  0.6178975088973867  1.0000
  H   H318      1.0  0.040695507299336686  0.8292617415193088  0.6117436200299506  1.0000
  H   H319      1.0  0.018786899805171453  0.8485061356720942  0.7114576901208545  1.0000
  H   H320      1.0  0.02276353072743542  0.7851672002700056  0.730551813283644  1.0000
  H   H321      1.0  0.0015348901169984757  0.7987155661552671  0.6767775073224065  1.0000
  H   H322      1.0  0.04532060612261479  0.7412819327759202  0.6378560257023527  1.0000
  H   H323      1.0  0.067010150242244  0.7272774068362681  0.6907122028095218  1.0000
  H   H324      1.0  0.09473088727117518  0.7490811995121157  0.642974617237256  1.0000
  N   N20       1.0  0.110119300950559  0.5273144594216257  0.8013000662211636  1.0000
  C   C221      1.0  0.10625539111385396  0.4767644409528478  0.8208639547490904  1.0000
  C   C222      1.0  0.07632595698516886  0.5566215147811278  0.8127435232986626  1.0000
  C   C223      1.0  0.11483378711337822  0.5238438981263687  0.7511063407768823  1.0000
  C   C224      1.0  0.14299188359600068  0.5522985282632116  0.820600098515949  1.0000
  H   H325      1.0  0.10271005539839306  0.478099349599593  0.8587076865283344  1.0000
  H   H326      1.0  0.13125190286705402  0.4534737913630578  0.8129072420646776  1.0000
  H   H327      1.0  0.08150891883177169  0.45719497339769644  0.8068763481882472  1.0000
  H   H328      1.0  0.05069038018451244  0.5382491135953597  0.8004418700045474  1.0000
  H   H329      1.0  0.07273400762206572  0.5614210287872894  0.8502943307317241  1.0000
  H   H330      1.0  0.07753613797449987  0.5941375713750834  0.796765948194662  1.0000
  H   H331      1.0  0.13938768021146863  0.5004720898425115  0.7412437360314824  1.0000
  H   H332      1.0  0.11876235393865242  0.561251415259939  0.7353371178521807  1.0000
  H   H333      1.0  0.08990306726088648  0.5068594069667312  0.7352887929943641  1.0000
  H   H334      1.0  0.16905364155231362  0.5317886877253019  0.8117958116515519  1.0000
  H   H335      1.0  0.14071087663165316  0.5548616709718595  0.8585152241628382  1.0000
  H   H336      1.0  0.1461553891035845  0.5909282733905397  0.807236018022297  1.0000
  N   N21       1.0  0.6657748286687054  0.4122903053546822  0.48936303261707703  1.0000
  C   C225      1.0  0.6368430889465849  0.3830836682079877  0.4658861331795427  1.0000
  C   C226      1.0  0.6731290442039406  0.38947189123898573  0.5342878056063679  1.0000
  C   C227      1.0  0.6526169879684262  0.4641000874875449  0.49610827685998604  1.0000
  C   C228      1.0  0.7005457280123217  0.41232393906386716  0.46120311338035636  1.0000
  H   H337      1.0  0.6309434452606127  0.39859477337726495  0.4315044423685571  1.0000
  H   H338      1.0  0.610149705927153  0.38230025390305294  0.48604789504864987  1.0000
  H   H339      1.0  0.6456471615126308  0.3435331534556899  0.461141638760729  1.0000
  H   H340      1.0  0.6948520635458331  0.4104026475122416  0.5530428019835927  1.0000
  H   H341      1.0  0.6473949306098883  0.388474970845883  0.556309881091855  1.0000
  H   H342      1.0  0.6827919980337023  0.35016257907351866  0.5305485287598376  1.0000
  H   H343      1.0  0.6736864888558857  0.4872383715900641  0.5139875873432661  1.0000
  H   H344      1.0  0.626399051376637  0.4655009013048146  0.5172093079858664  1.0000
  H   H345      1.0  0.6469405585122897  0.48271776989377313  0.4629838954585408  1.0000
  H   H346      1.0  0.7114738391531327  0.37380595163872826  0.4560387072666207  1.0000
  H   H347      1.0  0.722897495534081  0.4345817505943693  0.4775106031878447  1.0000
  H   H348      1.0  0.6958837530559987  0.4283970067387976  0.4266683311733131  1.0000
  N   N22       1.0  0.5266432536443169  0.7943366419497403  0.018651949347773925  1.0000
  C   C229      1.0  0.5207186631612575  0.7827865805021399  0.06766577125470642  1.0000
  C   C230      1.0  0.5211285735412394  0.7486366606244386  0.9913362799885097  1.0000
  C   C231      1.0  0.5651031363490497  0.813007865974803  0.011070059532764189  1.0000
  C   C232      1.0  0.49975232007651565  0.832958082927821  0.0046158336322241755  1.0000
  H   H349      1.0  0.5267787097399742  0.8156433114677472  0.08957799345464391  1.0000
  H   H350      1.0  0.5390886963534733  0.7517977389919275  0.07871272426423293  1.0000
  H   H351      1.0  0.49127689992577295  0.7716451522304724  0.0752991607018776  1.0000
  H   H352      1.0  0.49227901064050156  0.7337694422187659  0.996068368424656  1.0000
  H   H353      1.0  0.5258736914573354  0.7556223397833457  0.9541325644892686  1.0000
  H   H354      1.0  0.5408979292381074  0.7186432503252282  0.001444192381964138  1.0000
  H   H355      1.0  0.5702481974713923  0.8237456415711262  0.9747695361140127  1.0000
  H   H356      1.0  0.585981293477544  0.7840919516497105  0.01967117355191506  1.0000
  H   H357      1.0  0.570883680688222  0.8461499750326609  0.032764015769110255  1.0000
  H   H358      1.0  0.5023825169079192  0.8411802696346361  0.9674439110623215  1.0000
  H   H359      1.0  0.5042735472074141  0.8684658861753527  0.023427096365114867  1.0000
  H   H360      1.0  0.47037356018093485  0.8213050804441618  0.01205022938111733  1.0000
  N   N23       1.0  0.4493415500609764  0.2263115610330673  0.5403808115621027  1.0000
  C   C233      1.0  0.4494782386945037  0.18405689912960452  0.5079661651754782  1.0000
  C   C234      1.0  0.4801414318841252  0.2608472283355579  0.5281504103518907  1.0000
  C   C235      1.0  0.454524875707619  0.20732889235688498  0.5872357811086828  1.0000
  C   C236      1.0  0.4132693509211828  0.25304492567336506  0.5382895303129946  1.0000
  H   H361      1.0  0.4264520475759042  0.1573440025143472  0.5157514625055256  1.0000
  H   H362      1.0  0.4762383900607252  0.1628857659744869  0.5090034156252476  1.0000
  H   H363      1.0  0.4462637162808891  0.1968972536867316  0.47205961316315  1.0000
  H   H364      1.0  0.48051831398656525  0.29359876103956384  0.5514855004098891  1.0000
  H   H365      1.0  0.5078804512320348  0.2422758351315183  0.5303602395506668  1.0000
  H   H366      1.0  0.477642161921757  0.2750101282386169  0.4926142022677546  1.0000
  H   H367      1.0  0.4819291107680717  0.18804708590293065  0.5904104265838453  1.0000
  H   H368      1.0  0.43220568752352134  0.18039433905856692  0.597293590689146  1.0000
  H   H369      1.0  0.45374465649580703  0.23817719997984876  0.6126989649741061  1.0000
  H   H370      1.0  0.4124883573798968  0.28535508158576134  0.562239851188455  1.0000
  H   H371      1.0  0.3893551319357821  0.22830040483015612  0.5478189240638418  1.0000
  H   H372      1.0  0.40824716045721104  0.26758814869975606  0.5033327417720391  1.0000
  N   N24       1.0  0.31029335636127664  0.3220463229616448  0.7567060562326111  1.0000
  C   C237      1.0  0.326628928204967  0.3481448702702288  0.7960472313436021  1.0000
  C   C238      1.0  0.28433855789700685  0.28292517471672207  0.773308593613156  1.0000
  C   C239      1.0  0.3403001821400912  0.29878444308637575  0.7286101386683704  1.0000
  C   C240      1.0  0.2897075838133358  0.3582956938423455  0.7287468143613093  1.0000
  H   H373      1.0  0.3465594859786996  0.3776507011392312  0.7845386340654862  1.0000
  H   H374      1.0  0.3420687156987475  0.3219513273915634  0.8183075809926099  1.0000
  H   H375      1.0  0.3045241222176419  0.36654195435237924  0.8174901034777197  1.0000
  H   H376      1.0  0.26999475754015995  0.264281692249255  0.7444840727071892  1.0000
  H   H377      1.0  0.2990701843092411  0.25365599608159817  0.7929279133512845  1.0000
  H   H378      1.0  0.26223195055067805  0.29870163359100815  0.7961357812516282  1.0000
  H   H379      1.0  0.3284742180090133  0.27698445532685634  0.6998855752614583  1.0000
  H   H380      1.0  0.35746521694012223  0.2727817088537521  0.749068368624114  1.0000
  H   H381      1.0  0.3594633566653163  0.32724861274624406  0.7134810323920017  1.0000
  H   H382      1.0  0.26670139251859304  0.37628994029736934  0.7487264630840744  1.0000
  H   H383      1.0  0.27691573159615646  0.33993187578608197  0.6988771725450512  1.0000
  H   H384      1.0  0.3083201538641068  0.38845005866019633  0.7154579322818295  1.0000
