data_image0
_chemical_formula_structural       FeS2FeS2FeSFeS3FeS2FeS2FeSFeS3FeS2FeS2FeSFeS3FeS2FeS2FeSFeS3FeS2FeS2FeSFeS3FeS2FeS2FeSFeS3C6H4C6H4C6H4C6H4C6H4C6H4C6H4C6H4C6H4C6H4C6H4C6H4FeS2FeS2FeSFeS3FeS2FeS2FeSFeS3FeS2FeS2FeSFeS3FeS2FeS2FeSFeS3FeS2FeS2FeSFeS3FeS2FeS2FeSFeS3C6H4C6H4C6H4C6H4C6H4C6H4C6H4C6H4C6H4C6H4C6H4C6H4FeS2FeS2FeSFeS3FeS2FeS2FeSFeS3FeS2FeS2FeSFeS3FeS2FeS2FeSFeS3FeS2FeS2FeSFeS3FeS2FeS2FeSFeS3C6H4C6H4C6H4C6H4C6H4C6H4C6H4C6H4C6H4C6H4C6H4C6H4FeS2FeS2FeSFeS3FeS2FeS2FeSFeS3FeS2FeS2FeSFeS3FeS2FeS2FeSFeS3FeS2FeS2FeSFeS3FeS2FeS2FeSFeS3C6H4C6H4C6H4C6H4C6H4C6H4C6H4C6H4C6H4C6H4C6H4C6H4NC4H12NC4H12NC4H12NC4H12NC4H12NC4H12NC4H12NC4H12NC4H12NC4H12NC4H12NC4H12NC4H12NC4H12NC4H12NC4H12NC4H12NC4H12NC4H12NC4H12NC4H12NC4H12NC4H12NC4H12NC4H12NC4H12NC4H12NC4H12NC4H12NC4H12NC4H12NC4H12NC4H12NC4H12NC4H12NC4H12NC4H12NC4H12NC4H12NC4H12NC4H12NC4H12NC4H12NC4H12NC4H12NC4H12NC4H12NC4H12
_chemical_formula_sum              "Fe96 S192 C480 H768 N48"
_cell_length_a       33.85069240805349
_cell_length_b       36.961275560574684
_cell_length_c       36.5129410151551
_cell_angle_alpha    90.33290440709656
_cell_angle_beta     89.87537028293174
_cell_angle_gamma    89.68358646942838

_space_group_name_H-M_alt    "P 1"
_space_group_IT_number       1

loop_
  _space_group_symop_operation_xyz
  'x, y, z'

loop_
  _atom_site_type_symbol
  _atom_site_label
  _atom_site_symmetry_multiplicity
  _atom_site_fract_x
  _atom_site_fract_y
  _atom_site_fract_z
  _atom_site_occupancy
  Fe  Fe1       1.0  0.9864211681655078  0.16374364638484673  0.1641285959095761  1.0000
  S   S1        1.0  0.9842328924634841  0.6101182559173993  0.011749967993692101  1.0000
  S   S2        1.0  0.9679236363715978  0.2174313496690718  0.18729922733883464  1.0000
  Fe  Fe2       1.0  0.010817281260572464  0.15838058201107375  0.6040205816766743  1.0000
  S   S3        1.0  0.042375933616602746  0.5754807175646538  0.45151537599464386  1.0000
  S   S4        1.0  0.06354583947683734  0.19323790540466906  0.5925712791448893  1.0000
  Fe  Fe3       1.0  0.9847285052594059  0.591708057794648  0.4774639969306441  1.0000
  S   S5        1.0  0.9288163653090658  0.560474567456531  0.46867102667568294  1.0000
  Fe  Fe4       1.0  0.04563513876172576  0.6244624483613794  0.9949506439686522  1.0000
  S   S6        1.0  0.07751342322396715  0.6579630226355209  0.036913943489726764  1.0000
  S   S7        1.0  0.9649077996535046  0.15096073334672933  0.5607032818529096  1.0000
  S   S8        1.0  0.04572861174463694  0.1410326779887632  0.17906884710470433  1.0000
  Fe  Fe5       1.0  0.2245256309930355  0.5732710455705178  0.16631860160799242  1.0000
  S   S9        1.0  0.18698603939596237  0.1934658263535306  0.4214543767916812  1.0000
  S   S10       1.0  0.2119468151956141  0.562448164757771  0.10676214118749357  1.0000
  Fe  Fe6       1.0  0.2833237225770613  0.5516570947044926  0.22502957265312717  1.0000
  S   S11       1.0  0.2643330333711375  0.1385526405559581  0.41239139281832327  1.0000
  S   S12       1.0  0.3376068796705158  0.5196228419526303  0.23787118676403718  1.0000
  Fe  Fe7       1.0  0.2037545566673075  0.13712697690536782  0.4379537470177645  1.0000
  S   S13       1.0  0.18985481160575346  0.11316485634519946  0.4929573937449665  1.0000
  Fe  Fe8       1.0  0.2450141630344829  0.19290621981752823  0.39167274059350365  1.0000
  S   S14       1.0  0.2895185335915054  0.23788042623503938  0.3903912095771099  1.0000
  S   S15       1.0  0.22702972579206857  0.5269643785102693  0.20560730953078107  1.0000
  S   S16       1.0  0.2841279594082955  0.5940051994754545  0.1816748645131851  1.0000
  Fe  Fe9       1.0  0.7641215848088286  0.2823476732291662  0.16208377531315596  1.0000
  S   S17       1.0  0.768376090639909  0.31566015696793726  0.2133332087044955  1.0000
  S   S18       1.0  0.811203684988706  0.28138259915401787  0.11892773576165161  1.0000
  Fe  Fe10      1.0  0.6840910477369314  0.25117708676789197  0.18275480934437768  1.0000
  S   S19       1.0  0.6811868590543484  0.2820862586919986  0.23569038464828113  1.0000
  S   S20       1.0  0.6359515179716697  0.21548355691845233  0.16091463395119027  1.0000
  Fe  Fe11      1.0  0.7045848375807988  0.32861997684938615  0.2031302767882695  1.0000
  S   S21       1.0  0.677658460335348  0.3844836632374979  0.20374480706762577  1.0000
  Fe  Fe12      1.0  0.7448554715083322  0.26591120368905447  0.24061394876646897  1.0000
  S   S22       1.0  0.7695359793513954  0.24226321249718277  0.2919667237876769  1.0000
  S   S23       1.0  0.7020339201355403  0.2989757369809369  0.14947787478089108  1.0000
  S   S24       1.0  0.7461389686790676  0.23141482634258426  0.1899371091031257  1.0000
  Fe  Fe13      1.0  0.35646754533056435  0.2831703193586421  0.20203128626783579  1.0000
  S   S25       1.0  0.36873744641785333  0.30348263764758976  0.14546093029545065  1.0000
  S   S26       1.0  0.2969182824520968  0.29258174904012707  0.22728794084460213  1.0000
  Fe  Fe14      1.0  0.43818418673364984  0.25161805193074327  0.21143440581384942  1.0000
  S   S27       1.0  0.4584019997953319  0.2695911932540229  0.1557973701134089  1.0000
  S   S28       1.0  0.47864101479031723  0.2248983456232468  0.2520590498482651  1.0000
  Fe  Fe15      1.0  0.42649917584675184  0.32111070957783394  0.16900336394221138  1.0000
  S   S29       1.0  0.45112334894857076  0.3763319941789506  0.15925273789939245  1.0000
  Fe  Fe16      1.0  0.3991197122358279  0.24996479731445442  0.13706200644248318  1.0000
  S   S30       1.0  0.3927716690791857  0.21838707054269843  0.0846179199949089  1.0000
  S   S31       1.0  0.41183716733661857  0.30533935739795265  0.22646301461918705  1.0000
  S   S32       1.0  0.3813125835131209  0.22767710554340712  0.19167353010034188  1.0000
  Fe  Fe17      1.0  0.7594971533799818  0.6227175548609837  0.35392198282361126  1.0000
  S   S33       1.0  0.7824958605578783  0.5947866187021417  0.3033465579712105  1.0000
  S   S34       1.0  0.7944817072751051  0.6540022675491949  0.39532916826149256  1.0000
  Fe  Fe18      1.0  0.6743332639424426  0.6061752963567266  0.33679329839656313  1.0000
  S   S35       1.0  0.688704062314125  0.5762016969112428  0.28512522357531683  1.0000
  S   S36       1.0  0.6139982939327739  0.617279174969021  0.35909062364028765  1.0000
  Fe  Fe19      1.0  0.7382606790043817  0.5516954710377772  0.3173360254322535  1.0000
  S   S37       1.0  0.7546658982504569  0.4925391692951144  0.31793226389113033  1.0000
  Fe  Fe20      1.0  0.7310845986802045  0.6215775433595897  0.2753516439487262  1.0000
  S   S38       1.0  0.7286141268890599  0.6498706033939691  0.22133378011040372  1.0000
  S   S39       1.0  0.7196959924121442  0.5775901068357686  0.37054931537136176  1.0000
  S   S40       1.0  0.7124165753779129  0.653567269683922  0.324477146809089  1.0000
  Fe  Fe21      1.0  0.44873449515320785  0.49210679451058936  0.475681087046479  1.0000
  S   S41       1.0  0.42991956895735006  0.510048762529135  0.4196473868114957  1.0000
  S   S42       1.0  0.4577294023391472  0.5290672170805809  0.5239514006959605  1.0000
  Fe  Fe22      1.0  0.4488776174792315  0.41274778957680086  0.4558638017255096  1.0000
  S   S43       1.0  0.4307446469601866  0.42336297825544916  0.398166207601033  1.0000
  S   S44       1.0  0.45409804541761123  0.35403862841413625  0.47012795910662325  1.0000
  Fe  Fe23      1.0  0.473951582317327  0.4686610412654597  0.40008329799824416  1.0000
  S   S45       1.0  0.5112335466734417  0.47633359385238183  0.3499641030254211  1.0000
  Fe  Fe24      1.0  0.38829407417424744  0.463222704372047  0.42243036339931256  1.0000
  S   S46       1.0  0.32640403254796696  0.4659623488528428  0.40098674350695296  1.0000
  S   S47       1.0  0.4967883947638569  0.4544430319651634  0.45584705872744297  1.0000
  S   S48       1.0  0.40255789305326334  0.44897794976618727  0.4803423986320293  1.0000
  C   C1        1.0  0.5848209412608205  0.5785713962146094  0.35616992205128495  1.0000
  C   C2        1.0  0.5870880532490479  0.5560980915319875  0.3253112154771267  1.0000
  C   C3        1.0  0.5641357962346812  0.5247484975623369  0.3234457692668632  1.0000
  C   C4        1.0  0.539395346986499  0.5156439643146321  0.35265639976371016  1.0000
  C   C5        1.0  0.5371470556351395  0.5380664933049671  0.3835600193607962  1.0000
  C   C6        1.0  0.5596214684195004  0.5697500125779331  0.38513307655717194  1.0000
  H   H1        1.0  0.6060721703175745  0.5630756358835947  0.3026549952738424  1.0000
  H   H2        1.0  0.5656151517746357  0.5075019024302981  0.29940825714753677  1.0000
  H   H3        1.0  0.5181885661741997  0.5310010294425648  0.40628535768185287  1.0000
  H   H4        1.0  0.5581311596674227  0.586983463174151  0.40912933225402215  1.0000
  C   C7        1.0  0.42592131237960595  0.18172830518987176  0.08443272403557221  1.0000
  C   C8        1.0  0.3923488916439523  0.11785558969872499  0.4998602242568273  1.0000
  C   C9        1.0  0.49034504582685356  0.5805660471102084  0.4791943130768343  1.0000
  C   C10       1.0  0.48611717543515603  0.5674767964645882  0.5148606710324696  1.0000
  C   C11       1.0  0.4568138017114303  0.6456306350038563  0.034668164953409075  1.0000
  C   C12       1.0  0.44730105944463405  0.17327690216992042  0.11598567267636616  1.0000
  H   H5        1.0  0.385292993051604  0.13480531687866418  0.4766705029218343  1.0000
  H   H6        1.0  0.47710632146008625  0.5662813728396585  0.45651406472457695  1.0000
  H   H7        1.0  0.45804247706616036  0.6293868608603699  0.010020857455742549  1.0000
  H   H8        1.0  0.44281139412018894  0.18903354163314087  0.14060562889163863  1.0000
  C   C13       1.0  0.4474191224631431  0.38832049425156945  0.1130042094649482  1.0000
  C   C14       1.0  0.4504683946148769  0.4246828177898753  0.10285767733225144  1.0000
  C   C15       1.0  0.44622097479530987  0.43462674486767017  0.06602046936915723  1.0000
  C   C16       1.0  0.44881414278539383  0.3458105147625216  0.5171543966884977  1.0000
  C   C17       1.0  0.4421873972424657  0.31042618249916965  0.5289230094791644  1.0000
  C   C18       1.0  0.4372973678457122  0.30316001383497865  0.5662527278483601  1.0000
  H   H9        1.0  0.4556151481801749  0.44526335540535394  0.1234751950660277  1.0000
  H   H10       1.0  0.4481917070338495  0.4627928735721743  0.058333167771928415  1.0000
  H   H11       1.0  0.4406021575882885  0.2885640847499821  0.5091487389300521  1.0000
  H   H12       1.0  0.4318964239163209  0.27577947083498244  0.574831884821162  1.0000
  C   C19       1.0  0.6998029900899879  0.4146642362916959  0.23483498821162418  1.0000
  C   C20       1.0  0.6877090870249274  0.45098748976524655  0.2357303900861783  1.0000
  C   C21       1.0  0.7049467948290217  0.4753898885398565  0.2605655055263448  1.0000
  C   C22       1.0  0.7343483716818011  0.46354099732198306  0.2846086364338854  1.0000
  C   C23       1.0  0.7464318607644235  0.4272171485898446  0.2836198605646516  1.0000
  C   C24       1.0  0.7291310708875108  0.40281291274074627  0.25890505080879256  1.0000
  H   H13       1.0  0.66498503963071  0.4603014366933341  0.21718028257644187  1.0000
  H   H14       1.0  0.6953283146154939  0.5032284030012687  0.26110273432647507  1.0000
  H   H15       1.0  0.7689918315019114  0.4178018426385168  0.3023129680996842  1.0000
  H   H16       1.0  0.7382777916855738  0.3747710553604463  0.2588458914694481  1.0000
  C   C25       1.0  0.7583724860891115  0.19606656192957675  0.2916862498206601  1.0000
  C   C26       1.0  0.7808229615666112  0.17221136639967657  0.3127344075181528  1.0000
  C   C27       1.0  0.8027151373892094  0.6762577080069558  0.2362340567470341  1.0000
  C   C28       1.0  0.7709593058210826  0.6752233486802464  0.2117473278862443  1.0000
  C   C29       1.0  0.7726919123676009  0.6950227480115919  0.17926746252253828  1.0000
  C   C30       1.0  0.7281563262771085  0.18267067910067794  0.2693842636928376  1.0000
  H   H17       1.0  0.8036418805375041  0.18267296679829895  0.330410468638092  1.0000
  H   H18       1.0  0.801357834788347  0.6613039467640255  0.2615297873600346  1.0000
  H   H19       1.0  0.7480990910272574  0.6944412790421892  0.16035779853551826  1.0000
  H   H20       1.0  0.7100742896792995  0.20104593669627152  0.25367944131617615  1.0000
  C   C31       1.0  0.5934556063293353  0.2136024270007678  0.18829158498252227  1.0000
  C   C32       1.0  0.5573709598022265  0.2056414992054349  0.1716745886801645  1.0000
  C   C33       1.0  0.5224200763414908  0.20729536305325735  0.19203252787593317  1.0000
  C   C34       1.0  0.5232455456013897  0.21669724102386473  0.22906011585911237  1.0000
  C   C35       1.0  0.5595124272386444  0.22279248465332632  0.24635339087546854  1.0000
  C   C36       1.0  0.5947051616402812  0.22134119770098945  0.2258772519940564  1.0000
  H   H21       1.0  0.5560454858140529  0.19938680467426623  0.14274927490565448  1.0000
  H   H22       1.0  0.49459941570730537  0.20175979575116712  0.17891790590784684  1.0000
  H   H23       1.0  0.5602510429882234  0.23010412251656123  0.2750807955228803  1.0000
  H   H24       1.0  0.6226345772780946  0.2265382629647848  0.23906933612301723  1.0000
  C   C37       1.0  0.32877080685344545  0.4786753278088879  0.3548496604180342  1.0000
  C   C38       1.0  0.2945185353553095  0.48934255625535955  0.33634381817270476  1.0000
  C   C39       1.0  0.29690388983769816  0.5012882870991604  0.29999592623752  1.0000
  C   C40       1.0  0.3334658202214326  0.5020359796037437  0.28205691361448354  1.0000
  C   C41       1.0  0.36739034573942864  0.49001082374966165  0.30004684446997293  1.0000
  C   C42       1.0  0.3651503406648513  0.4789459946695276  0.3365783226089803  1.0000
  H   H25       1.0  0.2662808398967098  0.4889335885902284  0.3502453061385362  1.0000
  H   H26       1.0  0.2704144211774358  0.5098832012197672  0.2859454045280064  1.0000
  H   H27       1.0  0.39562881470607064  0.49022147469706695  0.2861088230166019  1.0000
  H   H28       1.0  0.39173516701742955  0.47086031256719213  0.35054795219931906  1.0000
  C   C43       1.0  0.29081101507469337  0.2564256477791583  0.3463213552302055  1.0000
  C   C44       1.0  0.326487778806582  0.2691342996095077  0.3320244482756479  1.0000
  C   C45       1.0  0.3285750308701661  0.2805486988484031  0.29548015260929555  1.0000
  C   C46       1.0  0.2947018235217294  0.28020054596254906  0.2735462863915487  1.0000
  C   C47       1.0  0.2586275773944524  0.26932459709185197  0.28853031595831075  1.0000
  C   C48       1.0  0.25674346479107607  0.25720717511598007  0.32479306269028235  1.0000
  H   H29       1.0  0.3527051254870866  0.2692634343996737  0.34884906307508856  1.0000
  H   H30       1.0  0.35635178607558926  0.28954849125030396  0.28431935960669635  1.0000
  H   H31       1.0  0.23222535530642474  0.2696267584081836  0.2718624732457424  1.0000
  H   H32       1.0  0.22877088513515995  0.2487751463277661  0.3361483592630797  1.0000
  C   C49       1.0  0.09835577631384163  0.17093741795203804  0.5647350611832269  1.0000
  C   C50       1.0  0.10710430363874379  0.13432857683537988  0.5700675955578092  1.0000
  C   C51       1.0  0.1351004308264565  0.1168019761961443  0.5477475678690445  1.0000
  C   C52       1.0  0.1539828531323465  0.1356267359074994  0.5196034661746423  1.0000
  C   C53       1.0  0.0973953633447935  0.5634438595374457  0.33264972459690256  1.0000
  C   C54       1.0  0.07932032542169454  0.5883907396084487  0.3564416556420257  1.0000
  H   H33       1.0  0.09285894171712372  0.11958522446968  0.5917758651411589  1.0000
  H   H34       1.0  0.14201646785341726  0.08854080262158415  0.5522572295325099  1.0000
  H   H35       1.0  0.08936587630988835  0.5351599560501831  0.3336968619679077  1.0000
  H   H36       1.0  0.05726969255584801  0.5792120740544077  0.37548228492477126  1.0000
  C   C55       1.0  0.11854988403252009  0.634730275996899  0.05445069333193464  1.0000
  C   C56       1.0  0.13704015151435156  0.6073483469935194  0.03401420880888906  1.0000
  C   C57       1.0  0.16668097816815286  0.5859828478753065  0.04991121483180261  1.0000
  C   C58       1.0  0.17811896199516225  0.5921626937441272  0.08619631883097073  1.0000
  C   C59       1.0  0.049552022659873574  0.15944284038618395  0.29854374919344273  1.0000
  C   C60       1.0  0.03166211681565767  0.13315550243232624  0.2763713106845915  1.0000
  H   H37       1.0  0.1285543473880486  0.6026289346295066  0.00593107262840431  1.0000
  H   H38       1.0  0.18028193576038531  0.5643017808775747  0.03422587057779203  1.0000
  H   H39       1.0  0.042719795569476915  0.1877930110276303  0.2944853328451663  1.0000
  H   H40       1.0  0.01109426605436381  0.14130231079935945  0.25533509761878287  1.0000
  C   C61       1.0  0.8898073681946916  0.5861655724532948  0.4505731915503126  1.0000
  C   C62       1.0  0.887385870823277  0.6234334291395243  0.4570907461915507  1.0000
  C   C63       1.0  0.8574334405315193  0.6440166924486936  0.4406873520440483  1.0000
  C   C64       1.0  0.8299980590984759  0.6274235699899585  0.4174951876396736  1.0000
  C   C65       1.0  0.831955130506928  0.5900658364277672  0.4114100322724307  1.0000
  C   C66       1.0  0.8617048095312778  0.5694283561013385  0.4281688341649225  1.0000
  H   H41       1.0  0.9083426309735506  0.6364050984798592  0.47499977271549115  1.0000
  H   H42       1.0  0.8558678695322363  0.6729129118213786  0.44551328140694435  1.0000
  H   H43       1.0  0.8108577778860537  0.5770749635570462  0.393489556809568  1.0000
  H   H44       1.0  0.8634665929313499  0.5405706987038846  0.42308637335595695  1.0000
  C   C67       1.0  0.9241160485157532  0.2341417276714435  0.16798004294626231  1.0000
  C   C68       1.0  0.8978437279474695  0.25407315124167956  0.18991178756676125  1.0000
  C   C69       1.0  0.8628005871079912  0.2678992488739139  0.17499597954882223  1.0000
  C   C70       1.0  0.8545382422295782  0.2629484212205122  0.1377812415604369  1.0000
  C   C71       1.0  0.8810204615802913  0.24332545972304231  0.11570213901093448  1.0000
  C   C72       1.0  0.9154833152499159  0.22836213059747143  0.13094411500921688  1.0000
  H   H45       1.0  0.9044599534317295  0.25866630471922447  0.2185225091830798  1.0000
  H   H46       1.0  0.8426286442317843  0.2829861559353296  0.19223158317547193  1.0000
  H   H47       1.0  0.8746565863427147  0.23930954793381254  0.08694920838157284  1.0000
  H   H48       1.0  0.935793867143732  0.21313161745369338  0.11385782268540888  1.0000
  Fe  Fe25      1.0  0.920955084690674  0.15635009437128505  0.606282056033671  1.0000
  S   S49       1.0  0.01080045287020992  0.600153255926654  0.5329741849464907  1.0000
  S   S50       1.0  0.8606015928105111  0.18023031095350212  0.5983518809298295  1.0000
  Fe  Fe26      1.0  0.0440634983056134  0.11554260406995852  0.12331831398025361  1.0000
  S   S51       1.0  0.06146332796713594  0.5680491266024459  0.9771233677447126  1.0000
  S   S52       1.0  0.1008141314240587  0.10850178472888049  0.09209814182731879  1.0000
  Fe  Fe27      1.0  0.9984401038773989  0.5551954433051348  0.9895754442111668  1.0000
  S   S53       1.0  0.9849423959592168  0.5082918910353383  0.025885503861692083  1.0000
  Fe  Fe28      1.0  0.06923593978732634  0.5903553422646085  0.5056011101352721  1.0000
  S   S54       1.0  0.11478825639571055  0.5550802296798144  0.5324908785601817  1.0000
  S   S55       1.0  0.9871135268414191  0.14252382106232936  0.10625820883555037  1.0000
  S   S56       1.0  0.9666009251204529  0.1703263233110568  0.6483730078027246  1.0000
  Fe  Fe29      1.0  0.25517957026185684  0.632164200206225  0.6749061322102025  1.0000
  S   S57       1.0  0.15508742666839564  0.15871212383552585  0.8392973255896607  1.0000
  S   S58       1.0  0.25143003510404105  0.6386854916003388  0.6138878477460636  1.0000
  Fe  Fe30      1.0  0.26937026827140853  0.588776954808136  0.7442289093355773  1.0000
  S   S59       1.0  0.20175914824653676  0.13737578084897117  0.915637693407138  1.0000
  S   S60       1.0  0.2822554186815778  0.5350027842790315  0.7701468744735644  1.0000
  Fe  Fe31      1.0  0.13939928826333037  0.13752365361480576  0.8949782711708992  1.0000
  S   S61       1.0  0.09050114832001688  0.1621554796751591  0.9285697261514454  1.0000
  Fe  Fe32      1.0  0.21767154361366411  0.15263512654503406  0.8583857760579768  1.0000
  S   S62       1.0  0.26624493139721817  0.19181289908671045  0.8465346101301997  1.0000
  S   S63       1.0  0.21421062304199212  0.6036200286846484  0.71345547997846  1.0000
  S   S64       1.0  0.31007939265787754  0.6113998432662839  0.7017712594482044  1.0000
  Fe  Fe33      1.0  0.7386578407488823  0.24381744916003073  0.7521489934381979  1.0000
  S   S65       1.0  0.7115580615237369  0.2576357707856026  0.8063284081677531  1.0000
  S   S66       1.0  0.802265338275122  0.2575488236580792  0.7432952103218631  1.0000
  Fe  Fe34      1.0  0.663102885494198  0.21055464143488042  0.7231069451569078  1.0000
  S   S67       1.0  0.6295663137839598  0.22198531644383965  0.7750992193850278  1.0000
  S   S68       1.0  0.6343037469382158  0.18503394150367983  0.6740211160781769  1.0000
  Fe  Fe35      1.0  0.6595494112647368  0.2756533817039904  0.7731849642320036  1.0000
  S   S69       1.0  0.6289682205196965  0.329073165622676  0.7807187012077181  1.0000
  Fe  Fe36      1.0  0.6848535141665313  0.20240516590678204  0.8025134108796778  1.0000
  S   S70       1.0  0.686013805338263  0.16568721770533734  0.8512739126980471  1.0000
  S   S71       1.0  0.6888122200555158  0.2661715445111625  0.7189816472871045  1.0000
  S   S72       1.0  0.7163263921366965  0.18701390746952082  0.7506072158545549  1.0000
  Fe  Fe37      1.0  0.33998089545327004  0.21758672009957203  0.6608871423127484  1.0000
  S   S73       1.0  0.3577103465857001  0.2481864421657198  0.610928120200313  1.0000
  S   S74       1.0  0.2764354983110113  0.2082652300696403  0.6751892326278441  1.0000
  Fe  Fe38      1.0  0.42308512797545644  0.19129021076083305  0.6758050980528982  1.0000
  S   S75       1.0  0.44845603345880014  0.2191389415031346  0.6266842990553061  1.0000
  S   S76       1.0  0.45757165367528335  0.1577663557589733  0.7156676101002892  1.0000
  Fe  Fe39      1.0  0.4099126819574412  0.26549878509619534  0.6439517557014695  1.0000
  S   S77       1.0  0.4338074723792842  0.32159585543223407  0.6389777205490006  1.0000
  Fe  Fe40      1.0  0.39444220951816666  0.19936223616963827  0.5978322002618686  1.0000
  S   S78       1.0  0.3938503698436446  0.18022570727763232  0.539564820113014  1.0000
  S   S79       1.0  0.3888805187634527  0.23955350378500212  0.6959194365633827  1.0000
  S   S80       1.0  0.3726314366913875  0.16707661560224502  0.6453184942735096  1.0000
  Fe  Fe41      1.0  0.7688168958075003  0.4771444396555258  0.9816462721710503  1.0000
  S   S81       1.0  0.7724022296517131  0.4359288617495468  0.9363822623945419  1.0000
  S   S82       1.0  0.802527059231115  0.47561495027577494  0.03442795705500723  1.0000
  Fe  Fe42      1.0  0.7035501981520937  0.5198692889455468  0.9451061347715534  1.0000
  S   S83       1.0  0.7007157815216375  0.48282583291773123  0.8965648391561157  1.0000
  S   S84       1.0  0.6669710898895852  0.5697305424283067  0.9535144361846036  1.0000
  Fe  Fe43      1.0  0.7061796089187794  0.4383974444933239  0.9377645487820072  1.0000
  S   S85       1.0  0.6704806034789813  0.3875221412982268  0.9383676220961045  1.0000
  Fe  Fe44      1.0  0.7668534967882957  0.48385469772163214  0.8992717667097461  1.0000
  S   S86       1.0  0.7994556536208924  0.4900792306986765  0.8461712980857172  1.0000
  S   S87       1.0  0.7029484611859501  0.4754678193087174  0.9863333928728557  1.0000
  S   S88       1.0  0.7691529638817637  0.5250513336236542  0.9445324336491809  1.0000
  Fe  Fe45      1.0  0.42612829398084473  0.5549878041928711  0.01711357039027539  1.0000
  S   S89       1.0  0.4101815893455507  0.5812372340972436  0.9639362172551701  1.0000
  S   S90       1.0  0.43214109903971587  0.5842739191165295  0.07066020048375643  1.0000
  Fe  Fe46      1.0  0.4249227599762294  0.47936866320187294  0.9853980876614683  1.0000
  S   S91       1.0  0.40830343951070885  0.4986468336297303  0.9295143149718196  1.0000
  S   S92       1.0  0.4349240919974104  0.4198850890355539  0.9930195579640755  1.0000
  Fe  Fe47      1.0  0.4531953149617262  0.5416081689931581  0.9393953411828553  1.0000
  S   S93       1.0  0.49414076723583017  0.5518236565688791  0.8923391197405963  1.0000
  Fe  Fe48      1.0  0.36663808153772187  0.5360927780702953  0.9588173976715189  1.0000
  S   S94       1.0  0.305338318414722  0.5509559881108044  0.9409357585083082  1.0000
  S   S95       1.0  0.4735407938770303  0.5193989551749578  0.9932304510006552  1.0000
  S   S96       1.0  0.37883581543500533  0.5128098025865518  0.014140629310965602  1.0000
  C   C73       1.0  0.6190190314688044  0.5642408222088374  0.9365313575962546  1.0000
  C   C74       1.0  0.6127997958084381  0.5475361701391139  0.9025378247594331  1.0000
  C   C75       1.0  0.5743952221922272  0.5445461559071834  0.8885579955848177  1.0000
  C   C76       1.0  0.5421501363440819  0.5572751272416273  0.9090553068970828  1.0000
  C   C77       1.0  0.5483231353437507  0.5733978774523373  0.9432723356130084  1.0000
  C   C78       1.0  0.5868168565330181  0.5774914127629289  0.9566796154912011  1.0000
  H   H49       1.0  0.6375301803820842  0.5374559989585743  0.8867225981807736  1.0000
  H   H50       1.0  0.5695729041760385  0.5318726261941477  0.862162506675003  1.0000
  H   H51       1.0  0.5234772306818257  0.5833831463740352  0.9591625908257095  1.0000
  H   H52       1.0  0.5915439518656571  0.5905589010811407  0.9829132103442233  1.0000
  C   C79       1.0  0.397374474939788  0.13329666748969302  0.534550213161644  1.0000
  C   C80       1.0  0.43097801785694356  0.16074165312377786  0.052725660744419756  1.0000
  C   C81       1.0  0.44496005116098114  0.651019165273464  0.09985560233535096  1.0000
  C   C82       1.0  0.44603264257875697  0.6298738513495604  0.0679956397206638  1.0000
  C   C83       1.0  0.5033815408906621  0.5861257611958643  0.5441297829005117  1.0000
  C   C84       1.0  0.40595797053593347  0.1112762425756828  0.5645530469026098  1.0000
  H   H53       1.0  0.4150083763861517  0.16749423589157608  0.028104852160048877  1.0000
  H   H54       1.0  0.43626930119514606  0.6390931405259751  0.12564170622047133  1.0000
  H   H55       1.0  0.5008681713877494  0.5756452872322386  0.5716467298122623  1.0000
  H   H56       1.0  0.4103302945054417  0.12310219854682301  0.591305863805536  1.0000
  C   C85       1.0  0.4396330915101487  0.33113495709627816  0.5921339799085445  1.0000
  C   C86       1.0  0.44661560888591056  0.36656886872808503  0.5804193615847725  1.0000
  C   C87       1.0  0.45085143456089  0.37398063910618695  0.542875902126983  1.0000
  C   C88       1.0  0.43968092739200376  0.4080883357204811  0.039259321245287415  1.0000
  C   C89       1.0  0.43721041470489724  0.3716911226699598  0.0494077105867079  1.0000
  C   C90       1.0  0.4406419915191401  0.36183319490062055  0.08630442360307122  1.0000
  H   H57       1.0  0.4483526249600829  0.38833336809291175  0.6002861130473992  1.0000
  H   H58       1.0  0.4560977017857109  0.4013967204888825  0.5339333554709564  1.0000
  H   H59       1.0  0.4321101471322724  0.35113136239730974  0.028752527300058617  1.0000
  H   H60       1.0  0.4382067847518967  0.3336981384666067  0.09395787450100146  1.0000
  C   C91       1.0  0.6379449599092475  0.3453948214449338  0.8249796327716892  1.0000
  C   C92       1.0  0.6444116645756542  0.3212897724812079  0.8537369927237075  1.0000
  C   C93       1.0  0.6535232460405435  0.33449343844798163  0.8887627779053131  1.0000
  C   C94       1.0  0.6574000093288757  0.37171901792099427  0.8947803117803383  1.0000
  C   C95       1.0  0.6506282598474797  0.39584577471002375  0.866074190867616  1.0000
  C   C96       1.0  0.6404617792775287  0.3826955037144043  0.8312648304671876  1.0000
  H   H61       1.0  0.6421344758113942  0.29243286318005884  0.849078310898986  1.0000
  H   H62       1.0  0.6584388875568533  0.31575966122287913  0.910999736212993  1.0000
  H   H63       1.0  0.6527678715165157  0.4246052538541308  0.8706869072270017  1.0000
  H   H64       1.0  0.6353705936099986  0.40135971187229663  0.809014854464135  1.0000
  C   C97       1.0  0.7203901213520457  0.13071809322162617  0.8442603731912434  1.0000
  C   C98       1.0  0.7435590020837315  0.11863663000069113  0.8734468661187924  1.0000
  C   C99       1.0  0.8257884833482433  0.5552031207396858  0.8721325728899918  1.0000
  C   C100      1.0  0.8131055636543311  0.5355219562315462  0.8415579395397667  1.0000
  C   C101      1.0  0.8083085820493071  0.5530259664844713  0.8079474390525011  1.0000
  C   C102      1.0  0.7237239238905592  0.11380833163076719  0.810010227467029  1.0000
  H   H65       1.0  0.7410906933879323  0.1316842061426696  0.8999771737524468  1.0000
  H   H66       1.0  0.8315358599135428  0.5414912993213947  0.8975994669251394  1.0000
  H   H67       1.0  0.7985225591478435  0.5378768013445413  0.7842210977741924  1.0000
  H   H68       1.0  0.7046577949542234  0.12190253239502646  0.7878209233991572  1.0000
  C   C103      1.0  0.5866510439065837  0.17025654953435895  0.6847368555219059  1.0000
  C   C104      1.0  0.5578844305275307  0.16923983261968428  0.6573485753122462  1.0000
  C   C105      1.0  0.5183556241258062  0.16293102742180798  0.6666319020376436  1.0000
  C   C106      1.0  0.5075283851495969  0.15811323638197983  0.7032358418994558  1.0000
  C   C107      1.0  0.5366605503605384  0.156468684792035  0.7302336319911898  1.0000
  C   C108      1.0  0.5762947086508962  0.16229727149699788  0.7208944914859166  1.0000
  H   H69       1.0  0.5659652076269639  0.17474277008287906  0.6292552885108879  1.0000
  H   H70       1.0  0.49614605252018545  0.16214152155485465  0.6455926473040483  1.0000
  H   H71       1.0  0.5285122898829981  0.152018722250116  0.7585172437028981  1.0000
  H   H72       1.0  0.5987649733371967  0.16096452296730968  0.7417527620796103  1.0000
  C   C109      1.0  0.2990776298617715  0.5461223801333993  0.8935871323238821  1.0000
  C   C110      1.0  0.27328413375750255  0.5694225648975231  0.8752357358458489  1.0000
  C   C111      1.0  0.2677246311361272  0.5657708609158979  0.8374096774060855  1.0000
  C   C112      1.0  0.28819564027658146  0.539069067133301  0.8176891087306759  1.0000
  C   C113      1.0  0.31331995175366445  0.5152108297423753  0.836158367018069  1.0000
  C   C114      1.0  0.3188468130202106  0.5188020450935068  0.8740733806762155  1.0000
  H   H73       1.0  0.25736943885592545  0.5902074115453  0.8903125206717867  1.0000
  H   H74       1.0  0.24658284443969358  0.5829715245478367  0.8237945770364931  1.0000
  H   H75       1.0  0.3287122648602662  0.4940870416361442  0.8211144718511354  1.0000
  H   H76       1.0  0.3377254836790579  0.4999237032851599  0.8882470523301792  1.0000
  C   C115      1.0  0.2669505519036836  0.19868147088185248  0.7991053688900005  1.0000
  C   C116      1.0  0.29279049418259556  0.22386233803099415  0.7837927847229661  1.0000
  C   C117      1.0  0.2950261062039072  0.22765109846408962  0.7456347265601874  1.0000
  C   C118      1.0  0.2714350437062674  0.20626783736703036  0.7228277896945617  1.0000
  C   C119      1.0  0.24524582032364306  0.1814936451170591  0.7381766654036518  1.0000
  C   C120      1.0  0.24297901525816065  0.17770336089529662  0.7762493053144672  1.0000
  H   H77       1.0  0.31117210279088076  0.2403276578861318  0.8013736505414196  1.0000
  H   H78       1.0  0.31470566780343584  0.24737709888150086  0.7339136602934383  1.0000
  H   H79       1.0  0.22773174435860835  0.16430007309747338  0.7206408341466491  1.0000
  H   H80       1.0  0.22321828294518492  0.15794873561011874  0.7877531463776163  1.0000
  C   C121      1.0  0.09836467414852246  0.12444369225968395  0.04703626270800765  1.0000
  C   C122      1.0  0.07173412722973915  0.15184469618234517  0.037425529794878454  1.0000
  C   C123      1.0  0.06968054602793083  0.16372359760993246  0.0010239264107037016  1.0000
  C   C124      1.0  0.09415517013233443  0.14812238665141114  0.9742243522692802  1.0000
  C   C125      1.0  0.14135916367878573  0.6100892517244824  0.79480838733509  1.0000
  C   C126      1.0  0.1195685434673842  0.5856196322249978  0.8158948145267678  1.0000
  H   H81       1.0  0.05313043952739216  0.1642534489930063  0.058102578905830704  1.0000
  H   H82       1.0  0.04929795308275753  0.1851274366945345  0.9936904956656863  1.0000
  H   H83       1.0  0.16085772070833196  0.6000763879662049  0.7736388673722451  1.0000
  H   H84       1.0  0.1220217717695761  0.5569712129353602  0.8104109575713203  1.0000
  C   C127      1.0  0.1516795969719893  0.5790507628155737  0.5559241461717938  1.0000
  C   C128      1.0  0.16752226817261584  0.5650495832283206  0.5883582927652213  1.0000
  C   C129      1.0  0.19761609173440187  0.5836250319309743  0.6069315385805036  1.0000
  C   C130      1.0  0.212721555988739  0.6156160644366829  0.5923835890993399  1.0000
  C   C131      1.0  0.0830166223227944  0.06756015736442289  0.7220431157552483  1.0000
  C   C132      1.0  0.043752116982628486  0.07124033896537929  0.7106274733606341  1.0000
  H   H85       1.0  0.15645931695151027  0.5398386456888923  0.5991692934091323  1.0000
  H   H86       1.0  0.20984141265088896  0.5726487551210474  0.6318929663065862  1.0000
  H   H87       1.0  0.10454634049513034  0.055062156093730545  0.7039552148688385  1.0000
  H   H88       1.0  0.03503099101199436  0.061165431111491746  0.6840342715132843  1.0000
  C   C133      1.0  0.9344857588533256  0.497982779295996  0.02690521889707176  1.0000
  C   C134      1.0  0.9169926259314986  0.48921264367178485  0.06038154387503303  1.0000
  C   C135      1.0  0.876464054283922  0.4822182631093806  0.062281715748486954  1.0000
  C   C136      1.0  0.8534378300477886  0.4829027701812387  0.03054758094939669  1.0000
  C   C137      1.0  0.8710629027942307  0.4904234042479148  0.9967320683226623  1.0000
  C   C138      1.0  0.9115505474936783  0.4986649089214339  0.9950064453973891  1.0000
  H   H89       1.0  0.9346600086275095  0.4885053320443379  0.08502239446881288  1.0000
  H   H90       1.0  0.8629720553604359  0.47639838404747065  0.08844590368076499  1.0000
  H   H91       1.0  0.8534616340675694  0.49036277131898354  0.9720326247534387  1.0000
  H   H92       1.0  0.9251473830049936  0.5048720588289015  0.9689673397289585  1.0000
  C   C139      1.0  0.8444230023184571  0.20391038955024823  0.6373835436336972  1.0000
  C   C140      1.0  0.8041223961728089  0.20482812365586098  0.6459873303383531  1.0000
  C   C141      1.0  0.7910548979187416  0.22162209665641375  0.6783822573313906  1.0000
  C   C142      1.0  0.8182166671272788  0.2380801457787468  0.7019193956181384  1.0000
  C   C143      1.0  0.8584214473580242  0.23783398691019805  0.6929703144742047  1.0000
  C   C144      1.0  0.8715369559372446  0.2205837390033759  0.6608184292247786  1.0000
  H   H93       1.0  0.7830346567674299  0.19203687446613124  0.6279073496664218  1.0000
  H   H94       1.0  0.7599140615472154  0.22187735731006256  0.6849962553736777  1.0000
  H   H95       1.0  0.8794595146856065  0.2507726323439381  0.7109795119136658  1.0000
  H   H96       1.0  0.9025315060166254  0.22074511724904658  0.6538614509247775  1.0000
  Fe  Fe49      1.0  0.968022787718017  0.6238941888895801  0.9543226292858894  1.0000
  S   S97       1.0  0.9529659142255286  0.11701268002719378  0.18662786816867996  1.0000
  S   S98       1.0  0.9122443564400674  0.6557983697720114  0.9465061528612662  1.0000
  Fe  Fe50      1.0  0.04832489900207926  0.6345212385769847  0.43927814355321376  1.0000
  S   S99       1.0  0.016723585225855375  0.09949765041371395  0.6170483286505737  1.0000
  S   S100      1.0  0.06775499805949514  0.6565321010977624  0.3850303964616309  1.0000
  Fe  Fe51      1.0  0.9672434461266323  0.09267485428378563  0.5766690889911349  1.0000
  S   S101      1.0  0.9662811664877093  0.04781199284346371  0.5346328611755831  1.0000
  Fe  Fe52      1.0  0.011955585891021858  0.09240754532061235  0.19670669722102496  1.0000
  S   S102      1.0  0.023798819774417668  0.06438577128029133  0.24957847839569552  1.0000
  S   S103      1.0  0.9887295914456388  0.6496793774816383  0.46100461323453773  1.0000
  S   S104      1.0  0.028460654642852967  0.643036509926288  0.938782007203248  1.0000
  Fe  Fe53      1.0  0.16294652617799127  0.16631017101664702  0.3712121326680789  1.0000
  S   S105      1.0  0.19109442446622846  0.6103171895243601  0.20439589559159882  1.0000
  S   S106      1.0  0.10442678932978723  0.1830906248828581  0.3475672853970438  1.0000
  Fe  Fe54      1.0  0.2343899770395177  0.11703490109557979  0.3621489786241937  1.0000
  S   S107      1.0  0.25527071923847655  0.5866680408196083  0.26808457047613704  1.0000
  S   S108      1.0  0.2568890045751565  0.0788996960584587  0.31882762205290216  1.0000
  Fe  Fe55      1.0  0.19834794087441915  0.5656386427738567  0.2451903296426797  1.0000
  S   S109      1.0  0.1496498486666238  0.5428036837952936  0.27970968125834367  1.0000
  Fe  Fe56      1.0  0.2514304028146666  0.6275032753598152  0.22314743662757186  1.0000
  S   S110      1.0  0.27079707997723973  0.684874818000273  0.23090414890669037  1.0000
  S   S111      1.0  0.17583148660908285  0.10995557530459843  0.3896479699886019  1.0000
  S   S112      1.0  0.2192726569709678  0.17140059052361  0.3395942049654191  1.0000
  Fe  Fe57      1.0  0.8864097660460479  0.8117565032563729  0.06844098804859655  1.0000
  S   S113      1.0  0.9024043730351601  0.8285424734786963  0.1257030028233839  1.0000
  S   S114      1.0  0.932882374522882  0.8065345133361491  0.025070910721883166  1.0000
  Fe  Fe58      1.0  0.7996600901770053  0.8039908903169928  0.08603526448507075  1.0000
  S   S115      1.0  0.8082340453513619  0.818907177679799  0.14489869731020252  1.0000
  S   S116      1.0  0.738303938402719  0.7983432062740926  0.06387592413112583  1.0000
  Fe  Fe59      1.0  0.8471303497752891  0.8622387628533392  0.12301449521246248  1.0000
  S   S117      1.0  0.8339362835382867  0.9178051716775378  0.14460758472905064  1.0000
  Fe  Fe60      1.0  0.861991607618956  0.783468142081896  0.14180038348134602  1.0000
  S   S118      1.0  0.87842121263603  0.7445967065673149  0.18629806551428146  1.0000
  S   S119      1.0  0.8353240904512373  0.8498053914010322  0.06401951734653122  1.0000
  S   S120      1.0  0.8498480675521105  0.7640478393279578  0.08474428370824542  1.0000
  Fe  Fe61      1.0  0.4789659002802509  0.7399056300163158  0.2007855357452109  1.0000
  S   S121      1.0  0.4422511607535194  0.7741489145668543  0.16311495692512532  1.0000
  S   S122      1.0  0.4575404343016842  0.6920537386500876  0.232801415762866  1.0000
  Fe  Fe62      1.0  0.5556285578722984  0.7770927576689047  0.18051439757197463  1.0000
  S   S123      1.0  0.5262637693795355  0.8142381389449271  0.1404984058158656  1.0000
  S   S124      1.0  0.6200073763094017  0.7737823464514337  0.19503195635391757  1.0000
  Fe  Fe63      1.0  0.47959123046943014  0.8198843372290575  0.18382913075693552  1.0000
  S   S125      1.0  0.4586499195143996  0.8762229214754318  0.1965674099550737  1.0000
  Fe  Fe64      1.0  0.4917922635351708  0.7653878555837634  0.12321517275943532  1.0000
  S   S126      1.0  0.480950398341536  0.7490614840688251  0.0648286831335439  1.0000
  S   S127      1.0  0.5116793818942127  0.7865455549718042  0.22556231153586168  1.0000
  S   S128      1.0  0.5257320901969119  0.7276740712419167  0.15908719070771074  1.0000
  Fe  Fe65      1.0  0.8483075629093212  0.04631580577157468  0.3675589746714381  1.0000
  S   S129      1.0  0.831947751359308  0.027111701939333432  0.3113707951554802  1.0000
  S   S130      1.0  0.8994561230723827  0.08335417551599034  0.377452504380213  1.0000
  Fe  Fe66      1.0  0.7767903566488097  0.01277291339995501  0.40338229283070837  1.0000
  S   S131      1.0  0.7531777307807827  0.9909860858604377  0.35038192455613093  1.0000
  S   S132      1.0  0.7450984323987441  0.006494635343604616  0.456804179295799  1.0000
  Fe  Fe67      1.0  0.8161103964302098  0.9751898922201001  0.3393701621359537  1.0000
  S   S133      1.0  0.8318620647255167  0.9202378432551538  0.31678459686986093  1.0000
  Fe  Fe68      1.0  0.770864397153987  0.04463721962990319  0.327388606797518  1.0000
  S   S134      1.0  0.7329150006136855  0.07509972966238743  0.2877320161753496  1.0000
  S   S135      1.0  0.8386228780674374  0.9927529245518233  0.39451263783065227  1.0000
  S   S136      1.0  0.7882730731848854  0.06798080341807533  0.3816815295688167  1.0000
  Fe  Fe69      1.0  0.4555535373005274  0.011942350225402798  0.464776862315241  1.0000
  S   S137      1.0  0.468361487696267  0.06028596031035427  0.4296559349176265  1.0000
  S   S138      1.0  0.4210971250712202  0.013637248502718524  0.517102477553269  1.0000
  Fe  Fe70      1.0  0.5081246525844362  0.9620630085951336  0.42049072135713195  1.0000
  S   S139      1.0  0.5263546421735025  0.005774593529128014  0.3819675612566426  1.0000
  S   S140      1.0  0.5247159678402418  0.9040455362110396  0.4105591790248898  1.0000
  Fe  Fe71      1.0  0.5308816843728015  0.04057194681761578  0.43204165388218113  1.0000
  S   S141      1.0  0.5787466770751801  0.08175545496408354  0.4389937382858753  1.0000
  Fe  Fe72      1.0  0.4623185671815344  0.021260594727083637  0.38287227312669203  1.0000
  S   S142      1.0  0.4359651681573832  0.03156388604770455  0.3276790550436113  1.0000
  S   S143      1.0  0.5187194255880377  0.995372025322938  0.4710197876934308  1.0000
  S   S144      1.0  0.4434975916700344  0.9747179571206378  0.4176506793223868  1.0000
  C   C145      1.0  0.6988514990108183  0.027435770514388835  0.4527631225085175  1.0000
  C   C146      1.0  0.6962564435640296  0.06484998866331138  0.4475824885660266  1.0000
  C   C147      1.0  0.6591683911943765  0.08158227146043018  0.44428898866970934  1.0000
  C   C148      1.0  0.62479036234329  0.060739845004438964  0.44481988448620896  1.0000
  C   C149      1.0  0.627422026206087  0.023289002193104924  0.44957280534279165  1.0000
  C   C150      1.0  0.6644274542960021  0.006712444818592234  0.4540984063526359  1.0000
  H   H97       1.0  0.7228477922244384  0.08089941057609251  0.446416962941363  1.0000
  H   H98       1.0  0.657220238368796  0.11058444415577084  0.4409088981481487  1.0000
  H   H99       1.0  0.6010893020967111  0.0069492316051325  0.4497143032108589  1.0000
  H   H100      1.0  0.6664425934019708  0.977717357043394  0.45781496728737425  1.0000
  C   C151      1.0  0.46637004129719956  0.7034630827578812  0.06551285917186424  1.0000
  C   C152      1.0  0.5107191473195564  0.6129653069414519  0.4730723818875955  1.0000
  C   C153      1.0  0.3973390210733128  0.08053662411237728  0.4948888673211531  1.0000
  C   C154      1.0  0.4073745498427804  0.058669641247585114  0.5245951214918481  1.0000
  C   C155      1.0  0.47379640310024923  0.143943049012504  0.11592656614718329  1.0000
  C   C156      1.0  0.46692397553588805  0.6824739471778686  0.03342220727457157  1.0000
  H   H101      1.0  0.5129968405886275  0.6236965304120865  0.4456619384857313  1.0000
  H   H102      1.0  0.3937666090515832  0.06867952287834966  0.4679651561378258  1.0000
  H   H103      1.0  0.4899867801418722  0.13732338300161606  0.1405334227083052  1.0000
  H   H104      1.0  0.4758797676008181  0.6944937814197509  0.007798430806099431  1.0000
  C   C157      1.0  0.4378661545613489  0.8951464727882538  0.15711384682782148  1.0000
  C   C158      1.0  0.4462138194467866  0.93099735348414  0.14780720982884632  1.0000
  C   C159      1.0  0.4315656109413137  0.9455476461739041  0.11508958367963297  1.0000
  C   C160      1.0  0.5493733537886942  0.8854670039568847  0.4482963264408202  1.0000
  C   C161      1.0  0.5481777450636851  0.8481072390389001  0.45413019647411185  1.0000
  C   C162      1.0  0.5646735322099425  0.8333371318907226  0.48596336147334956  1.0000
  H   H105      1.0  0.4648997163603663  0.947199604968308  0.16534814721939575  1.0000
  H   H106      1.0  0.43875586639352754  0.9730198439349921  0.10765274831195541  1.0000
  H   H107      1.0  0.5339038962782695  0.8306467769287874  0.4343533662697289  1.0000
  H   H108      1.0  0.5639484384526923  0.8044833290471026  0.49015319042975636  1.0000
  C   C163      1.0  0.8296457001496654  0.9166072241104662  0.19230028961347936  1.0000
  C   C164      1.0  0.8478476151956863  0.8888246103249684  0.21197054429888174  1.0000
  C   C165      1.0  0.8477751449494234  0.8898444652218479  0.2503342826450529  1.0000
  C   C166      1.0  0.829062899043416  0.9183123241451648  0.26903038754273306  1.0000
  C   C167      1.0  0.8097166150083221  0.9454802786780494  0.24937276724974047  1.0000
  C   C168      1.0  0.8100624375384686  0.9446288900971409  0.2109549537924953  1.0000
  H   H109      1.0  0.8634640914432056  0.867382422085018  0.19764439394881822  1.0000
  H   H110      1.0  0.8633683704220781  0.8692256278740299  0.26559136053851656  1.0000
  H   H111      1.0  0.7948795596116983  0.9673488355504242  0.2637602504648124  1.0000
  H   H112      1.0  0.7957354710534696  0.9660288196437562  0.195741579015369  1.0000
  C   C169      1.0  0.8379875272902628  0.7165401778638716  0.19538354256490695  1.0000
  C   C170      1.0  0.8363514152658589  0.6967626306792979  0.22793767184431415  1.0000
  C   C171      1.0  0.7741144129000979  0.13489068164084395  0.3104999658857752  1.0000
  C   C172      1.0  0.7439383081943226  0.12143313736525552  0.2882281418480428  1.0000
  C   C173      1.0  0.7210651085477943  0.1453830527384805  0.2675258460216906  1.0000
  C   C174      1.0  0.806100516642065  0.7156954719244416  0.17115386707361036  1.0000
  H   H113      1.0  0.8607840900518856  0.6977199698772338  0.24695363304307422  1.0000
  H   H114      1.0  0.7925804964625128  0.11666144596829797  0.3257678634813513  1.0000
  H   H115      1.0  0.6979781315311242  0.13520808485515268  0.24991010881400816  1.0000
  H   H116      1.0  0.8071113490062367  0.7309560959445746  0.14607299258649545  1.0000
  C   C175      1.0  0.7046430780255071  0.7890121794439017  0.09912297026370753  1.0000
  C   C176      1.0  0.717885753963972  0.7741713790228544  0.13201820647667437  1.0000
  C   C177      1.0  0.6914554590408671  0.7688648505837459  0.16102014589776573  1.0000
  C   C178      1.0  0.651669782335001  0.7784134901299508  0.15728770213112542  1.0000
  C   C179      1.0  0.6380367409204623  0.792148351956007  0.12396097864300452  1.0000
  C   C180      1.0  0.6645481758655587  0.797460028016156  0.09485836639790486  1.0000
  H   H117      1.0  0.7483713040165509  0.7661844170789104  0.13488045241548946  1.0000
  H   H118      1.0  0.7017369268800359  0.7570074938202114  0.18622668401415526  1.0000
  H   H119      1.0  0.6072717878750258  0.7991327407336645  0.12071605392069483  1.0000
  H   H120      1.0  0.6540987832209311  0.8085403883898818  0.06926661405750524  1.0000
  C   C181      1.0  0.385387110645062  0.042049505185494995  0.32743692178868716  1.0000
  C   C182      1.0  0.36491572461215155  0.03950825291707449  0.2943297887130786  1.0000
  C   C183      1.0  0.32521135319701144  0.050010378437769676  0.292409815937286  1.0000
  C   C184      1.0  0.3058513553367062  0.06369632646718615  0.3234249353074093  1.0000
  C   C185      1.0  0.3261518295082675  0.0660449464344901  0.35677556096141544  1.0000
  C   C186      1.0  0.3659337433891198  0.05492035889959346  0.35886868276409456  1.0000
  H   H121      1.0  0.37987090462966444  0.02968141668834079  0.2699731710019418  1.0000
  H   H122      1.0  0.3096330897274968  0.04806313195125966  0.2666314373849058  1.0000
  H   H123      1.0  0.3111677040708114  0.07615077610846321  0.3809507716474811  1.0000
  H   H124      1.0  0.3816613677399593  0.05689100808339642  0.38456784168054453  1.0000
  C   C187      1.0  0.32266097713684094  0.6870349676409067  0.23196902373934464  1.0000
  C   C188      1.0  0.34525090317256235  0.6552935329717773  0.23414328905223122  1.0000
  C   C189      1.0  0.38661035361466656  0.6569940343834573  0.2338640540795884  1.0000
  C   C190      1.0  0.4056543094784498  0.6904354287414096  0.2320593275402228  1.0000
  C   C191      1.0  0.3831502783616123  0.7222452394034887  0.2301909085777887  1.0000
  C   C192      1.0  0.3416854500677172  0.7205398244153317  0.23017966739257023  1.0000
  H   H125      1.0  0.33089613180743016  0.6293780564450532  0.23602432048746888  1.0000
  H   H126      1.0  0.403771453748177  0.6323182172342838  0.23411384378202585  1.0000
  H   H127      1.0  0.39762778782480906  0.7482114807233827  0.2291778532404184  1.0000
  H   H128      1.0  0.3243473648857262  0.7451588076699974  0.22860472184952546  1.0000
  C   C193      1.0  0.08961725320205582  0.6249510128976548  0.3550992468606425  1.0000
  C   C194      1.0  0.11782087334125313  0.636500074282918  0.32967603302111603  1.0000
  C   C195      1.0  0.13641396877152046  0.6114193629283263  0.3062427603359561  1.0000
  C   C196      1.0  0.12614921295446277  0.5748797094264095  0.30774678171968445  1.0000
  C   C197      1.0  0.14537358468750675  0.17228939842308177  0.5143834272636435  1.0000
  C   C198      1.0  0.11788789713997806  0.18999584792813895  0.5371493332059328  1.0000
  H   H129      1.0  0.12586456260280943  0.6647833194167437  0.3285151971197267  1.0000
  H   H130      1.0  0.15872949531214076  0.620369653736025  0.28710658811373096  1.0000
  H   H131      1.0  0.16060280386564763  0.18737206225373626  0.493578180558019  1.0000
  H   H132      1.0  0.11146055876798891  0.21843047571628382  0.5331654478164604  1.0000
  C   C199      1.0  0.041519316512982796  0.09662436158893106  0.28058543246410755  1.0000
  C   C200      1.0  0.06808194233748321  0.08626258714042256  0.3078594599354956  1.0000
  C   C201      1.0  0.08691451331380629  0.11264279814206635  0.32918290512156506  1.0000
  C   C202      1.0  0.07825422090556344  0.14932423180383303  0.3241052504299829  1.0000
  C   C203      1.0  0.16111287442544706  0.6207967644450589  0.10594258149444061  1.0000
  C   C204      1.0  0.13134469309146976  0.6420676029829678  0.09011464478900415  1.0000
  H   H133      1.0  0.07563140381015354  0.05797522268724187  0.3112169271884703  1.0000
  H   H134      1.0  0.10850931434824251  0.10440520933100372  0.3490001953599313  1.0000
  H   H135      1.0  0.1705077972239451  0.6264632732441499  0.13349930456233058  1.0000
  H   H136      1.0  0.11765426925321766  0.6636331054281466  0.10585587844862103  1.0000
  C   C205      1.0  0.9479652448187096  0.05819128735959156  0.4908884599244986  1.0000
  C   C206      1.0  0.9388642352362107  0.09379812273932209  0.4810465308528849  1.0000
  C   C207      1.0  0.9249538667402881  0.10158588476368746  0.4458301733472514  1.0000
  C   C208      1.0  0.919107586888821  0.07360690808261805  0.42054824129260554  1.0000
  C   C209      1.0  0.9277290399068414  0.03790508360213796  0.4303422809387458  1.0000
  C   C210      1.0  0.9425164598728731  0.030268986205577608  0.4653545102301145  1.0000
  H   H137      1.0  0.9423925018067794  0.1154525241245774  0.5003698413380622  1.0000
  H   H138      1.0  0.9178574337550366  0.12919017367187813  0.43847922526247757  1.0000
  H   H139      1.0  0.9233683664232788  0.016167279044739358  0.4108159068444313  1.0000
  H   H140      1.0  0.9494153146598672  0.002623438461264005  0.47274265269124444  1.0000
  C   C211      1.0  0.9174849630703559  0.6990522249665656  0.9656896073932743  1.0000
  C   C212      1.0  0.8842521217613936  0.7178564874355357  0.978643200206407  1.0000
  C   C213      1.0  0.8887690847900307  0.7511665210724165  0.9966940422906144  1.0000
  C   C214      1.0  0.9264016746234841  0.7660646824101702  0.0009126978351281512  1.0000
  C   C215      1.0  0.9593294742632832  0.7481540846721072  0.9863571913800692  1.0000
  C   C216      1.0  0.9549357990089987  0.7144000780115203  0.9693316126660461  1.0000
  H   H141      1.0  0.8551006164889168  0.7064703300620432  0.9752989856193326  1.0000
  H   H142      1.0  0.8630218587587584  0.7656427031300954  0.0066535740693594025  1.0000
  H   H143      1.0  0.9884332049349173  0.7598327962253345  0.9891781763839401  1.0000
  H   H144      1.0  0.9806232247394913  0.7004756683822934  0.9589113075026018  1.0000
  Fe  Fe73      1.0  0.019224129271557144  0.6573451446567463  0.5146863492705765  1.0000
  S   S145      1.0  0.9199237578549705  0.09737129469557493  0.6194752972416963  1.0000
  S   S146      1.0  0.0013914157641410352  0.7055071569981751  0.5484473088346342  1.0000
  Fe  Fe74      1.0  0.03859681355953559  0.5851771958735157  0.9221425038360203  1.0000
  S   S147      1.0  0.015551377252661203  0.06437905227965635  0.14244489071854827  1.0000
  S   S148      1.0  0.06891097468311314  0.5661536454231538  0.8704210829019086  1.0000
  Fe  Fe75      1.0  0.9587502576062098  0.09327540236473397  0.1304864467057223  1.0000
  S   S149      1.0  0.9032336701394778  0.06644094215595309  0.11146226047998686  1.0000
  Fe  Fe76      1.0  0.9688778420338249  0.11063666217433221  0.6583649192455191  1.0000
  S   S150      1.0  0.9676905437984855  0.095445339819618  0.717909811387357  1.0000
  S   S151      1.0  0.9762565344950376  0.5672511846443363  0.9332192551214328  1.0000
  S   S152      1.0  0.0797744944678851  0.6484532981692168  0.49145789780615634  1.0000
  Fe  Fe77      1.0  0.16029899141139337  0.10006935366992731  0.8239054857551733  1.0000
  S   S153      1.0  0.2541340513279751  0.6848284109724007  0.7056464013345208  1.0000
  S   S154      1.0  0.14494798999658137  0.07961859547145766  0.7677338029817808  1.0000
  Fe  Fe78      1.0  0.2031349181153237  0.0805510178528237  0.8941346622812006  1.0000
  S   S155      1.0  0.2704362912332095  0.6383469676794796  0.7796507177050698  1.0000
  S   S156      1.0  0.2356746963076718  0.037946124128744874  0.9255935618517745  1.0000
  Fe  Fe79      1.0  0.2176244527138157  0.654733028922501  0.746727756999183  1.0000
  S   S157      1.0  0.16338936480950111  0.6784262841409732  0.7736260198918642  1.0000
  Fe  Fe80      1.0  0.3068181003034709  0.6622856717915814  0.7348925366449136  1.0000
  S   S158      1.0  0.36594849163757365  0.687515696725297  0.7450947597527062  1.0000
  S   S159      1.0  0.13917513568698325  0.07897933117896216  0.8780788859976125  1.0000
  S   S160      1.0  0.22434355106582143  0.09575607585027801  0.8383708251426073  1.0000
  Fe  Fe81      1.0  0.9010569692680481  0.6897451374606981  0.7230510991602572  1.0000
  S   S161      1.0  0.8850543636511442  0.7210850397823713  0.7735299431708363  1.0000
  S   S162      1.0  0.9625587445762163  0.6695238789836979  0.7127137884950224  1.0000
  Fe  Fe82      1.0  0.8159616814243144  0.6826386024600244  0.698335260465076  1.0000
  S   S163      1.0  0.7921819726027112  0.7124423031343371  0.7475350420319936  1.0000
  S   S164      1.0  0.7806785213305859  0.6624394985323371  0.6504793947469562  1.0000
  Fe  Fe83      1.0  0.8422402487255225  0.7503806424430494  0.7374573837145254  1.0000
  S   S165      1.0  0.8313806528711479  0.8102285162051466  0.7381675224356937  1.0000
  Fe  Fe84      1.0  0.8369304654896282  0.6801323376501357  0.7788341518740236  1.0000
  S   S166      1.0  0.8290699211135713  0.6575134122214892  0.8350939480148366  1.0000
  S   S167      1.0  0.8630268663841507  0.7230442636465099  0.6858931268091888  1.0000
  S   S168      1.0  0.8558194600365386  0.646571343964055  0.7305976583035805  1.0000
  Fe  Fe85      1.0  0.49339938729813576  0.7520284080738848  0.5938719671999948  1.0000
  S   S169      1.0  0.5177723386321991  0.763050082024419  0.5382061569858911  1.0000
  S   S170      1.0  0.42896018097623934  0.7637269878807253  0.6020996318389614  1.0000
  Fe  Fe86      1.0  0.5719823200426363  0.7247286806642975  0.6224505485878674  1.0000
  S   S171      1.0  0.6032524949776014  0.7336840285993635  0.5689722104652866  1.0000
  S   S172      1.0  0.6020755672514588  0.7049809133276815  0.6735393146559908  1.0000
  Fe  Fe87      1.0  0.5697496488067338  0.7859091246455585  0.567937955949949  1.0000
  S   S173      1.0  0.5987231873561115  0.838491632712081  0.5539739685307034  1.0000
  Fe  Fe88      1.0  0.5486147347179963  0.7097846176305379  0.5442984280634225  1.0000
  S   S174      1.0  0.5506613781928219  0.6734148957894198  0.49489741576281876  1.0000
  S   S175      1.0  0.5427727692630121  0.779415586631997  0.6235771482783229  1.0000
  S   S176      1.0  0.5196357292574588  0.6965112127211225  0.5978656371857437  1.0000
  Fe  Fe89      1.0  0.8581487723996679  0.9735850790338377  0.94089488397283  1.0000
  S   S177      1.0  0.8489998453398105  0.9543270521721401  0.8833041569383197  1.0000
  S   S178      1.0  0.9178353351856519  0.9727680580274608  0.9674264646181998  1.0000
  Fe  Fe90      1.0  0.7714951136232299  0.9894536698866709  0.9532165538070985  1.0000
  S   S179      1.0  0.7541002984357775  0.9711988435953006  0.8968440442030379  1.0000
  S   S180      1.0  0.7282446296202901  0.010539373610734204  0.9949594070223858  1.0000
  Fe  Fe91      1.0  0.7966057735597802  0.9254754197827809  0.9063745668070764  1.0000
  S   S181      1.0  0.784613276948909  0.8666032955523598  0.8961358981496811  1.0000
  Fe  Fe92      1.0  0.8077576170006532  0.0017862011534821587  0.8788086822718524  1.0000
  S   S182      1.0  0.8045955346652099  0.035437958111757206  0.8278799092074316  1.0000
  S   S183      1.0  0.8090328483520574  0.9409420163095735  0.9646365398840119  1.0000
  S   S184      1.0  0.8218047699956779  0.024003515674831055  0.9344772846443974  1.0000
  Fe  Fe93      1.0  0.4887397428326295  0.045433709841429026  0.04222262819199463  1.0000
  S   S185      1.0  0.5099832922650226  0.04805660653334809  0.9841459860791594  1.0000
  S   S186      1.0  0.5095032138612335  0.084500083905801  0.08510184887642258  1.0000
  Fe  Fe94      1.0  0.43437093114130737  0.9822914596263936  0.02787560418940238  1.0000
  S   S187      1.0  0.4497282644564383  0.9798752718744211  0.9682402944032878  1.0000
  S   S188      1.0  0.39201306892742704  0.9411413650714116  0.049736720276599033  1.0000
  Fe  Fe95      1.0  0.5117542243024925  0.9874549739769939  0.9875557974231062  1.0000
  S   S189      1.0  0.5581385544192075  0.9505282899475712  0.9643566384752438  1.0000
  Fe  Fe96      1.0  0.4460205165133566  0.040435071848827775  0.9704430105192056  1.0000
  S   S190      1.0  0.41665452961683264  0.07587734589325157  0.9287290987600231  1.0000
  S   S191      1.0  0.49699443161786927  0.9854209714935713  0.04719629773696177  1.0000
  S   S192      1.0  0.42431454847976807  0.042175589886993325  0.028465201527264394  1.0000
  C   C217      1.0  0.6813363842625251  0.9921416271518831  0.9885360167516782  1.0000
  C   C218      1.0  0.6763640835037797  0.9612440489430333  0.9668501684796634  1.0000
  C   C219      1.0  0.638395285093476  0.9477844161500977  0.9604767131743527  1.0000
  C   C220      1.0  0.6054589764623971  0.9653729348295397  0.9755983338500689  1.0000
  C   C221      1.0  0.6105186070125703  0.9955825783023013  0.9983123364208698  1.0000
  C   C222      1.0  0.6485361965041164  0.008926040446123107  0.00480467207048596  1.0000
  H   H145      1.0  0.7016916369606823  0.9476872112781674  0.9548947864395385  1.0000
  H   H146      1.0  0.634496072633855  0.9241840990559996  0.9431779584475632  1.0000
  H   H147      1.0  0.5851222935259888  0.008977389569200467  0.010386502390456354  1.0000
  H   H148      1.0  0.6525211058524214  0.0326509276674376  0.02178173000113004  1.0000
  C   C223      1.0  0.526991696275716  0.6320984386864956  0.5025555425359587  1.0000
  C   C224      1.0  0.45491976963445074  0.6876951825454556  0.09858659837318973  1.0000
  C   C225      1.0  0.45701259736116623  0.13107550056638662  0.05277313143203766  1.0000
  C   C226      1.0  0.47822269477350504  0.12249762567958822  0.08446689156255571  1.0000
  C   C227      1.0  0.41066187151112743  0.0738543242254992  0.5596243690085564  1.0000
  C   C228      1.0  0.523954125731728  0.6182784863755414  0.5379618767546634  1.0000
  H   H149      1.0  0.45349803481971884  0.7037135162740147  0.12335637272830846  1.0000
  H   H150      1.0  0.460956623770239  0.11508878777871412  0.02813117770266893  1.0000
  H   H151      1.0  0.4185788393406337  0.0569294128406761  0.582584862958588  1.0000
  H   H152      1.0  0.5379226141315061  0.6320163946272471  0.560580235595839  1.0000
  C   C229      1.0  0.5823365851437384  0.8558906942715347  0.512023602754856  1.0000
  C   C230      1.0  0.5851219049984234  0.8930260435486911  0.5053735557243075  1.0000
  C   C231      1.0  0.5687187119107877  0.9077851082442709  0.4735035375150038  1.0000
  C   C232      1.0  0.4076230787722109  0.9245718220720038  0.09223425481692793  1.0000
  C   C233      1.0  0.3978556239245626  0.8892846515056869  0.10237869365454033  1.0000
  C   C234      1.0  0.4136903002560751  0.8743012749419035  0.1343695445294395  1.0000
  H   H153      1.0  0.5994506596143029  0.9104831319596476  0.5251239320088625  1.0000
  H   H154      1.0  0.5713710801256205  0.9363679667368682  0.4683706019969677  1.0000
  H   H155      1.0  0.37897809290640927  0.8730942875622875  0.08500182795276023  1.0000
  H   H156      1.0  0.4067631089489095  0.8467403657863564  0.14169750142066007  1.0000
  C   C235      1.0  0.8180930080606824  0.8259006666312232  0.7819623457160472  1.0000
  C   C236      1.0  0.8096556071022357  0.8013986128349878  0.8099182281003194  1.0000
  C   C237      1.0  0.7985420536944028  0.8141586699861805  0.8447124668345514  1.0000
  C   C238      1.0  0.7964593504170899  0.8514063043121222  0.8518150544455887  1.0000
  C   C239      1.0  0.8050731604301152  0.8759283357040077  0.8239221786335644  1.0000
  C   C240      1.0  0.8156146781201519  0.863154947253012  0.7889333629249053  1.0000
  H   H157      1.0  0.8115882912891246  0.7726122195485856  0.8047686880319236  1.0000
  H   H158      1.0  0.7919199811208345  0.7951321174012568  0.8662605208691937  1.0000
  H   H159      1.0  0.8033837459810957  0.9047252821366949  0.8291981075750986  1.0000
  H   H160      1.0  0.8221842090936531  0.8821723458918623  0.7673606767156563  1.0000
  C   C241      1.0  0.8252314370239486  0.6103412781030801  0.8364978070902548  1.0000
  C   C242      1.0  0.8315443012661029  0.5926029137024013  0.86970259702173  1.0000
  C   C243      1.0  0.7700130857328188  0.08970205147604604  0.8683928391804066  1.0000
  C   C244      1.0  0.7732129924436764  0.07273995944855893  0.8341731142263988  1.0000
  C   C245      1.0  0.7503039330574358  0.08500670716418024  0.8049048288998375  1.0000
  C   C246      1.0  0.8142243381414211  0.5904929293928158  0.8054452510970072  1.0000
  H   H161      1.0  0.8408444367672812  0.6078070515093451  0.893577538640555  1.0000
  H   H162      1.0  0.7879404819497017  0.08064299681125475  0.8909902785734994  1.0000
  H   H163      1.0  0.7522566940804307  0.07153894502466907  0.7785605436710199  1.0000
  H   H164      1.0  0.8087438654374502  0.6040838321443899  0.7798474098236585  1.0000
  C   C247      1.0  0.7298773931758963  0.6692632308396776  0.6571937763391675  1.0000
  C   C248      1.0  0.7048649044387758  0.6720545784566458  0.6268929754010205  1.0000
  C   C249      1.0  0.6649856838048952  0.6814029036785342  0.6318102029167528  1.0000
  C   C250      1.0  0.6501569582173977  0.6882570960651012  0.6669666299801922  1.0000
  C   C251      1.0  0.6747611770749787  0.683731932789608  0.6973625868474088  1.0000
  C   C252      1.0  0.7145405006071287  0.6741159068101188  0.6924769843084969  1.0000
  H   H165      1.0  0.716457557962633  0.6677532882132132  0.5995775059721171  1.0000
  H   H166      1.0  0.6457988665605696  0.6832942160266858  0.6084172828917296  1.0000
  H   H167      1.0  0.6631816471134501  0.6883603719256431  0.7246415818797598  1.0000
  H   H168      1.0  0.7332378477160976  0.670331494793897  0.7160049709614494  1.0000
  C   C253      1.0  0.36689668838100814  0.06408462973488338  0.9253262285053324  1.0000
  C   C254      1.0  0.3400606369532641  0.08810603886147095  0.9093608371798977  1.0000
  C   C255      1.0  0.2996631078511333  0.08001107137016406  0.9090698920905635  1.0000
  C   C256      1.0  0.28625672252959666  0.04741376267418618  0.9237946318586598  1.0000
  C   C257      1.0  0.31338698063075837  0.022747415701755758  0.9382230076540782  1.0000
  C   C258      1.0  0.3535891062169523  0.03134802278333959  0.9396383179720268  1.0000
  H   H169      1.0  0.3503936817936438  0.11336131412194339  0.8981664626632812  1.0000
  H   H170      1.0  0.27891766805806667  0.0991912211924797  0.8978765231858741  1.0000
  H   H171      1.0  0.30334849985583656  0.9969569739562635  0.9482035020413372  1.0000
  H   H172      1.0  0.3742820837677717  0.012454627388810424  0.9514587432007722  1.0000
  C   C259      1.0  0.38340158886521286  0.7098594148897122  0.7059780677871854  1.0000
  C   C260      1.0  0.42408407385584795  0.7143912241571808  0.7007563518809805  1.0000
  C   C261      1.0  0.43829827784525077  0.7310043982474445  0.6688724274777567  1.0000
  C   C262      1.0  0.41176355788809543  0.7438446174176478  0.6425755378449324  1.0000
  C   C263      1.0  0.3711168237521447  0.73983169309809  0.6480715487332221  1.0000
  C   C264      1.0  0.3569915242214995  0.7224239753705561  0.6794641286912669  1.0000
  H   H173      1.0  0.4446612947673324  0.7047058809485347  0.7211525558797286  1.0000
  H   H174      1.0  0.4697712470358604  0.7341073140021231  0.664833328086006  1.0000
  H   H175      1.0  0.35050195922844496  0.7498364664920512  0.6278602465370317  1.0000
  H   H176      1.0  0.325609579921737  0.7193729469548287  0.6834210696399915  1.0000
  C   C265      1.0  0.09469028591984596  0.5980628075851147  0.8439878494978216  1.0000
  C   C266      1.0  0.09058411936329369  0.6353067733741646  0.8500591913078281  1.0000
  C   C267      1.0  0.11138872326022087  0.6599025051764534  0.8280986272150896  1.0000
  C   C268      1.0  0.13723714321700528  0.6473371643720451  0.800725770056356  1.0000
  C   C269      1.0  0.12077411279893417  0.12074581933965955  0.983887008268095  1.0000
  C   C270      1.0  0.12311190897355297  0.10915504188535463  0.020303577072522616  1.0000
  H   H177      1.0  0.07144975904161432  0.6452913326852602  0.8715051279146884  1.0000
  H   H178      1.0  0.10808954721574504  0.6887004134054162  0.8327856387693996  1.0000
  H   H179      1.0  0.1392914318769684  0.10815890371917236  0.9632631817351613  1.0000
  H   H180      1.0  0.14364783701595318  0.08788109026419488  0.027624457659548574  1.0000
  C   C271      1.0  0.015829048744516294  0.08753906366619058  0.7337163444711079  1.0000
  C   C272      1.0  0.02708025370660394  0.09941121455687263  0.76869664335756  1.0000
  C   C273      1.0  0.06662613043621701  0.09618957781384241  0.7799691154188959  1.0000
  C   C274      1.0  0.09466043036424955  0.08056537943842068  0.7564114383299193  1.0000
  C   C275      1.0  0.1971598227323533  0.6294055472307255  0.5598172411106915  1.0000
  C   C276      1.0  0.16635795971382156  0.6114330553243966  0.5418785820927156  1.0000
  H   H181      1.0  0.00550818828344668  0.11201328829488566  0.7866363680277841  1.0000
  H   H182      1.0  0.07552354120007343  0.10623949399019272  0.8065789786580674  1.0000
  H   H183      1.0  0.20889361310311427  0.6541213552187739  0.5484704241823837  1.0000
  H   H184      1.0  0.15480807944289376  0.6222781294600864  0.5167268469754152  1.0000
  C   C277      1.0  0.9079568148666733  0.03783508892742682  0.07333134405900532  1.0000
  C   C278      1.0  0.9448728835753367  0.024754507864494846  0.06187573736097751  1.0000
  C   C279      1.0  0.9477603318842154  0.002978737561996958  0.030280337292649895  1.0000
  C   C280      1.0  0.9138832705203401  0.9951687632622177  0.009756420567948565  1.0000
  C   C281      1.0  0.8769848279911425  0.0074443582035579325  0.02193504434005522  1.0000
  C   C282      1.0  0.8740089262951632  0.028503713373552175  0.05378990116951199  1.0000
  H   H185      1.0  0.9711134617760186  0.03152137406388378  0.07721181142067124  1.0000
  H   H186      1.0  0.9762793703172499  0.9929893002642148  0.02125398972587189  1.0000
  H   H187      1.0  0.8506320277128326  0.0011574170726236233  0.006647135178987629  1.0000
  H   H188      1.0  0.8453951724480644  0.03837597627291611  0.06276457859936913  1.0000
  C   C283      1.0  0.9929131293161658  0.6960835236913794  0.5946480859000159  1.0000
  C   C284      1.0  0.9728994876535543  0.7214798782310924  0.6164343872737836  1.0000
  C   C285      1.0  0.9641584397673252  0.7136289908589929  0.653038952698267  1.0000
  C   C286      1.0  0.9759518034417004  0.6805812545430999  0.6679909053724326  1.0000
  C   C287      1.0  0.9970318676339067  0.6556099337105155  0.6465764191662087  1.0000
  C   C288      1.0  0.00535076037175064  0.6633249197389562  0.6098349601437534  1.0000
  H   H189      1.0  0.9636627494483165  0.7470655349190197  0.6048639321899505  1.0000
  H   H190      1.0  0.9485202357692278  0.7332951178678938  0.669746089253329  1.0000
  H   H191      1.0  0.006156805331764881  0.6300161735547672  0.6581706351554333  1.0000
  H   H192      1.0  0.021848685423937253  0.6441616084180021  0.5934777833990168  1.0000
  N   N1        1.0  0.0798487846366076  0.5177633936340174  0.10535954431218046  1.0000
  C   C289      1.0  0.052938776029588075  0.5224700759756769  0.13697563660285986  1.0000
  C   C290      1.0  0.07323323662674985  0.5473944440405305  0.07902118909874288  1.0000
  C   C291      1.0  0.07196427188844257  0.48266495663104847  0.08724232426790518  1.0000
  C   C292      1.0  0.12123943903929657  0.5185619630414842  0.11815936449656372  1.0000
  H   H193      1.0  0.0571846233190747  0.5005691178076864  0.15744222029560936  1.0000
  H   H194      1.0  0.02144016269991389  0.5219704452793142  0.12817117253682153  1.0000
  H   H195      1.0  0.05819021258014012  0.5487191258536532  0.15124386265909884  1.0000
  H   H196      1.0  0.0421507600465163  0.5479967268255236  0.06914086521410515  1.0000
  H   H197      1.0  0.07969312412581808  0.5742776349292699  0.09145604666173705  1.0000
  H   H198      1.0  0.09252400448993292  0.5442731402876916  0.05448454489542209  1.0000
  H   H199      1.0  0.040786667485426475  0.4809565768970229  0.07769855176456081  1.0000
  H   H200      1.0  0.07722747398582763  0.45959521452604957  0.10609849812725052  1.0000
  H   H201      1.0  0.09116234206321217  0.4786217092038819  0.06274306284020054  1.0000
  H   H202      1.0  0.12749728441443287  0.4966300874720063  0.13811247325704243  1.0000
  H   H203      1.0  0.128297945231598  0.5447067889888796  0.131948360439916  1.0000
  H   H204      1.0  0.1424107099361085  0.5153054335254719  0.09495372292101452  1.0000
  N   N2        1.0  0.401327415392508  0.6035696443743009  0.8258299748792639  1.0000
  C   C293      1.0  0.3997104900649186  0.6430251262071857  0.8326106659123441  1.0000
  C   C294      1.0  0.3713269217072503  0.5937047128499978  0.7982141555890757  1.0000
  C   C295      1.0  0.3932721102707224  0.5842314420325201  0.8603405480919174  1.0000
  C   C296      1.0  0.4410290267219231  0.5933801243147642  0.8122039413501128  1.0000
  H   H205      1.0  0.3696957560710082  0.6518468700407314  0.8416378224669613  1.0000
  H   H206      1.0  0.4067986712436989  0.6584682383236896  0.8073453899539399  1.0000
  H   H207      1.0  0.42113344408298115  0.6513438868558881  0.8541065380853379  1.0000
  H   H208      1.0  0.37187457832109205  0.5641879319673071  0.7919156410077631  1.0000
  H   H209      1.0  0.341044334746406  0.6004348245288468  0.8080307977643373  1.0000
  H   H210      1.0  0.3759049531267072  0.6085465380863311  0.7720829621087532  1.0000
  H   H211      1.0  0.3938532457226354  0.5543697031456541  0.8561766955974222  1.0000
  H   H212      1.0  0.36379263703976006  0.5916510883517226  0.8717948850666295  1.0000
  H   H213      1.0  0.4158264596798222  0.5906245499398743  0.8815091836482749  1.0000
  H   H214      1.0  0.44347233918866436  0.5636583531267315  0.8074803227479974  1.0000
  H   H215      1.0  0.46438421002299995  0.6007588954307223  0.8323335506039704  1.0000
  H   H216      1.0  0.44793706942072475  0.6071828128700841  0.7859499038159414  1.0000
  N   N3        1.0  0.6190636489511633  0.1092312697833735  0.3255524491092426  1.0000
  C   C297      1.0  0.5830823468899895  0.09806163799547796  0.3453936175756246  1.0000
  C   C298      1.0  0.6529129068217765  0.10939269232874183  0.3510940224603488  1.0000
  C   C299      1.0  0.6132666639108065  0.14594962919708188  0.31048858181417754  1.0000
  C   C300      1.0  0.6269803273538682  0.08343119897151285  0.29530658170507973  1.0000
  H   H217      1.0  0.5569224999700414  0.09705314283727073  0.3270258333840427  1.0000
  H   H218      1.0  0.5759858711384734  0.11711223014064265  0.3682394376467824  1.0000
  H   H219      1.0  0.5868822434756996  0.07073944281140032  0.35770813073585744  1.0000
  H   H220      1.0  0.6805032805149265  0.11827472231705638  0.33730504918072757  1.0000
  H   H221      1.0  0.647553165774826  0.12794770450848025  0.3746981841794463  1.0000
  H   H222      1.0  0.6587945607658686  0.08192313035433774  0.3623573863575681  1.0000
  H   H223      1.0  0.5882021081169091  0.146812482799068  0.29079498548107197  1.0000
  H   H224      1.0  0.6401222592734315  0.15531552335173626  0.2956808258690614  1.0000
  H   H225      1.0  0.6069948555566492  0.1660605178783907  0.33258604603525155  1.0000
  H   H226      1.0  0.6528034356950512  0.09196498024071231  0.27868436966756344  1.0000
  H   H227      1.0  0.601333602934148  0.0812601902881791  0.27645191733275853  1.0000
  H   H228      1.0  0.6338810921407557  0.05588121349462605  0.30583340722499025  1.0000
  N   N4        1.0  0.337545277613716  0.34176535148580073  0.43223694078797914  1.0000
  C   C301      1.0  0.3406036862769423  0.37020480639127606  0.4607132086393171  1.0000
  C   C302      1.0  0.29625559964689524  0.33950051361246847  0.41936586978040546  1.0000
  C   C303      1.0  0.34993847615167  0.30660550671362785  0.44769862923796994  1.0000
  C   C304      1.0  0.36351117680268874  0.3508587297248475  0.4010852059163028  1.0000
  H   H229      1.0  0.3713177725574082  0.37224297010047896  0.4713385962300039  1.0000
  H   H230      1.0  0.32112487858552086  0.3644871388639918  0.4845322827217249  1.0000
  H   H231      1.0  0.3322544723866467  0.3972955542590445  0.44980263553308736  1.0000
  H   H232      1.0  0.292968026027183  0.3184490408522373  0.39765589084274844  1.0000
  H   H233      1.0  0.2758102683210421  0.3322788904611109  0.4420390228491263  1.0000
  H   H234      1.0  0.2860864875446015  0.36572662015190915  0.4076818318405629  1.0000
  H   H235      1.0  0.33089090393378223  0.2987273889435399  0.4711670987145909  1.0000
  H   H236      1.0  0.3809849200296232  0.30758723288448736  0.45782839165155664  1.0000
  H   H237      1.0  0.34823968975962105  0.2845542584365956  0.4268687982164838  1.0000
  H   H238      1.0  0.39505764615861877  0.35163661271390056  0.40966410375092877  1.0000
  H   H239      1.0  0.3557866211727353  0.377814735185268  0.38947867911453277  1.0000
  H   H240      1.0  0.3611126423041932  0.3305564947686543  0.37862009199036484  1.0000
  N   N5        1.0  0.18004525137817215  0.4879906023346938  0.8603075204519697  1.0000
  C   C305      1.0  0.2120945547869265  0.4936045328425575  0.887143946476306  1.0000
  C   C306      1.0  0.1892949510686953  0.5074804888649682  0.8261299070062562  1.0000
  C   C307      1.0  0.14255114210836747  0.5020308623105534  0.8757369979513441  1.0000
  C   C308      1.0  0.1762583110776322  0.4489419698706268  0.85221747291358  1.0000
  H   H241      1.0  0.20678239587021915  0.4784098329191542  0.9128855506467888  1.0000
  H   H242      1.0  0.21475389357333238  0.522665753642389  0.894852222979558  1.0000
  H   H243      1.0  0.24121405421558342  0.4846916487189325  0.8759606019941172  1.0000
  H   H244      1.0  0.21773904600869826  0.49803719128887036  0.8139043914265256  1.0000
  H   H245      1.0  0.16601680783090908  0.5034807671740336  0.805057386052622  1.0000
  H   H246      1.0  0.19178508987495377  0.5371273892203449  0.8310814692364937  1.0000
  H   H247      1.0  0.11762934830224572  0.49888422551673123  0.8561262534351455  1.0000
  H   H248      1.0  0.1446600972017335  0.5314466686286817  0.8823446122971332  1.0000
  H   H249      1.0  0.13431239530330108  0.4879284935369415  0.9014525952218831  1.0000
  H   H250      1.0  0.15227764416899986  0.4437895428167274  0.8320473980834407  1.0000
  H   H251      1.0  0.16928709919708876  0.433337018694375  0.8773835105117851  1.0000
  H   H252      1.0  0.2041772911093163  0.43767554191919356  0.8404759624343698  1.0000
  N   N6        1.0  0.6625003881669408  0.6584710737336771  0.45541925315883874  1.0000
  C   C309      1.0  0.6300639443301169  0.6319527516848341  0.4526420382232423  1.0000
  C   C310      1.0  0.6490273849511679  0.6902047533445683  0.47698258517232234  1.0000
  C   C311      1.0  0.6740676292894027  0.6702021392319193  0.41832542749914836  1.0000
  C   C312      1.0  0.6968436177007621  0.6415056660438075  0.47359160524247024  1.0000
  H   H253      1.0  0.6391683905781571  0.607467769288754  0.43682532481527897  1.0000
  H   H254      1.0  0.6039211224800777  0.6437158145047219  0.43838759389125387  1.0000
  H   H255      1.0  0.6197387285798092  0.6231240608100254  0.4801361101417654  1.0000
  H   H256      1.0  0.6232189433900628  0.7036768373379816  0.4637970258413734  1.0000
  H   H257      1.0  0.639293797918121  0.6822309505854602  0.5049483545126654  1.0000
  H   H258      1.0  0.6727284831930499  0.7107301374635671  0.47994470629712266  1.0000
  H   H259      1.0  0.6486945907053768  0.682732629563885  0.4036029376441426  1.0000
  H   H260      1.0  0.6843015430818986  0.6468502439729206  0.40147310525351965  1.0000
  H   H261      1.0  0.6985921803608366  0.6901388464105787  0.4191867839869909  1.0000
  H   H262      1.0  0.7076940929047812  0.617488445114512  0.4578816261174098  1.0000
  H   H263      1.0  0.689154922251071  0.6324145251188852  0.5017305827517826  1.0000
  H   H264      1.0  0.7219996990966833  0.6606929199497027  0.47575698082412643  1.0000
  N   N7        1.0  0.5614925636115657  0.3345506502513981  0.1805257662941527  1.0000
  C   C313      1.0  0.6013584520604696  0.3200408289229225  0.18794622452010082  1.0000
  C   C314      1.0  0.5336050999158904  0.3210387070824164  0.2084312141120814  1.0000
  C   C315      1.0  0.548671223542811  0.3225302878289684  0.14375859832772808  1.0000
  C   C316      1.0  0.5626260186797586  0.37452201780068695  0.1819992914139703  1.0000
  H   H265      1.0  0.6231994234365243  0.3300815083227846  0.16765926600227207  1.0000
  H   H266      1.0  0.6019305914398051  0.289976036297025  0.18667034458338813  1.0000
  H   H267      1.0  0.6119316875076114  0.3284608025621971  0.2155388586235635  1.0000
  H   H268      1.0  0.503270352879739  0.33185545053277327  0.20394689066968982  1.0000
  H   H269      1.0  0.5317715466411322  0.29098311898772783  0.20773681442747094  1.0000
  H   H270      1.0  0.5427218681219818  0.32908901456382567  0.2365634429261069  1.0000
  H   H271      1.0  0.5186671734886223  0.3330684565955426  0.13713495790136773  1.0000
  H   H272      1.0  0.5475981933407886  0.29244427773133613  0.14183109088926635  1.0000
  H   H273      1.0  0.5691461824950494  0.33217215318975896  0.12207755898503725  1.0000
  H   H274      1.0  0.5836751657213494  0.38553553986163397  0.16146847188686342  1.0000
  H   H275      1.0  0.5723975946027755  0.384397706209913  0.20937036800157427  1.0000
  H   H276      1.0  0.5330489617885997  0.3865730170024176  0.17641994475114173  1.0000
  N   N8        1.0  0.9061283590045119  0.161406416905231  0.29085342618749066  1.0000
  C   C317      1.0  0.8894238087641773  0.1699867906358515  0.3273289234128238  1.0000
  C   C318      1.0  0.9370690986886079  0.18795401771234785  0.2816986619536406  1.0000
  C   C319      1.0  0.8744804461852422  0.1630562268330485  0.26300697255492955  1.0000
  C   C320      1.0  0.923568669505773  0.12464256524623796  0.29149470314644105  1.0000
  H   H277      1.0  0.8664646620182381  0.15000018179366062  0.3352680307895919  1.0000
  H   H278      1.0  0.8755850756745438  0.19740072353655472  0.32790388149855826  1.0000
  H   H279      1.0  0.9125303655560895  0.16910960074050888  0.3489640093844238  1.0000
  H   H280      1.0  0.96131369215182  0.18784017956534776  0.3022316887000503  1.0000
  H   H281      1.0  0.9505642113722795  0.1819654022711685  0.2544920474959575  1.0000
  H   H282      1.0  0.9248252724442247  0.2159422523405945  0.28028799118408204  1.0000
  H   H283      1.0  0.8862819514076433  0.15782625688070906  0.23494930910169493  1.0000
  H   H284      1.0  0.8599730045222701  0.19022967457020387  0.26255441219197045  1.0000
  H   H285      1.0  0.8509392583796322  0.14286394268225605  0.26849094461065903  1.0000
  H   H286      1.0  0.9374188111198629  0.11741321782953261  0.26484452815844106  1.0000
  H   H287      1.0  0.9008721386437765  0.1038816119498096  0.2978314603555653  1.0000
  H   H288      1.0  0.9469229902880053  0.12231209918581643  0.3128306063463778  1.0000
  N   N9        1.0  0.9054518459312998  0.8498953928453779  0.9188408020058105  1.0000
  C   C321      1.0  0.9476899463748693  0.8445801409752589  0.9275610951555295  1.0000
  C   C322      1.0  0.886647629146068  0.8144659362758233  0.9121964080017517  1.0000
  C   C323      1.0  0.9018710650417122  0.8723486431988796  0.8856624991592715  1.0000
  C   C324      1.0  0.8855221750152233  0.8682874890378425  0.9499037645433646  1.0000
  H   H289      1.0  0.9624059238904966  0.8708778728023711  0.9333749850868513  1.0000
  H   H290      1.0  0.9637597526606659  0.8311118002946272  0.9045924693343899  1.0000
  H   H291      1.0  0.9515219551660006  0.8274571530789339  0.9522495453998446  1.0000
  H   H292      1.0  0.854554553636115  0.8176685874278483  0.9062880440635962  1.0000
  H   H293      1.0  0.9002972177656985  0.8000302048492945  0.8884932871073995  1.0000
  H   H294      1.0  0.8892212170230598  0.7966928902754034  0.9365011583271607  1.0000
  H   H295      1.0  0.870360960487765  0.876834440758471  0.8783548479031006  1.0000
  H   H296      1.0  0.9163120423031869  0.8592505655147142  0.8615629924483167  1.0000
  H   H297      1.0  0.9156123458206229  0.8993823167713667  0.8897542597005899  1.0000
  H   H298      1.0  0.8534955393002404  0.872312292794393  0.9443849528373336  1.0000
  H   H299      1.0  0.8985553365402168  0.8953600081312709  0.9555149460538324  1.0000
  H   H300      1.0  0.8879800695747584  0.8522509418953615  0.9755072198814818  1.0000
  N   N10       1.0  0.9506027173475037  0.6321136839166991  0.3507383625077977  1.0000
  C   C325      1.0  0.94844219562251  0.6666407144333276  0.37131861661811205  1.0000
  C   C326      1.0  0.966590597948005  0.6035211228925305  0.37471982792223396  1.0000
  C   C327      1.0  0.9769236703022735  0.6364089461226288  0.31870788879643025  1.0000
  C   C328      1.0  0.9106019110496277  0.6218910379348265  0.3383551386733795  1.0000
  H   H301      1.0  0.9361921225953173  0.6888160182913431  0.35419853106801935  1.0000
  H   H302      1.0  0.9782642005024023  0.6752861171682841  0.38080962221227405  1.0000
  H   H303      1.0  0.9292230651956144  0.6642451871225667  0.3959727676423463  1.0000
  H   H304      1.0  0.9692783471410292  0.5771245670787342  0.3600962478188133  1.0000
  H   H305      1.0  0.9963476508861195  0.6107963882971746  0.38511300700032075  1.0000
  H   H306      1.0  0.9473544498015001  0.5992005607228056  0.3989739493444958  1.0000
  H   H307      1.0  0.9797085276796792  0.6107505530074929  0.3027855038915553  1.0000
  H   H308      1.0  0.007293070479198471  0.6443128936468001  0.32731509078588605  1.0000
  H   H309      1.0  0.965808496291031  0.6577513461982433  0.29992984517788035  1.0000
  H   H310      1.0  0.9109976681278263  0.5957472836008708  0.3230647616282144  1.0000
  H   H311      1.0  0.8974894184276215  0.6428249531342778  0.3201874509252675  1.0000
  H   H312      1.0  0.8901271701899739  0.6186248911851596  0.3619919938286456  1.0000
  N   N11       1.0  0.7864979611827028  0.3948138346843606  0.1149272553535281  1.0000
  C   C329      1.0  0.7510362235993905  0.3722586819639161  0.10984822971500763  1.0000
  C   C330      1.0  0.7744270038522456  0.4332106088104374  0.11797998106007501  1.0000
  C   C331      1.0  0.8131780723447799  0.3898258656445548  0.08314747151835933  1.0000
  C   C332      1.0  0.8071554560346687  0.38382284269543376  0.1487521430230967  1.0000
  H   H313      1.0  0.7591596478959975  0.3431360896381187  0.10702030906516669  1.0000
  H   H314      1.0  0.7346093167375984  0.379940289863886  0.08466381698258374  1.0000
  H   H315      1.0  0.7303867026753842  0.37507509695740004  0.13351402220910225  1.0000
  H   H316      1.0  0.8004760958690623  0.4512324999382504  0.12077606974432342  1.0000
  H   H317      1.0  0.7579964879432062  0.44212479618964534  0.0931944730838441  1.0000
  H   H318      1.0  0.7548270388311266  0.43789286106870684  0.14213011175196688  1.0000
  H   H319      1.0  0.8401273228728019  0.40674734286852576  0.08570796028043004  1.0000
  H   H320      1.0  0.7984162184299954  0.3976583743815445  0.057108003798471696  1.0000
  H   H321      1.0  0.8228901736428536  0.3610413576805186  0.08032358614866664  1.0000
  H   H322      1.0  0.83415930499531  0.40022100918522585  0.15338381159377756  1.0000
  H   H323      1.0  0.8165571567656643  0.35488955531066385  0.14739112468269777  1.0000
  H   H324      1.0  0.7877767798531689  0.38709637877588193  0.17327157404431182  1.0000
  N   N12       1.0  0.3809089564444317  0.16582700073794965  0.3125101260622157  1.0000
  C   C333      1.0  0.40263750577269836  0.1320133739125282  0.3040113400164286  1.0000
  C   C334      1.0  0.3440205758497224  0.15734924696980812  0.3323980070043794  1.0000
  C   C335      1.0  0.37122900631442246  0.1845480778706945  0.2780137975988068  1.0000
  C   C336      1.0  0.4059253749014359  0.1894547713654975  0.33545543102916425  1.0000
  H   H325      1.0  0.4305055663741449  0.1375027928683532  0.28878942975359156  1.0000
  H   H326      1.0  0.38461468581712205  0.11348153346522039  0.2867920052490931  1.0000
  H   H327      1.0  0.41065944414980277  0.11710860091754394  0.3293689904750611  1.0000
  H   H328      1.0  0.32431372460598135  0.1397250010265354  0.31576333011085855  1.0000
  H   H329      1.0  0.3501700409024735  0.1429929775558647  0.3585053148713015  1.0000
  H   H330      1.0  0.32700113406082615  0.18234084779088566  0.3393703824029124  1.0000
  H   H331      1.0  0.3543661089549926  0.20996589291325884  0.2832089225937028  1.0000
  H   H332      1.0  0.35293915646446766  0.167296811272597  0.2596930793787763  1.0000
  H   H333      1.0  0.3985215773691723  0.19186401022530708  0.26271913292283294  1.0000
  H   H334      1.0  0.39029095639966804  0.21502887235348633  0.3427100626455175  1.0000
  H   H335      1.0  0.43369257497166935  0.19692717213498723  0.32090510650737725  1.0000
  H   H336      1.0  0.41423619091539055  0.17597087677750234  0.36152773328010857  1.0000
  N   N13       1.0  0.31989645097039626  0.17944720898391497  0.9756969548655492  1.0000
  C   C337      1.0  0.31475811931387176  0.1815049628933682  0.9355454577981017  1.0000
  C   C338      1.0  0.28082033676410817  0.1820493580479027  0.9937330245700636  1.0000
  C   C339      1.0  0.34505917645558015  0.20962649069729566  0.9882637566776432  1.0000
  C   C340      1.0  0.3389004809528641  0.14465147574977938  0.9853400724940038  1.0000
  H   H337      1.0  0.3435476163573334  0.17934874715302432  0.9209167013039387  1.0000
  H   H338      1.0  0.3006147517257804  0.2074746299396962  0.927219775270194  1.0000
  H   H339      1.0  0.29548149124557505  0.15944019619425387  0.9251414861925584  1.0000
  H   H340      1.0  0.26560752238036917  0.2079534723858247  0.9869714521393729  1.0000
  H   H341      1.0  0.26103971080783445  0.15965808062406148  0.9848400623309361  1.0000
  H   H342      1.0  0.28356803161107336  0.1807576748014176  0.024097202848021082  1.0000
  H   H343      1.0  0.33204406916014995  0.23636458078911313  0.981054920478732  1.0000
  H   H344      1.0  0.37512465113296134  0.20806096536859245  0.975905247336994  1.0000
  H   H345      1.0  0.3488955477037467  0.20931186536947954  0.018557655803518536  1.0000
  H   H346      1.0  0.3444479508062645  0.14282426971486747  0.015341273459617444  1.0000
  H   H347      1.0  0.36795322025066224  0.1411251789015019  0.9712568369186134  1.0000
  H   H348      1.0  0.3201565475668378  0.12125678158575702  0.9773805711201061  1.0000
  N   N14       1.0  0.7687041756067474  0.3625946975413384  0.8117482724350796  1.0000
  C   C341      1.0  0.7453560340331401  0.3507526823858958  0.7797003530113538  1.0000
  C   C342      1.0  0.811232600229415  0.36052882687932536  0.8026298891070967  1.0000
  C   C343      1.0  0.7603220006356941  0.33871931169736813  0.8431313811044229  1.0000
  C   C344      1.0  0.7579508057301727  0.40027085358935327  0.8215561207074014  1.0000
  H   H349      1.0  0.713104135864605  0.3512491312833833  0.7857095385190759  1.0000
  H   H350      1.0  0.7532669259069606  0.32261236712709096  0.7712130195153686  1.0000
  H   H351      1.0  0.7504756076858992  0.36845678506439616  0.7556376989980722  1.0000
  H   H352      1.0  0.8186382138722544  0.3784503061906272  0.7792243609768937  1.0000
  H   H353      1.0  0.8298049326972512  0.3689514143832343  0.8262883052753329  1.0000
  H   H354      1.0  0.8201382268170532  0.3324372835201344  0.7946717783536122  1.0000
  H   H355      1.0  0.76919557487934  0.31024114320892215  0.8371275295877895  1.0000
  H   H356      1.0  0.7282670331356474  0.3387204947960751  0.8499864957208595  1.0000
  H   H357      1.0  0.7764317351547265  0.34753055130451577  0.868162030085752  1.0000
  H   H358      1.0  0.7749072394670722  0.41003962154684304  0.8457587625331756  1.0000
  H   H359      1.0  0.7260086596848727  0.40275936689384617  0.8284389601835798  1.0000
  H   H360      1.0  0.7641889908537605  0.419272001211855  0.7987352674712684  1.0000
  N   N15       1.0  0.7674657300562872  0.8030804557288425  0.2585264249329354  1.0000
  C   C345      1.0  0.7717077205930994  0.8222283503265161  0.29397020037671767  1.0000
  C   C346      1.0  0.7446245706227542  0.7694841567273845  0.26377166095087995  1.0000
  C   C347      1.0  0.8069452019610885  0.7937047581120648  0.24390471604188818  1.0000
  C   C348      1.0  0.746729530489843  0.8268246628762217  0.23227136308051907  1.0000
  H   H361      1.0  0.7884846194088367  0.8479235943717357  0.29090630193909855  1.0000
  H   H362      1.0  0.7878568467616794  0.8054224066164799  0.31429781561271847  1.0000
  H   H363      1.0  0.74242444439108  0.8294327407937894  0.3059670439565907  1.0000
  H   H364      1.0  0.742727868456176  0.7534884830647526  0.23789367326626007  1.0000
  H   H365      1.0  0.7587163321413773  0.7515410684574105  0.284431568817381  1.0000
  H   H366      1.0  0.7138855701175184  0.7753960874331691  0.27302160559748884  1.0000
  H   H367      1.0  0.8046402281604234  0.7802770467588741  0.2167289439055683  1.0000
  H   H368      1.0  0.8232166648652172  0.7749296819089908  0.2622999936102333  1.0000
  H   H369      1.0  0.8254864456301952  0.8180494619631091  0.24009047514393403  1.0000
  H   H370      1.0  0.7431247410039977  0.8132916946457005  0.20518228803566238  1.0000
  H   H371      1.0  0.7633426076136012  0.8523694621369905  0.2276448905871018  1.0000
  H   H372      1.0  0.7166455201997642  0.8343062134522163  0.2422396430737614  1.0000
  N   N16       1.0  0.05714115236287798  0.10877193439100807  0.44955913395615127  1.0000
  C   C349      1.0  0.038820787994122696  0.11821036981372113  0.48516177142861944  1.0000
  C   C350      1.0  0.026302796758889357  0.0970595515869408  0.42351409353203956  1.0000
  C   C351      1.0  0.08590783337526675  0.07900347353961656  0.4547231162572666  1.0000
  C   C352      1.0  0.07759737893226482  0.14077621264778828  0.4348232073024649  1.0000
  H   H373      1.0  0.06110739377855556  0.12836846702734994  0.5049640225191822  1.0000
  H   H374      1.0  0.02452294632631946  0.09431769969231585  0.4978935193067459  1.0000
  H   H375      1.0  0.015899955479968586  0.13968870996732607  0.48221068263687894  1.0000
  H   H376      1.0  0.0391108999775196  0.08994968743962084  0.39627573671914856  1.0000
  H   H377      1.0  0.010400417638789738  0.07281651305729953  0.43371383719452294  1.0000
  H   H378      1.0  0.003913328789825865  0.11874460521744634  0.4190544957317018  1.0000
  H   H379      1.0  0.10051887323544384  0.07128137244126642  0.4284601381060552  1.0000
  H   H380      1.0  0.07138403888212919  0.05444012986896474  0.46591157387776394  1.0000
  H   H381      1.0  0.1096095876691956  0.08681525905800314  0.474239193620284  1.0000
  H   H382      1.0  0.09158349150096057  0.13468460135358962  0.4079607279828557  1.0000
  H   H383      1.0  0.10138926971274564  0.15014103329480966  0.45349063141600743  1.0000
  H   H384      1.0  0.056866983336462784  0.16386269689660704  0.43062071306515753  1.0000
  N   N17       1.0  0.5565929071899874  0.43948222404526444  0.9494791115098407  1.0000
  C   C353      1.0  0.5616143848420061  0.40133871857717207  0.9378809050772562  1.0000
  C   C354      1.0  0.5240984991479515  0.45619055929282254  0.9283897065865788  1.0000
  C   C355      1.0  0.5935764272402538  0.4594765125654715  0.9427421515706637  1.0000
  C   C356      1.0  0.5470786486162112  0.44091708306715244  0.9890015433686082  1.0000
  H   H385      1.0  0.5855567068933409  0.38771552341000476  0.9536054689568357  1.0000
  H   H386      1.0  0.5697083401289429  0.39917772942994595  0.9083680181622559  1.0000
  H   H387      1.0  0.5339794772404222  0.385679581756165  0.942185173327159  1.0000
  H   H388      1.0  0.5204575406928826  0.4853099088219447  0.9354494062890274  1.0000
  H   H389      1.0  0.5297309395641037  0.4546483993703084  0.8983841268610173  1.0000
  H   H390      1.0  0.4953408641183711  0.4426999119105826  0.933972305111  1.0000
  H   H391      1.0  0.590825036759875  0.4882882883541105  0.9515267957073908  1.0000
  H   H392      1.0  0.6016814260413342  0.45911285189806994  0.9131947527296539  1.0000
  H   H393      1.0  0.6187256911170363  0.4474317089570717  0.9581066234225011  1.0000
  H   H394      1.0  0.54307697845723  0.4692897741090252  0.9987301049867026  1.0000
  H   H395      1.0  0.5709778949065949  0.42843433650761464  0.005658273588986074  1.0000
  H   H396      1.0  0.5192619061275403  0.4261790569990999  0.9951603616461171  1.0000
  N   N18       1.0  0.7259735528945392  0.7927679522686562  0.6798823897575955  1.0000
  C   C357      1.0  0.7357965958729126  0.8316897007029924  0.6793591078996103  1.0000
  C   C358      1.0  0.7197071942798632  0.7812305436410305  0.7181480034842838  1.0000
  C   C359      1.0  0.7589540041047028  0.7717090458328855  0.6636381988542943  1.0000
  C   C360      1.0  0.6895718470303184  0.78643284528403  0.6584782512256763  1.0000
  H   H397      1.0  0.7409848012273038  0.8413365036677449  0.6509392612992513  1.0000
  H   H398      1.0  0.7631241053045119  0.8373095398621092  0.6954073996260064  1.0000
  H   H399      1.0  0.7115993506417194  0.8484315177315817  0.6914558824142562  1.0000
  H   H400      1.0  0.7125538786594657  0.7519208110829234  0.7195949190348813  1.0000
  H   H401      1.0  0.7465796069216175  0.7859199913725062  0.7351024455247568  1.0000
  H   H402      1.0  0.6948981929370925  0.7964087452334951  0.7312348115051684  1.0000
  H   H403      1.0  0.7528563870266158  0.742175688587905  0.6640429854595444  1.0000
  H   H404      1.0  0.7869498639692688  0.7761587764496632  0.6789402466831886  1.0000
  H   H405      1.0  0.764334426498098  0.7794232242909155  0.6346600884303011  1.0000
  H   H406      1.0  0.6816013074518528  0.7572665503428394  0.6580383282834888  1.0000
  H   H407      1.0  0.6929966003129343  0.7951422531561658  0.629503879599494  1.0000
  H   H408      1.0  0.6638460209168416  0.8014225908513614  0.670233327855961  1.0000
  N   N19       1.0  0.11755698121690879  0.17682281508952724  0.698015832626602  1.0000
  C   C361      1.0  0.12767049746413947  0.2105385948459615  0.6786209450415669  1.0000
  C   C362      1.0  0.1396460431730255  0.14624928456013953  0.6813913158001896  1.0000
  C   C363      1.0  0.07468039159970585  0.1700934119355213  0.6948569983712616  1.0000
  C   C364      1.0  0.12822046892054134  0.18035774275189254  0.7371263463332228  1.0000
  H   H409      1.0  0.1598066418199957  0.21657876446531543  0.6807673129412879  1.0000
  H   H410      1.0  0.11107738232526601  0.2341399229910761  0.689980114438749  1.0000
  H   H411      1.0  0.12030642251490133  0.2085876848441366  0.6489575158094142  1.0000
  H   H412      1.0  0.13386324432721627  0.12056311225821048  0.6961435171037569  1.0000
  H   H413      1.0  0.13115262742849493  0.14206545924277014  0.6522244697155779  1.0000
  H   H414      1.0  0.17204977255227608  0.15084714118483933  0.6823021811547783  1.0000
  H   H415      1.0  0.06598638279277802  0.14538192397741523  0.7099929257946659  1.0000
  H   H416      1.0  0.06569244010720143  0.16611589364805646  0.6658306520428156  1.0000
  H   H417      1.0  0.05691774567264308  0.19301277598479882  0.7060983288806131  1.0000
  H   H418      1.0  0.12144950293853167  0.1551838375310879  0.7524673524606117  1.0000
  H   H419      1.0  0.11170973653052214  0.20286761655991836  0.7506493278399787  1.0000
  H   H420      1.0  0.16028462723032177  0.18565024933833052  0.740670675423384  1.0000
  N   N20       1.0  0.8797219439931372  0.6380838685218514  0.5773264740404078  1.0000
  C   C365      1.0  0.9181454886335891  0.6280626420097205  0.5607731283996473  1.0000
  C   C366      1.0  0.8849396568571326  0.6697346124594787  0.6017201972181323  1.0000
  C   C367      1.0  0.8645248666307537  0.6073371533359307  0.5987999451198346  1.0000
  C   C368      1.0  0.8512997122378995  0.6472068771268921  0.5480835702968148  1.0000
  H   H421      1.0  0.9400625868400293  0.6205558313842148  0.5821378783467165  1.0000
  H   H422      1.0  0.9309467706124361  0.6509273313882147  0.544984644013004  1.0000
  H   H423      1.0  0.9153307993419545  0.6045559525157446  0.5416885334697488  1.0000
  H   H424      1.0  0.8974667963169027  0.6931971593860847  0.5867020565246186  1.0000
  H   H425      1.0  0.8563478325337799  0.6785577771970699  0.6140524427813946  1.0000
  H   H426      1.0  0.9054075463289643  0.6634522968443151  0.6246684075871259  1.0000
  H   H427      1.0  0.8354121896355964  0.6139576679561745  0.611560056604345  1.0000
  H   H428      1.0  0.8850851454318291  0.6000208414158561  0.6213823645909021  1.0000
  H   H429      1.0  0.860560569694974  0.5828579595401305  0.5812956676232205  1.0000
  H   H430      1.0  0.8220022492033512  0.6550018335183859  0.5597724209248705  1.0000
  H   H431      1.0  0.8466446588268256  0.6238272121635834  0.5292050799131802  1.0000
  H   H432      1.0  0.8619954431632428  0.6702305248214482  0.5312734157265374  1.0000
  N   N21       1.0  0.536890891292593  0.2856442068487506  0.6915798468860735  1.0000
  C   C369      1.0  0.5394298993449285  0.27691864465473115  0.6520756111073389  1.0000
  C   C370      1.0  0.5320464191045401  0.325154139267388  0.6965139568545096  1.0000
  C   C371      1.0  0.5734603221132294  0.2736167558112723  0.7100147904734828  1.0000
  C   C372      1.0  0.5026185075636586  0.26688117768006053  0.7077357581005492  1.0000
  H   H433      1.0  0.5429193987013141  0.24727636114309967  0.6474407977595028  1.0000
  H   H434      1.0  0.5650949658322407  0.2904579806382799  0.6390217827732307  1.0000
  H   H435      1.0  0.5123300604941143  0.28587404346514594  0.6372954756505744  1.0000
  H   H436      1.0  0.530326719644774  0.33268098412048325  0.7260546713123157  1.0000
  H   H437      1.0  0.5573209489430009  0.3401467317913356  0.6844740094642826  1.0000
  H   H438      1.0  0.5045736156358139  0.3351682504537313  0.6830645084548583  1.0000
  H   H439      1.0  0.5999615326348947  0.28735493052213334  0.6987002037433241  1.0000
  H   H440      1.0  0.5781983871267591  0.24396563082553963  0.7067065259590106  1.0000
  H   H441      1.0  0.5725191259381838  0.279706655654429  0.739919174742368  1.0000
  H   H442      1.0  0.49992387885803047  0.27264001056781245  0.7375828895708192  1.0000
  H   H443      1.0  0.5051797077922405  0.23700387975000525  0.7042937736829945  1.0000
  H   H444      1.0  0.4745139266162492  0.27561459117992165  0.6945765102991922  1.0000
  N   N22       1.0  0.9842526819446419  0.08612337639374211  0.9656334950264678  1.0000
  C   C373      1.0  0.9968178493344951  0.11642362823951635  0.9421640236562984  1.0000
  C   C374      1.0  0.9431862575759911  0.09238971097483151  0.978151500774624  1.0000
  C   C375      1.0  0.010655656869966723  0.08374464858263585  0.9977460918515847  1.0000
  C   C376      1.0  0.9864894498872128  0.051993989058237045  0.9443918437012403  1.0000
  H   H445      1.0  0.02724694993619048  0.11193127803409464  0.9313411819995329  1.0000
  H   H446      1.0  0.9971537902863172  0.14250806154836423  0.9575761870661189  1.0000
  H   H447      1.0  0.9769797500594579  0.11977458877315428  0.918165616762298  1.0000
  H   H448      1.0  0.9404449822003248  0.11802889722512933  0.9941486548089832  1.0000
  H   H449      1.0  0.9223153382803984  0.09388047327877723  0.9546921220122463  1.0000
  H   H450      1.0  0.932854123195933  0.07018978915339313  0.9961587997731884  1.0000
  H   H451      1.0  0.042150738560767564  0.08064230573090314  0.9893354462083225  1.0000
  H   H452      1.0  0.003138807290855805  0.06034623895538082  0.01536434720806601  1.0000
  H   H453      1.0  0.008437613441720337  0.10844975826100955  0.01520216047835321  1.0000
  H   H454      1.0  0.9776214820927193  0.028440339497806555  0.9612588486288755  1.0000
  H   H455      1.0  0.01704191546203826  0.04663455611149935  0.9342892225579538  1.0000
  H   H456      1.0  0.9665161408237007  0.05258877683548402  0.9202180339558125  1.0000
  N   N23       1.0  0.2723831779266783  0.16077300718189594  0.5629333204788579  1.0000
  C   C377      1.0  0.23077714584500889  0.15687892348631155  0.5743763146715226  1.0000
  C   C378      1.0  0.2774336708712423  0.14837039936832924  0.5246277872584195  1.0000
  C   C379      1.0  0.29763506860902084  0.13871210752692556  0.5871006212120812  1.0000
  C   C380      1.0  0.2837333616620689  0.1992105472544799  0.5658021840484042  1.0000
  H   H457      1.0  0.22058127534342217  0.12845024165357152  0.5710431871712618  1.0000
  H   H458      1.0  0.21108371433047027  0.17439261762381192  0.5577754626498502  1.0000
  H   H459      1.0  0.22652647611639448  0.1648862449788654  0.6035878475676755  1.0000
  H   H460      1.0  0.3085090121548071  0.15172526306828116  0.5151354433803099  1.0000
  H   H461      1.0  0.2699067709215074  0.11922443577804298  0.5214703737238858  1.0000
  H   H462      1.0  0.2580044819516497  0.16378994684635906  0.5056634158952751  1.0000
  H   H463      1.0  0.2901190311895978  0.10948537880954512  0.5851144642485252  1.0000
  H   H464      1.0  0.29426255770072024  0.14717036881653442  0.616275061347255  1.0000
  H   H465      1.0  0.3292668939086382  0.14140485278258275  0.5795590344759817  1.0000
  H   H466      1.0  0.31489945069956005  0.20322466122844896  0.5570993996690744  1.0000
  H   H467      1.0  0.2806616263850484  0.20944186263976444  0.594419050241046  1.0000
  H   H468      1.0  0.2649765008659121  0.216570126352648  0.548033213607855  1.0000
  N   N24       1.0  0.424900502973922  0.5895652249405616  0.32082478793036906  1.0000
  C   C381      1.0  0.4491363163753234  0.6170619882974089  0.30210247680515356  1.0000
  C   C382      1.0  0.44525392165932537  0.5541336066915342  0.3188379958645823  1.0000
  C   C383      1.0  0.3858941836305939  0.5869226190454337  0.30284779381438504  1.0000
  C   C384      1.0  0.41945749941438276  0.6000870635285144  0.35964497069021595  1.0000
  H   H469      1.0  0.43429390235280013  0.6440686422932886  0.3021300251953955  1.0000
  H   H470      1.0  0.4547088661825146  0.6095559416983906  0.2729669536906326  1.0000
  H   H471      1.0  0.4784009764676453  0.6203778699877109  0.31553013104910904  1.0000
  H   H472      1.0  0.42888667136224423  0.5330102148587772  0.3341544618636656  1.0000
  H   H473      1.0  0.44851121570567337  0.544491365432954  0.2900410718459308  1.0000
  H   H474      1.0  0.4753062980009612  0.5555873670285896  0.3308750894624767  1.0000
  H   H475      1.0  0.3700331602135106  0.6134036590088787  0.3029915526349916  1.0000
  H   H476      1.0  0.36655729678394733  0.5669751742036135  0.31678695457833755  1.0000
  H   H477      1.0  0.3887052256961975  0.5780434123618076  0.2737320493224784  1.0000
  H   H478      1.0  0.448298293923337  0.6016859249160588  0.3742236089756032  1.0000
  H   H479      1.0  0.4009323332654303  0.5800767451937837  0.37447654553340004  1.0000
  H   H480      1.0  0.40466038524137604  0.626970612707298  0.36216234367758654  1.0000
  N   N25       1.0  0.38343773162038447  0.6347390714856735  0.5958543444833738  1.0000
  C   C385      1.0  0.3624801261355434  0.6683703535515294  0.5856052438643646  1.0000
  C   C386      1.0  0.4044761364586685  0.6405380239702952  0.6308262115703265  1.0000
  C   C387      1.0  0.41223287507004025  0.6248105111438779  0.5669353995973789  1.0000
  C   C388      1.0  0.3545306141763996  0.6052130915558595  0.6001346504208804  1.0000
  H   H481      1.0  0.34622850701635743  0.6650675859000468  0.5593618794717412  1.0000
  H   H482      1.0  0.3833759540951126  0.6913531611320521  0.5824161737668694  1.0000
  H   H483      1.0  0.34030595620228415  0.676339433263553  0.6068388215949897  1.0000
  H   H484      1.0  0.4207224451197074  0.6157661011496406  0.6394322700362374  1.0000
  H   H485      1.0  0.42640178016019287  0.662794036258011  0.6285570479415504  1.0000
  H   H486      1.0  0.38362130558569046  0.6480904612151223  0.6532895696516544  1.0000
  H   H487      1.0  0.42775692026987955  0.5990041619116833  0.5734834330570566  1.0000
  H   H488      1.0  0.4351686090684129  0.6460457384357362  0.5634659450933506  1.0000
  H   H489      1.0  0.39759879483893007  0.6207779567177647  0.5399692174634488  1.0000
  H   H490      1.0  0.3692680264820875  0.5792707041538823  0.607548063210198  1.0000
  H   H491      1.0  0.3376293485311055  0.6005178784976708  0.5744338751288077  1.0000
  H   H492      1.0  0.33253249551322633  0.6116926193146257  0.6219200094203373  1.0000
  N   N26       1.0  0.698107592876879  0.622773719376793  0.8530699338906385  1.0000
  C   C389      1.0  0.7256267290141437  0.6495806127641109  0.8375504343486877  1.0000
  C   C390      1.0  0.6750124899367737  0.6398087165555335  0.8830216974283117  1.0000
  C   C391      1.0  0.7208368730329892  0.5917323954258983  0.86754573413922  1.0000
  C   C392      1.0  0.6709726159744992  0.609970232960827  0.8241469794300691  1.0000
  H   H493      1.0  0.7437832195820369  0.6376330850890956  0.8150248156615381  1.0000
  H   H494      1.0  0.7465307170077661  0.6598257583180708  0.8586859992232172  1.0000
  H   H495      1.0  0.7096468571382497  0.6733695676267382  0.8261873658403168  1.0000
  H   H496      1.0  0.6527761974858145  0.620836486369383  0.8943688162845342  1.0000
  H   H497      1.0  0.6943466351381617  0.6481588318154327  0.9061791861418855  1.0000
  H   H498      1.0  0.658703222098531  0.6641987955100493  0.8734660538486172  1.0000
  H   H499      1.0  0.7010964123091725  0.5712601199756284  0.8800592378448413  1.0000
  H   H500      1.0  0.7421293149233196  0.6004018733053074  0.8890154790606025  1.0000
  H   H501      1.0  0.7380715944777383  0.5778445920757123  0.8455759706064189  1.0000
  H   H502      1.0  0.6498024786342746  0.5896712057566635  0.8350093375032096  1.0000
  H   H503      1.0  0.6874781793838399  0.5969680521228785  0.8011031731513887  1.0000
  H   H504      1.0  0.6533064673629216  0.6326821574773073  0.8125838251332741  1.0000
  N   N27       1.0  0.6475243050444781  0.4519603474138951  0.37211835683169203  1.0000
  C   C393      1.0  0.6054818585879266  0.4417571147487818  0.36930474360916193  1.0000
  C   C394      1.0  0.671849364017677  0.42669654049995775  0.3499537079989629  1.0000
  C   C395      1.0  0.6600764288939794  0.4502531981329881  0.4108224163224305  1.0000
  C   C396      1.0  0.652774219014906  0.4892001896003461  0.3584534386268412  1.0000
  H   H505      1.0  0.5864160599322984  0.4595976764842525  0.38663677516466943  1.0000
  H   H506      1.0  0.6004467063599358  0.41346680824773957  0.37838105035222563  1.0000
  H   H507      1.0  0.5945240640170509  0.4440057373958567  0.3406493757326371  1.0000
  H   H508      1.0  0.7038147533649206  0.43346460923492985  0.351909265085542  1.0000
  H   H509      1.0  0.668396970643601  0.3982338652173016  0.3591211878736107  1.0000
  H   H510      1.0  0.6636690718533075  0.4277484293330532  0.32043116958061774  1.0000
  H   H511      1.0  0.6917558165809958  0.4577445474035224  0.4138499864843309  1.0000
  H   H512      1.0  0.6564250176188334  0.4225307378229895  0.4220675257957705  1.0000
  H   H513      1.0  0.6423609902449875  0.4691244231476671  0.4282816101822387  1.0000
  H   H514      1.0  0.6448064536772935  0.49127143967250997  0.32896173521391636  1.0000
  H   H515      1.0  0.6840156077709156  0.498049333046326  0.361025710678042  1.0000
  H   H516      1.0  0.634064092968049  0.5089157395626678  0.37392005733305445  1.0000
  N   N28       1.0  0.4651779406520435  0.9221925147754093  0.2999283216067295  1.0000
  C   C397      1.0  0.5008901557022801  0.9429749792570314  0.3094828679632828  1.0000
  C   C398      1.0  0.44611485941710893  0.938627738741943  0.26759233846672875  1.0000
  C   C399      1.0  0.4373328926928185  0.9229698439542614  0.3311578633885732  1.0000
  C   C400      1.0  0.4764563251995908  0.8843247753920318  0.2915817419397475  1.0000
  H   H517      1.0  0.5155272900596379  0.9318822365935453  0.3343613148442388  1.0000
  H   H518      1.0  0.4934443555521653  0.971842076561967  0.31507361141722556  1.0000
  H   H519      1.0  0.5229090407601076  0.9423041275609566  0.2868216210673898  1.0000
  H   H520      1.0  0.41976064086128095  0.922937875483503  0.2587800952247452  1.0000
  H   H521      1.0  0.4363381528210394  0.9669410884672743  0.27334484701699685  1.0000
  H   H522      1.0  0.4666682648605192  0.9393259188279511  0.24376526375447927  1.0000
  H   H523      1.0  0.41022418779710895  0.9071744639919763  0.32503703815736323  1.0000
  H   H524      1.0  0.42787026203079875  0.951173242415754  0.3378196997263328  1.0000
  H   H525      1.0  0.4510727516296848  0.9113948570015339  0.35625741789652515  1.0000
  H   H526      1.0  0.4503454728036882  0.8679649239884001  0.2834036695301135  1.0000
  H   H527      1.0  0.4904797177601274  0.8710668710805437  0.3156392036862598  1.0000
  H   H528      1.0  0.4978109916855724  0.8827922453508994  0.26836347734267624  1.0000
  N   N29       1.0  0.36184031972597325  0.12279313976240891  0.7869416289898921  1.0000
  C   C401      1.0  0.3273083742028307  0.10532976708266806  0.8041262796892613  1.0000
  C   C402      1.0  0.37450281391652185  0.15378188668603787  0.8097558837016303  1.0000
  C   C403      1.0  0.3508985951128861  0.1357549473664248  0.7500895252919795  1.0000
  C   C404      1.0  0.3946771323226705  0.09641579758269114  0.7837874794650157  1.0000
  H   H529      1.0  0.316110138884989  0.08249739538736756  0.7871435649411879  1.0000
  H   H530      1.0  0.30245463119231303  0.12488237297690796  0.8079022933729623  1.0000
  H   H531      1.0  0.33468530374922906  0.09432838321029613  0.8315734738447436  1.0000
  H   H532      1.0  0.400165167231236  0.16789681658887057  0.7971995547236824  1.0000
  H   H533      1.0  0.3502645250341364  0.1740356537333052  0.8130999880566965  1.0000
  H   H534      1.0  0.3833795530644203  0.14490434468297497  0.8376524745221013  1.0000
  H   H535      1.0  0.3759280728116413  0.14987271140525338  0.7366078960594393  1.0000
  H   H536      1.0  0.32583035676543004  0.1552049308104566  0.7514962729591572  1.0000
  H   H537      1.0  0.3418545192062856  0.11308989027241645  0.7318303217229194  1.0000
  H   H538      1.0  0.421114504026716  0.10881982805449542  0.7707220305425591  1.0000
  H   H539      1.0  0.3861849883870956  0.07262273359938654  0.7667936908557375  1.0000
  H   H540      1.0  0.4038526806840064  0.08623389471039511  0.811170328492437  1.0000
  N   N30       1.0  0.9599444265461387  0.6365478306063733  0.8248488661900341  1.0000
  C   C405      1.0  0.9336039307402751  0.6231281315939364  0.7956814627588724  1.0000
  C   C406      1.0  0.9814039141137408  0.6057317245081253  0.8411075282638407  1.0000
  C   C407      1.0  0.9360872070252598  0.6549691938730762  0.8534141678884694  1.0000
  C   C408      1.0  0.988591083664294  0.6622798191746003  0.8091528435586238  1.0000
  H   H541      1.0  0.9112452139924383  0.603952141004249  0.8065670290206487  1.0000
  H   H542      1.0  0.9505169740360495  0.6091917990794637  0.7734777715102049  1.0000
  H   H543      1.0  0.9173183292058669  0.64585109716437  0.7828923820568205  1.0000
  H   H544      1.0  0.0009843044020054759  0.6148296226367352  0.863693510057946  1.0000
  H   H545      1.0  0.9607116670528906  0.5853773034245315  0.852519541684926  1.0000
  H   H546      1.0  0.0004896269315275426  0.5916768390110727  0.82053849088243  1.0000
  H   H547      1.0  0.9549052182131046  0.6656778102287001  0.8759054820987975  1.0000
  H   H548      1.0  0.914222458768381  0.6362842022656182  0.8659489004998141  1.0000
  H   H549      1.0  0.9189248551803936  0.6780757779318403  0.842042089392805  1.0000
  H   H550      1.0  0.009181187391146262  0.6727745542551495  0.8303814427351472  1.0000
  H   H551      1.0  0.9733388364990004  0.685854862432044  0.7964685254467139  1.0000
  H   H552      1.0  0.006835627758064344  0.6492801900143877  0.7872487351150452  1.0000
  N   N31       1.0  0.644364192102058  0.04301101360111215  0.8821799464490824  1.0000
  C   C409      1.0  0.645062256702311  0.004505022828786176  0.8709971930279348  1.0000
  C   C410      1.0  0.681022645284476  0.05154811374997981  0.902256696177627  1.0000
  C   C411      1.0  0.6098717539194402  0.0499618102001127  0.906159472831817  1.0000
  C   C412      1.0  0.6416833090461498  0.0660463302384311  0.8493070712551284  1.0000
  H   H553      1.0  0.6177314345829779  0.9969411273253919  0.8559693015255775  1.0000
  H   H554      1.0  0.6473806830703784  0.9864452425462861  0.8951736820879864  1.0000
  H   H555      1.0  0.6708172081341224  0.9983531291029374  0.852899838556648  1.0000
  H   H556      1.0  0.6820563634444796  0.08059477778046142  0.9104352576642222  1.0000
  H   H557      1.0  0.6838409959982672  0.03525252184933603  0.9275781709013682  1.0000
  H   H558      1.0  0.7076190052520859  0.045693805790182784  0.8852439928351551  1.0000
  H   H559      1.0  0.6085510192858602  0.07879500308383292  0.9151196192344793  1.0000
  H   H560      1.0  0.6110479965466198  0.03299013883266655  0.9312028335312085  1.0000
  H   H561      1.0  0.5816310099128421  0.04365219197065073  0.8919765431419646  1.0000
  H   H562      1.0  0.6417182975298079  0.09536009974215909  0.8567251345153414  1.0000
  H   H563      1.0  0.614228261628831  0.06068545613513421  0.8335434098609464  1.0000
  H   H564      1.0  0.6672267030979715  0.06129676692923125  0.830594434568968  1.0000
  N   N32       1.0  0.5316240095514181  0.10895166123925937  0.5402260390726011  1.0000
  C   C413      1.0  0.5038260198015719  0.11922288276432001  0.510842446248871  1.0000
  C   C414      1.0  0.5395296277922421  0.06959950666134174  0.5382078263459726  1.0000
  C   C415      1.0  0.5140614715890398  0.11803958534113423  0.576241458046797  1.0000
  C   C416      1.0  0.569018369803923  0.1289164522195826  0.5356007065750075  1.0000
  H   H565      1.0  0.5167692975279161  0.1141624755702002  0.4832368545283673  1.0000
  H   H566      1.0  0.49543520237445915  0.14836837352748722  0.5125174723241731  1.0000
  H   H567      1.0  0.4761436589557074  0.10332843354122188  0.5124578614536531  1.0000
  H   H568      1.0  0.5598764893173737  0.06071541030223737  0.5603359456095053  1.0000
  H   H569      1.0  0.5117381807529516  0.0537126098652001  0.5407088984740792  1.0000
  H   H570      1.0  0.5535154406252542  0.061930646676363395  0.5116377528414296  1.0000
  H   H571      1.0  0.5347493517953994  0.11176394312147385  0.5990471763131271  1.0000
  H   H572      1.0  0.48659003772282305  0.10244030635414947  0.5811529604252809  1.0000
  H   H573      1.0  0.5062261054508479  0.14729943693486086  0.5781799480832982  1.0000
  H   H574      1.0  0.59065963929617  0.12196560698419123  0.5574221232107033  1.0000
  H   H575      1.0  0.5640073323929921  0.15869790754901297  0.536654847102862  1.0000
  H   H576      1.0  0.5832169778419067  0.12242443524034095  0.5087611574491839  1.0000
  N   N33       1.0  0.28253001764707036  0.9907423810877551  0.04503141843476355  1.0000
  C   C417      1.0  0.319825920346229  0.005793867635099259  0.03070319087185447  1.0000
  C   C418      1.0  0.26529538031411715  0.016172715124806558  0.07214697793618607  1.0000
  C   C419      1.0  0.2907077672359374  0.9556051558887503  0.06272537986745075  1.0000
  C   C420      1.0  0.2543687794365461  0.985439053539867  0.014581438796438695  1.0000
  H   H577      1.0  0.3338208114442282  0.9871637460974403  0.01033002144987516  1.0000
  H   H578      1.0  0.34184205048939587  0.00989639939985687  0.05295168054737731  1.0000
  H   H579      1.0  0.3149785015160133  0.03227512739193861  0.0170241054097946  1.0000
  H   H580      1.0  0.23717506756575082  0.005618667630758577  0.08368687238116324  1.0000
  H   H581      1.0  0.2859131151741594  0.020938720323572246  0.09539303775357566  1.0000
  H   H582      1.0  0.2585914191886408  0.04287051082099813  0.059510704041966456  1.0000
  H   H583      1.0  0.2633662232637598  0.9433573643985071  0.07403634409068038  1.0000
  H   H584      1.0  0.3123004699141144  0.9585245394468644  0.08555023014370167  1.0000
  H   H585      1.0  0.3039277350091327  0.9358647066671628  0.04295357629671215  1.0000
  H   H586      1.0  0.22559021566610338  0.9747814429539047  0.024434554182843016  1.0000
  H   H587      1.0  0.26607396940648365  0.9659241768167932  0.9938521881743466  1.0000
  H   H588      1.0  0.2481504446955606  0.011289035384998591  5.1063874248580277e-05  1.0000
  N   N34       1.0  0.4931912162577971  0.856090078360233  0.03001669528114803  1.0000
  C   C421      1.0  0.45553648226713256  0.8386491633923507  0.040076452931000706  1.0000
  C   C422      1.0  0.49012007207804753  0.8708750153742637  0.9925868484665911  1.0000
  C   C423      1.0  0.525558261282524  0.8291142737394331  0.031310900032154976  1.0000
  C   C424      1.0  0.5014565234118675  0.8858279818858911  0.05607019768284527  1.0000
  H   H589      1.0  0.43024707549694563  0.8578484926657441  0.03772948839357704  1.0000
  H   H590      1.0  0.45620091545079117  0.8285371977559668  0.06877505183774502  1.0000
  H   H591      1.0  0.44927935216615505  0.8148790834969414  0.022168807959315195  1.0000
  H   H592      1.0  0.5182144867933602  0.8838739248397488  0.9839286191485364  1.0000
  H   H593      1.0  0.4832626219110447  0.8492871923728498  0.9722482836872155  1.0000
  H   H594      1.0  0.46643992594364053  0.8918641108597737  0.9908425321001294  1.0000
  H   H595      1.0  0.5544291319015093  0.8412535487449834  0.023728618927904677  1.0000
  H   H596      1.0  0.5199503792868909  0.805999500438415  0.012339610092257036  1.0000
  H   H597      1.0  0.5285925036667363  0.817369104803816  0.0591542128256759  1.0000
  H   H598      1.0  0.5296324439639745  0.8997039240173685  0.04928179490071116  1.0000
  H   H599      1.0  0.5034721444639628  0.8758448948151245  0.08473397636120605  1.0000
  H   H600      1.0  0.47757620176217674  0.9065834648404375  0.055533299183861295  1.0000
  N   N35       1.0  0.12100561453283798  0.675952098541921  0.6529943335213693  1.0000
  C   C425      1.0  0.1637921737528849  0.6833957675011276  0.6509124921793545  1.0000
  C   C426      1.0  0.09878423700865469  0.7067563430606373  0.637391456004864  1.0000
  C   C427      1.0  0.10931869013250806  0.6710383845418393  0.6916902567100007  1.0000
  C   C428      1.0  0.11228381127439468  0.6426103580550431  0.6320335865779755  1.0000
  H   H601      1.0  0.1718179234757946  0.7078394617742424  0.6671799582256728  1.0000
  H   H602      1.0  0.17364958007185138  0.6876937266174402  0.6221451528500872  1.0000
  H   H603      1.0  0.18142215156145292  0.6603835496343359  0.6617561181486927  1.0000
  H   H604      1.0  0.1061028767525547  0.7325713167186082  0.6516231423630143  1.0000
  H   H605      1.0  0.10533902889442448  0.710220015689277  0.6077106926787766  1.0000
  H   H606      1.0  0.06636617786015653  0.7029568701206999  0.6401467574466535  1.0000
  H   H607      1.0  0.07717607463995857  0.6652860266102822  0.6943791173120405  1.0000
  H   H608      1.0  0.11554875161747069  0.6956880796937591  0.7083715179720532  1.0000
  H   H609      1.0  0.1258109559966627  0.6482580438537513  0.7045418166136294  1.0000
  H   H610      1.0  0.12933396507900308  0.6190683973335614  0.6426549122738631  1.0000
  H   H611      1.0  0.12002985599055749  0.6455564631549878  0.6025480789266882  1.0000
  H   H612      1.0  0.08048815781855412  0.6355755477153084  0.6336517369713793  1.0000
  N   N36       1.0  0.17399783363746013  0.5537035457115995  0.4281793833663845  1.0000
  C   C429      1.0  0.2015323755748304  0.5443382200465766  0.4581014613216429  1.0000
  C   C430      1.0  0.19541731142328067  0.5533324106182963  0.3928143030676235  1.0000
  C   C431      1.0  0.1572318824126684  0.590147352238015  0.4349615125291624  1.0000
  C   C432      1.0  0.1416626734578268  0.5269970976796032  0.4269975477519267  1.0000
  H   H613      1.0  0.22612192949765952  0.5641090583547157  0.4601152308816119  1.0000
  H   H614      1.0  0.21490306504257362  0.5170325802850841  0.4538508773355571  1.0000
  H   H615      1.0  0.18615936274478107  0.5441719316492072  0.4851489788499179  1.0000
  H   H616      1.0  0.17544109731509971  0.5600639681317515  0.3695983332285021  1.0000
  H   H617      1.0  0.21981824020335838  0.573388815032353  0.39260589871349755  1.0000
  H   H618      1.0  0.20859415412520632  0.5262515434058084  0.38683309281963035  1.0000
  H   H619      1.0  0.13708964020090342  0.5985596602691379  0.4125211381735257  1.0000
  H   H620      1.0  0.18073408001685487  0.610974460425347  0.4371213476391636  1.0000
  H   H621      1.0  0.13982708068300997  0.5908922501663152  0.46083181806849105  1.0000
  H   H622      1.0  0.12512393137649558  0.5264029438092711  0.4534519104953224  1.0000
  H   H623      1.0  0.15314587667896795  0.49918790666945745  0.42165270918579745  1.0000
  H   H624      1.0  0.12005490388310958  0.5334846536056447  0.40502970790191856  1.0000
  N   N37       1.0  0.6226734272673192  0.12823767222041016  0.09012272671758956  1.0000
  C   C433      1.0  0.6088165745250984  0.11866187492909996  0.12723934829489886  1.0000
  C   C434      1.0  0.6202843746519382  0.09614599062452278  0.0658886432994549  1.0000
  C   C435      1.0  0.6641079629024542  0.140621831526881  0.09194958371517171  1.0000
  C   C436      1.0  0.5974436769108622  0.15750722107581305  0.07542728855953645  1.0000
  H   H625      1.0  0.6103484962482921  0.14227702079576243  0.14622164620484768  1.0000
  H   H626      1.0  0.6269926539140208  0.0965798586038018  0.13923129371096324  1.0000
  H   H627      1.0  0.5775114048431482  0.10948572436843107  0.12684485090154607  1.0000
  H   H628      1.0  0.6308009240156238  0.10231753455014814  0.03772163726283817  1.0000
  H   H629      1.0  0.6385104916247848  0.07337945503253263  0.07650237639909009  1.0000
  H   H630      1.0  0.5893756914084873  0.08629485618029542  0.06353433109461816  1.0000
  H   H631      1.0  0.675445666628633  0.14834425930816764  0.06446232287837098  1.0000
  H   H632      1.0  0.6839895550666201  0.11923429494376792  0.10297498024262047  1.0000
  H   H633      1.0  0.6671154509649965  0.16474833265026456  0.11011162989269957  1.0000
  H   H634      1.0  0.6062651483303422  0.16485980156218427  0.04708070125855812  1.0000
  H   H635      1.0  0.5995204782670005  0.18243794319366646  0.09258085755512442  1.0000
  H   H636      1.0  0.5657609273645522  0.1493733328008804  0.07473083136131403  1.0000
  N   N38       1.0  0.5994380694767261  0.6682850216474154  0.22903244719725913  1.0000
  C   C437      1.0  0.5856926182656599  0.7011376558068384  0.2486138396930231  1.0000
  C   C438      1.0  0.6247154015756308  0.6466296913559397  0.25359235348049003  1.0000
  C   C439      1.0  0.6225815075366732  0.6787083739043779  0.19637049101548198  1.0000
  C   C440      1.0  0.564925228959359  0.6465950757480823  0.2177047846371487  1.0000
  H   H637      1.0  0.5662125274083044  0.717931615947145  0.23098997043558356  1.0000
  H   H638      1.0  0.6109247094108943  0.7185248076063799  0.2569260834341558  1.0000
  H   H639      1.0  0.5685300814345027  0.6942871161294246  0.2736439685156231  1.0000
  H   H640      1.0  0.6510188034912221  0.6622742395953822  0.2625620944115077  1.0000
  H   H641      1.0  0.6084471311854847  0.6381150551581094  0.2786259376544207  1.0000
  H   H642      1.0  0.6359427121254295  0.6218625032127818  0.23946657646916125  1.0000
  H   H643      1.0  0.6487613737260807  0.6952615712577737  0.20401816615328827  1.0000
  H   H644      1.0  0.6046430042858897  0.6951659392966857  0.17707810022563586  1.0000
  H   H645      1.0  0.6338738756623185  0.6545962154658174  0.18116089390930767  1.0000
  H   H646      1.0  0.5741368161281646  0.6216371895102101  0.2027124498921673  1.0000
  H   H647      1.0  0.5450108847852114  0.6621712927967305  0.1993133586479523  1.0000
  H   H648      1.0  0.5468266654993122  0.6384237946561145  0.24173630018209535  1.0000
  N   N39       1.0  0.736303364293349  0.9179357106734282  0.07107013723930722  1.0000
  C   C441      1.0  0.7720825066234117  0.9407099597296587  0.06962224616292745  1.0000
  C   C442      1.0  0.7391705121974982  0.8925530959883379  0.10210243935523522  1.0000
  C   C443      1.0  0.7326474542137559  0.897279288023105  0.03643916512334977  1.0000
  C   C444      1.0  0.7011525954488208  0.9412910968266257  0.07616054651415394  1.0000
  H   H649      1.0  0.799307054497105  0.92408889530301  0.06590293547219384  1.0000
  H   H650      1.0  0.775975444134787  0.9565952508542319  0.0953508345726699  1.0000
  H   H651      1.0  0.7707977386880057  0.960270233017733  0.04654287218721165  1.0000
  H   H652      1.0  0.7649300829577743  0.8741698175152953  0.09893872413034122  1.0000
  H   H653      1.0  0.7429368857097101  0.9071453559187626  0.1286159895480503  1.0000
  H   H654      1.0  0.712545191784521  0.875084271802696  0.10406672909033388  1.0000
  H   H655      1.0  0.7062563474056928  0.8794189371489518  0.03666278150329827  1.0000
  H   H656      1.0  0.7587590474829623  0.8794006385224606  0.03169563264221442  1.0000
  H   H657      1.0  0.7301530307042281  0.915627791390156  0.012475361965310627  1.0000
  H   H658      1.0  0.6734667926287261  0.9251817824378017  0.07613195489464886  1.0000
  H   H659      1.0  0.6987711660297254  0.9615094990352574  0.05389288760802757  1.0000
  H   H660      1.0  0.7026084996686086  0.956587226657154  0.10245713134164092  1.0000
  N   N40       1.0  0.8231003108496007  0.06836749918197249  0.522115170393674  1.0000
  C   C445      1.0  0.8316157470699337  0.10757426057314223  0.5230899483636611  1.0000
  C   C446      1.0  0.7812751703654113  0.062291595548794154  0.5319323597596834  1.0000
  C   C447      1.0  0.848960977794622  0.049509602775554384  0.5485055664342606  1.0000
  C   C448      1.0  0.8305632560348779  0.05398483337905513  0.4848747258518449  1.0000
  H   H661      1.0  0.8630437484458227  0.11304836383783434  0.5160839872738705  1.0000
  H   H662      1.0  0.8262366312342349  0.11940436219325301  0.5508279844512843  1.0000
  H   H663      1.0  0.8129029077914369  0.12270593208344716  0.5033171781788944  1.0000
  H   H664      1.0  0.760989789308239  0.07573386087794742  0.5121892544051628  1.0000
  H   H665      1.0  0.7739421978775355  0.03292353626344746  0.5313006202132523  1.0000
  H   H666      1.0  0.7743437752608229  0.07291761207074021  0.5597974818737538  1.0000
  H   H667      1.0  0.8436154078303009  0.019817084020462783  0.5483506055827914  1.0000
  H   H668      1.0  0.8442265372169586  0.05971414557965371  0.5769230919186578  1.0000
  H   H669      1.0  0.8807269630410851  0.05354628753092783  0.5418104094308407  1.0000
  H   H670      1.0  0.8249666755178938  0.024341238333572823  0.48328359776348206  1.0000
  H   H671      1.0  0.8615962309110404  0.05834609025238979  0.47631991943005275  1.0000
  H   H672      1.0  0.8111363759289094  0.06713269041970804  0.4642589710044802  1.0000
  N   N41       1.0  0.9905362092045513  0.7198761925962636  0.09857000079265772  1.0000
  C   C449      1.0  0.9831319423176136  0.7587154096429503  0.09198679457626652  1.0000
  C   C450      1.0  0.03271990080014908  0.7141782543783233  0.10740818339030783  1.0000
  C   C451      1.0  0.9805743944675247  0.6989053496397426  0.06528420812553118  1.0000
  C   C452      1.0  0.9656623469617585  0.7077759837951808  0.12947779138730323  1.0000
  H   H673      1.0  0.9916302375482565  0.7756330089245937  0.11598344039503829  1.0000
  H   H674      1.0  0.9512772340259784  0.7639982824155896  0.08667281711174998  1.0000
  H   H675      1.0  0.9998664358753953  0.7685929012394027  0.0677377533109356  1.0000
  H   H676      1.0  0.039560400449957456  0.6849980943090137  0.11167144338054413  1.0000
  H   H677      1.0  0.052175405541081465  0.7233712885702924  0.08463149551501155  1.0000
  H   H678      1.0  0.04140770613414402  0.7292216201291041  0.13258828186014998  1.0000
  H   H679      1.0  0.9849786906956434  0.66939556832954  0.06957171890323167  1.0000
  H   H680      1.0  0.9998562134350173  0.7065103582821085  0.04180113779930905  1.0000
  H   H681      1.0  0.9493819774594182  0.703548876248369  0.05679618731953522  1.0000
  H   H682      1.0  0.9706857747351125  0.6786771960848631  0.1356258330994589  1.0000
  H   H683      1.0  0.933606044603479  0.7114872050310971  0.12348905670508517  1.0000
  H   H684      1.0  0.9718290255409745  0.7235683154841297  0.15489494809719423  1.0000
  N   N42       1.0  0.1649051242149755  0.13279095565914675  0.234129656320109  1.0000
  C   C453      1.0  0.1655583500992781  0.10575752607958555  0.2638368245414361  1.0000
  C   C454      1.0  0.13422196580665147  0.16035215214469856  0.24203297124702305  1.0000
  C   C455      1.0  0.15581462317350625  0.11458275376608971  0.19897139558858246  1.0000
  C   C456      1.0  0.20387004626146776  0.15049180141821725  0.23173692638197313  1.0000
  H   H685      1.0  0.1706289062300803  0.11869466647432379  0.29103265030667813  1.0000
  H   H686      1.0  0.1895109717017196  0.0853345127649201  0.25973003076325385  1.0000
  H   H687      1.0  0.13711674626981374  0.09090500414654423  0.265469984284475  1.0000
  H   H688      1.0  0.1332141549771526  0.18157759806271712  0.22054461448586965  1.0000
  H   H689      1.0  0.1044540254383437  0.14792671325395287  0.24319586239034738  1.0000
  H   H690      1.0  0.13935708471091246  0.17409969905626071  0.26885597674738093  1.0000
  H   H691      1.0  0.15432205577620728  0.13420007305821607  0.17593211240426615  1.0000
  H   H692      1.0  0.1266647122152016  0.10071377225118483  0.20005206565079134  1.0000
  H   H693      1.0  0.17848027791201693  0.09377396429930161  0.19189943235877394  1.0000
  H   H694      1.0  0.20462451875197596  0.17072406162773196  0.2092674741413417  1.0000
  H   H695      1.0  0.22789563614930763  0.13038432851727458  0.22663202374069577  1.0000
  H   H696      1.0  0.21111688871489176  0.164990018642091  0.2576600975083218  1.0000
  N   N43       1.0  0.3121817153094075  0.6154598499062157  0.06570045631941317  1.0000
  C   C457      1.0  0.3284802498821199  0.5862372240384105  0.088748971797771  1.0000
  C   C458      1.0  0.2884213859270112  0.5994297387153811  0.035849971051378215  1.0000
  C   C459      1.0  0.344911343672501  0.6365665710698132  0.049825165618692324  1.0000
  C   C460      1.0  0.2870309093128251  0.6395638030493713  0.08842285358504834  1.0000
  H   H697      1.0  0.3473060089520119  0.5972513570532885  0.11115435829682285  1.0000
  H   H698      1.0  0.3473755126426898  0.5673748831171077  0.07245055130377764  1.0000
  H   H699      1.0  0.30453234935388607  0.5699930555603688  0.10146499195138918  1.0000
  H   H700      1.0  0.27540223031464395  0.6205904733621408  0.017932712063613465  1.0000
  H   H701      1.0  0.3066551628973344  0.5812049151558777  0.01813022642462858  1.0000
  H   H702      1.0  0.26364894223877117  0.5830326060711768  0.046838147938391694  1.0000
  H   H703      1.0  0.33381146069228773  0.6587850555135746  0.032142918413306854  1.0000
  H   H704      1.0  0.36471145018885043  0.6191348924944197  0.03279115174809055  1.0000
  H   H705      1.0  0.3635001020787507  0.6489576651089095  0.0716330571976922  1.0000
  H   H706      1.0  0.2741845727318568  0.6619588576666989  0.07199355176384571  1.0000
  H   H707      1.0  0.3041061321295928  0.6518503009592294  0.11136843583096594  1.0000
  H   H708      1.0  0.2620057466210419  0.6245547087581268  0.10083986749430811  1.0000
  N   N44       1.0  0.45486883221600327  0.8658233542664342  0.5446068549391341  1.0000
  C   C461      1.0  0.4853502351390902  0.8557289689852288  0.571674694100863  1.0000
  C   C462      1.0  0.41655567372763075  0.8708430006840674  0.5635168877620885  1.0000
  C   C463      1.0  0.4513042741948089  0.8366619743858873  0.5169549560154172  1.0000
  C   C464      1.0  0.4662807952008447  0.8998440010414677  0.5263379059902622  1.0000
  H   H709      1.0  0.4774634115794663  0.8303214184282534  0.5861831853145001  1.0000
  H   H710      1.0  0.48934084022038216  0.8772309895157298  0.5927565816833064  1.0000
  H   H711      1.0  0.5145176393063619  0.851156160022844  0.558325360973734  1.0000
  H   H712      1.0  0.41818300926950713  0.8926074934247051  0.584652145622832  1.0000
  H   H713      1.0  0.3927762387573857  0.8783981300108478  0.5439404812907498  1.0000
  H   H714      1.0  0.4072835462007711  0.8455260034481598  0.5775976068008533  1.0000
  H   H715      1.0  0.42870609731899506  0.8433653877884647  0.4959457640489928  1.0000
  H   H716      1.0  0.44265517504233504  0.8105981253406267  0.5298743485762211  1.0000
  H   H717      1.0  0.4797973198057832  0.8319896931610536  0.5023307979658266  1.0000
  H   H718      1.0  0.4691423753397925  0.9225605323669135  0.5462987402212924  1.0000
  H   H719      1.0  0.4440852859166722  0.908222135459284  0.5055273538304932  1.0000
  H   H720      1.0  0.49517302917099565  0.8968649458476122  0.5119664509751406  1.0000
  N   N45       1.0  0.8272141725055135  0.6052637103043038  0.009454246357020635  1.0000
  C   C465      1.0  0.8073292853307217  0.6233174176430526  0.9784450114465704  1.0000
  C   C466      1.0  0.8574731131320773  0.5798573257398769  0.9952315030160277  1.0000
  C   C467      1.0  0.7978636769567256  0.585045756143028  0.031227947464256722  1.0000
  C   C468      1.0  0.8463502109095353  0.6327615241794087  0.032911809966805095  1.0000
  H   H721      1.0  0.7926484337106816  0.6033690580877168  0.9601214759167802  1.0000
  H   H722      1.0  0.8288025697716679  0.6386405614362551  0.9613952407419895  1.0000
  H   H723      1.0  0.7843383598528976  0.6427935218496242  0.988157709691921  1.0000
  H   H724      1.0  0.8729442769404264  0.5655933320568026  0.017870160119953793  1.0000
  H   H725      1.0  0.8441445641571135  0.5590314173063882  0.9770569375051174  1.0000
  H   H726      1.0  0.8803474372754133  0.5939674104082513  0.9788646129824699  1.0000
  H   H727      1.0  0.8120013702809441  0.5706749529396925  0.05456589908507237  1.0000
  H   H728      1.0  0.7828594740220006  0.5640080753619782  0.014429807960647079  1.0000
  H   H729      1.0  0.7745397109453995  0.6032973950936515  0.04258202954697454  1.0000
  H   H730      1.0  0.8613838931782808  0.6200693360070658  0.056717010766401454  1.0000
  H   H731      1.0  0.8244690497284198  0.6527570783962641  0.04374944034123085  1.0000
  H   H732      1.0  0.8690733833703854  0.648070800472307  0.017358419017870386  1.0000
  N   N46       1.0  0.9162863326788976  0.0009407528404705712  0.21011598096288275  1.0000
  C   C469      1.0  0.8765214663438703  0.012561558398564099  0.1981279045876989  1.0000
  C   C470      1.0  0.9157000881315107  0.9623031000756522  0.2201127488748118  1.0000
  C   C471      1.0  0.9284816953249586  0.02267838342796913  0.2422213906599835  1.0000
  C   C472      1.0  0.9445869743063658  0.006250479989657665  0.17985307478532997  1.0000
  H   H733      1.0  0.8543878774715727  0.009790797326171496  0.22048865093142433  1.0000
  H   H734      1.0  0.8662085513220982  0.9962002939887173  0.17426493185433922  1.0000
  H   H735      1.0  0.8763567317304324  0.04137441491242355  0.1892756757051457  1.0000
  H   H736      1.0  0.9453448404208135  0.9527226799864439  0.22905718171013723  1.0000
  H   H737      1.0  0.8947995274270023  0.9573620113715862  0.24306348089949736  1.0000
  H   H738      1.0  0.9065391882113892  0.9451302914729368  0.19649201511789904  1.0000
  H   H739      1.0  0.9582677931757348  0.014373250747359734  0.25210581599369464  1.0000
  H   H740      1.0  0.9075535016413505  0.01950431770767369  0.26550726409447156  1.0000
  H   H741      1.0  0.9300219930548057  0.051933590741812585  0.23549426957013253  1.0000
  H   H742      1.0  0.9751598865599612  0.9984177832822703  0.1878577138969999  1.0000
  H   H743      1.0  0.9451456189636652  0.035044754259999644  0.1715277035843017  1.0000
  H   H744      1.0  0.9361870386124475  0.9903084162880067  0.1550816469138947  1.0000
  N   N47       1.0  0.34130464136096683  0.4204962742058466  0.18733725982645777  1.0000
  C   C473      1.0  0.37496548779107775  0.4444837782454995  0.19561942182238523  1.0000
  C   C474      1.0  0.34608058449738  0.38614710876994096  0.2074003033299705  1.0000
  C   C475      1.0  0.34021479626280565  0.4129891436300131  0.1475351502553035  1.0000
  C   C476      1.0  0.3040728805622075  0.43834966162209354  0.1988404146081344  1.0000
  H   H745      1.0  0.3772225299142284  0.45009235708623907  0.22551000147990186  1.0000
  H   H746      1.0  0.371946621250693  0.47101600016308204  0.18157270807488457  1.0000
  H   H747      1.0  0.403495156336408  0.4323140497818232  0.18669077615916052  1.0000
  H   H748      1.0  0.3214986758409286  0.36706168327869093  0.20148703079867025  1.0000
  H   H749      1.0  0.3741683534002327  0.37237533123547883  0.19964869438700017  1.0000
  H   H750      1.0  0.34668147188482373  0.39070774874242126  0.2375593421831177  1.0000
  H   H751      1.0  0.36779492540112435  0.3992077852314285  0.13812734639109459  1.0000
  H   H752      1.0  0.3372379362837603  0.4383958304774304  0.13151785623619872  1.0000
  H   H753      1.0  0.31511044270077304  0.3950457951514253  0.14022155368412292  1.0000
  H   H754      1.0  0.27800584643610327  0.4210707711857662  0.19297353192645295  1.0000
  H   H755      1.0  0.2997756359719489  0.46465194046571184  0.184603057559114  1.0000
  H   H756      1.0  0.30405013954436194  0.44436030777617097  0.22878087275233572  1.0000
  N   N48       1.0  0.8530915803419628  0.13063934221926593  0.7479928673763017  1.0000
  C   C477      1.0  0.8135102773440837  0.14511497972299225  0.7573291828653  1.0000
  C   C478      1.0  0.859154684745742  0.09542406076097443  0.7662378731986579  1.0000
  C   C479      1.0  0.8835480611931126  0.15641720469306686  0.7604252095654562  1.0000
  C   C480      1.0  0.8562494577080076  0.1256968124459196  0.7078892733405541  1.0000
  H   H757      1.0  0.808483769552879  0.17217484317523038  0.7448417507919889  1.0000
  H   H758      1.0  0.8096133830501594  0.14823588015019087  0.787484141227019  1.0000
  H   H759      1.0  0.7897190470955845  0.12695124264841745  0.7473246507787381  1.0000
  H   H760      1.0  0.8887735147527984  0.08371185598463815  0.7596237886963616  1.0000
  H   H761      1.0  0.8570106068856074  0.09801382330953046  0.7965785965891014  1.0000
  H   H762      1.0  0.8365510464091404  0.0753054686125545  0.7577088410339528  1.0000
  H   H763      1.0  0.9138139426291381  0.14638981465310152  0.7536691741218672  1.0000
  H   H764      1.0  0.8820569753118697  0.16078885867335624  0.7905641950396044  1.0000
  H   H765      1.0  0.8798137450120938  0.18324395905202173  0.747089558955991  1.0000
  H   H766      1.0  0.8516317638168263  0.15167847839942922  0.6932730987763145  1.0000
  H   H767      1.0  0.8339349542298418  0.10623683413135354  0.6974790866511353  1.0000
  H   H768      1.0  0.8859566469476068  0.11520542134014145  0.6998795686514501  1.0000
