data_image0
_chemical_formula_structural       FeS2FeS2FeSFeS3FeS2FeS2FeSFeS3FeS2FeS2FeSFeS3FeS2FeS2FeSFeS3FeS2FeS2FeSFeS3FeS2FeS2FeSFeS3FeS2FeS2FeSFeS3FeS2FeS2FeSFeS3FeS2FeS2FeSFeS3FeS2FeS2FeSFeS3FeS2FeS2FeSFeS3FeS2FeS2FeSFeS3C6H4C6H4C6H4C6H4C6H4C6H4C6H4C6H4C6H4C6H4C6H4C6H4C6H4C6H4C6H4C6H4C6H4C6H4C6H4C6H4C6H4C6H4C6H4C6H4FeS2FeS2FeSFeS3FeS2FeS2FeSFeS3FeS2FeS2FeSFeS3FeS2FeS2FeSFeS3FeS2FeS2FeSFeS3FeS2FeS2FeSFeS3FeS2FeS2FeSFeS3FeS2FeS2FeSFeS3FeS2FeS2FeSFeS3FeS2FeS2FeSFeS3FeS2FeS2FeSFeS3FeS2FeS2FeSFeS3C6H4C6H4C6H4C6H4C6H4C6H4C6H4C6H4C6H4C6H4C6H4C6H4C6H4C6H4C6H4C6H4C6H4C6H4C6H4C6H4C6H4C6H4C6H4C6H4NC4H12NC4H12NC4H12NC4H12NC4H12NC4H12NC4H12NC4H12NC4H12NC4H12NC4H12NC4H12NC4H12NC4H12NC4H12NC4H12NC4H12NC4H12NC4H12NC4H12NC4H12NC4H12NC4H12NC4H12NC4H12NC4H12NC4H12NC4H12NC4H12NC4H12NC4H12NC4H12NC4H12NC4H12NC4H12NC4H12NC4H12NC4H12NC4H12NC4H12NC4H12NC4H12NC4H12NC4H12NC4H12NC4H12NC4H12NC4H12
_chemical_formula_sum              "Fe96 S192 C480 H768 N48"
_cell_length_a       26.60113746597404
_cell_length_b       36.839896181765575
_cell_length_c       40.75477412187226
_cell_angle_alpha    90.05788872810402
_cell_angle_beta     90.41212527033815
_cell_angle_gamma    89.81816361416959

_space_group_name_H-M_alt    "P 1"
_space_group_IT_number       1

loop_
  _space_group_symop_operation_xyz
  'x, y, z'

loop_
  _atom_site_type_symbol
  _atom_site_label
  _atom_site_symmetry_multiplicity
  _atom_site_fract_x
  _atom_site_fract_y
  _atom_site_fract_z
  _atom_site_occupancy
  Fe  Fe1       1.0  0.5816829441183331  0.5131981132086254  0.0005499172552529963  1.0000
  S   S1        1.0  0.6630401507446192  0.5100627086816578  0.9870616748005564  1.0000
  S   S2        1.0  0.5267647704664475  0.535854874357195  0.9640201097562048  1.0000
  Fe  Fe2       1.0  0.5969472315239446  0.4727542886283463  0.06427067759766603  1.0000
  S   S3        1.0  0.6791953874702199  0.4644692211561623  0.0557749306372084  1.0000
  S   S4        1.0  0.5628785483731612  0.45131772020027616  0.11034988007797808  1.0000
  Fe  Fe3       1.0  0.6774117595328905  0.5226464522322841  0.040063307396870806  1.0000
  S   S5        1.0  0.7359218473408152  0.5613700696025784  0.05860124391273569  1.0000
  Fe  Fe4       1.0  0.6568877607744886  0.4524804281736685  0.003763236917149859  1.0000
  S   S6        1.0  0.6937192302065405  0.41000501670661915  0.9725957675608016  1.0000
  S   S7        1.0  0.5962993232477236  0.531996033994818  0.05212052254010513  1.0000
  S   S8        1.0  0.5743195696336231  0.45446024184457834  0.013914469323619505  1.0000
  Fe  Fe5       1.0  0.5830529611499355  0.22966011533681344  0.885231589821157  1.0000
  S   S9        1.0  0.638495945611601  0.27144483489929616  0.8693979939664315  1.0000
  S   S10       1.0  0.5931712941101837  0.20623864041251014  0.9356451510990585  1.0000
  Fe  Fe6       1.0  0.5275630030735233  0.23047442119463526  0.8197584039702701  1.0000
  S   S11       1.0  0.5783110636433374  0.2725322447484012  0.7982198222298906  1.0000
  S   S12       1.0  0.46905841624363986  0.20362100422874932  0.7877643328256262  1.0000
  Fe  Fe7       1.0  0.6401329101442288  0.24062171206741517  0.822215963148909  1.0000
  S   S13       1.0  0.712227615212464  0.22696861895048734  0.7971287054294945  1.0000
  Fe  Fe8       1.0  0.5717177348923886  0.2996249521445941  0.8473099044419957  1.0000
  S   S14       1.0  0.5598888463196521  0.3596110493091074  0.8531402150005228  1.0000
  S   S15       1.0  0.590339850453079  0.19605302974322542  0.8396460619137621  1.0000
  S   S16       1.0  0.5153448857824562  0.26024524283470224  0.8672972706834541  1.0000
  Fe  Fe9       1.0  0.5644256672208691  0.5483477576021588  0.6249530890322357  1.0000
  S   S17       1.0  0.5878647612341548  0.5314755079391102  0.5745388446302994  1.0000
  S   S18       1.0  0.5891295528945325  0.5233214365902464  0.6722119339514664  1.0000
  Fe  Fe10      1.0  0.5985339814995757  0.056688735633217746  0.5556713370246064  1.0000
  S   S19       1.0  0.6405493828809903  0.004317796684679908  0.5500016723759443  1.0000
  S   S20       1.0  0.5533926489252379  0.07605340680951721  0.5126954155256603  1.0000
  Fe  Fe11      1.0  0.5070098767954367  0.5409749944094775  0.5613270564452492  1.0000
  S   S21       1.0  0.462371440470657  0.5021024526067587  0.530634239475583  1.0000
  Fe  Fe12      1.0  0.703523704555578  0.03380430544638635  0.5747151083989385  1.0000
  S   S22       1.0  0.7823246758878655  0.02685196307906135  0.5574491740884745  1.0000
  S   S23       1.0  0.4826193486313413  0.5526036647407112  0.6127432066761642  1.0000
  S   S24       1.0  0.664101409594692  0.08761933468532924  0.5758103535411356  1.0000
  Fe  Fe13      1.0  0.8400408919650942  0.059690996864688595  0.8462927249384082  1.0000
  S   S25       1.0  0.8297788047198962  0.06505064758741574  0.7919512870587683  1.0000
  S   S26       1.0  0.8193574336904322  0.10512221234407276  0.8801455823423865  1.0000
  Fe  Fe14      1.0  0.8853587154373088  0.4619256781135432  0.790855248501641  1.0000
  S   S27       1.0  0.9257488990499737  0.49742728162528316  0.755043418369894  1.0000
  S   S28       1.0  0.8993381785384411  0.40212358901984485  0.7977480213859116  1.0000
  Fe  Fe15      1.0  0.9024997136766761  0.03457891337477781  0.7897309098763273  1.0000
  S   S29       1.0  0.9601879541672917  0.05331144099399876  0.7538531264280106  1.0000
  Fe  Fe16      1.0  0.8497213286121408  0.5221878990807263  0.7452679199099297  1.0000
  S   S30       1.0  0.8234707397213622  0.5388218916579551  0.6944185819938181  1.0000
  S   S31       1.0  0.9156927095534405  0.03279285619860306  0.8443008276367063  1.0000
  S   S32       1.0  0.8087923139791878  0.48316432597329206  0.7780002713606794  1.0000
  Fe  Fe17      1.0  0.008227632047108413  0.5209158094931122  0.09043651347824211  1.0000
  S   S33       1.0  0.013947087445387307  0.5091245437176545  0.14423627677036732  1.0000
  S   S34       1.0  0.9522603297256592  0.4904997114152745  0.05942385731780542  1.0000
  Fe  Fe18      1.0  0.02958990111440274  0.17256352852518062  0.0173116016095185  1.0000
  S   S35       1.0  0.060036616917331864  0.15832011344497787  0.06684613756324298  1.0000
  S   S36       1.0  0.05254533841360409  0.22540409457385674  0.994589561523724  1.0000
  Fe  Fe19      1.0  0.09653337555025754  0.5045538020473194  0.13533371535210725  1.0000
  S   S37       1.0  0.13757939970672184  0.45770253518583365  0.1583782460484171  1.0000
  Fe  Fe20      1.0  0.9830102990405482  0.1380092620571433  0.07742834732029347  1.0000
  S   S38       1.0  0.9547607214902456  0.14813747959702253  0.12818224826477675  1.0000
  S   S39       1.0  0.08996533767537063  0.5113093799127434  0.08088329521538906  1.0000
  S   S40       1.0  0.9502221797768716  0.1578001595072332  0.029757041456378364  1.0000
  Fe  Fe21      1.0  0.6985714008835712  0.10441569387856164  0.19502667915528127  1.0000
  S   S41       1.0  0.7293685890403482  0.14008774517256956  0.23493725032234455  1.0000
  S   S42       1.0  0.7333970061587289  0.09285831097108799  0.1462327698894752  1.0000
  Fe  Fe22      1.0  0.6841950317247554  0.5849269071166262  0.34777932080599205  1.0000
  S   S43       1.0  0.7191449456346642  0.628909476051229  0.37792802844613793  1.0000
  S   S44       1.0  0.6073375237595495  0.565712415659454  0.36215394552187985  1.0000
  Fe  Fe23      1.0  0.6503632882715701  0.16091738629944757  0.23835601028019346  1.0000
  S   S45       1.0  0.6379618047880792  0.22094832759778973  0.24228406237829006  1.0000
  Fe  Fe24      1.0  0.7906096193624641  0.5977805714454606  0.37147703425257084  1.0000
  S   S46       1.0  0.8420177487243412  0.5955348209977788  0.41515612323086176  1.0000
  S   S47       1.0  0.6216294344975943  0.12911466887031825  0.1953097475470318  1.0000
  S   S48       1.0  0.7541836760696442  0.5508948290012531  0.3455583481171303  1.0000
  Fe  Fe25      1.0  0.9387242705289146  0.19031152657719963  0.516136270593301  1.0000
  S   S49       1.0  0.9881366233998573  0.14643611076413218  0.4962675821133968  1.0000
  S   S50       1.0  0.8871421713799734  0.18015520610243824  0.5586798756352738  1.0000
  Fe  Fe26      1.0  0.9829148971161049  0.24738883150985916  0.47082320867867805  1.0000
  S   S51       1.0  0.03671232755625109  0.20818289059397735  0.4475363488918917  1.0000
  S   S52       1.0  0.9764927836784251  0.30518650194972524  0.45399082896317294  1.0000
  Fe  Fe27      1.0  0.9706253144841915  0.17049720857985065  0.44701985648786713  1.0000
  S   S53       1.0  0.9480869880368625  0.13704836000554227  0.4031895430019338  1.0000
  Fe  Fe28      1.0  0.04854133445750941  0.1882338766433217  0.4990950576290612  1.0000
  S   S54       1.0  0.11982472852993035  0.17186787675252738  0.5245424167301701  1.0000
  S   S55       1.0  0.915524910561145  0.21108224187362676  0.4666273091358552  1.0000
  S   S56       1.0  0.000647959483300431  0.23087016493348894  0.522502035044854  1.0000
  Fe  Fe29      1.0  0.20044978413583298  0.528575748944501  0.4557985064149414  1.0000
  S   S57       1.0  0.16185784866528108  0.4803525979032442  0.4339551843774408  1.0000
  S   S58       1.0  0.277938960872959  0.5430581227924973  0.4392527706801877  1.0000
  Fe  Fe30      1.0  0.1130450411390966  0.5475846822200338  0.49964024937587387  1.0000
  S   S59       1.0  0.06604425344256204  0.5008659989216265  0.4817201537773804  1.0000
  S   S60       1.0  0.09012148670546674  0.5857896182487726  0.5402352210909567  1.0000
  Fe  Fe31      1.0  0.13757193033938142  0.46846231261492294  0.48532156572358237  1.0000
  S   S61       1.0  0.14598827690916472  0.41148329394796185  0.505027336112848  1.0000
  Fe  Fe32      1.0  0.09425312426210697  0.5166574569807556  0.4317585605499366  1.0000
  S   S62       1.0  0.04763485258678424  0.5167579855008868  0.3854084619601301  1.0000
  S   S63       1.0  0.182520534792186  0.5138041079933744  0.5075852264685793  1.0000
  S   S64       1.0  0.1350433980694071  0.5663376246077613  0.4493743816579816  1.0000
  Fe  Fe33      1.0  0.3194140281794322  0.3396722612970185  0.06532031287744755  1.0000
  S   S65       1.0  0.366410109846844  0.31264895739362  0.026703751404749454  1.0000
  S   S66       1.0  0.29574227242729256  0.39747203035090833  0.057345085681774766  1.0000
  Fe  Fe34      1.0  0.3236129648153488  0.27452854367087176  0.11059083671394343  1.0000
  S   S67       1.0  0.3700354995298005  0.24194725054774197  0.07588844239670278  1.0000
  S   S68       1.0  0.31025095757255217  0.25142817419698466  0.1604611404662737  1.0000
  Fe  Fe35      1.0  0.41303784566275764  0.2931252907456579  0.06915900820349163  1.0000
  S   S69       1.0  0.4965373654730739  0.29226036534191197  0.07464686088300554  1.0000
  Fe  Fe36      1.0  0.31813180293007176  0.26432632787641797  0.03723557888026252  1.0000
  S   S70       1.0  0.28942099123000287  0.22623675966849027  0.9984743463414633  1.0000
  S   S71       1.0  0.3706358253019322  0.3244854469549017  0.1068513764105683  1.0000
  S   S72       1.0  0.2671636639748994  0.29268463395789857  0.07281226125322493  1.0000
  Fe  Fe37      1.0  0.4800374599254083  0.39706972704456167  0.30342364895788293  1.0000
  S   S73       1.0  0.4800987212026761  0.3618905645971795  0.3482184802115782  1.0000
  S   S74       1.0  0.5494246638500923  0.42374739282274215  0.28443692741461374  1.0000
  Fe  Fe38      1.0  0.37188056281208404  0.38248112933270645  0.28704911620648166  1.0000
  S   S75       1.0  0.36008053714903737  0.3466138069872454  0.33048148198082883  1.0000
  S   S76       1.0  0.314716433694167  0.39215610845147786  0.24763042402050836  1.0000
  Fe  Fe39      1.0  0.40554687451768107  0.38764054553489624  0.3582337103072662  1.0000
  S   S77       1.0  0.3871755791697628  0.39440459357541224  0.41148361709422465  1.0000
  Fe  Fe40      1.0  0.4350285186248974  0.3233189360606098  0.31770251522336057  1.0000
  S   S78       1.0  0.4448144009566419  0.26332607352531356  0.3220713838094817  1.0000
  S   S79       1.0  0.40894702181594567  0.42682668073498437  0.315984599163009  1.0000
  S   S80       1.0  0.4431384768221129  0.35534906859008847  0.27147896138540184  1.0000
  Fe  Fe41      1.0  0.4043636417693443  0.23174347144811783  0.5902858568327448  1.0000
  S   S81       1.0  0.35324697813237793  0.2802444115593406  0.5902717918889541  1.0000
  S   S82       1.0  0.3978220157951147  0.18940089696776538  0.6293567120385587  1.0000
  Fe  Fe42      1.0  0.46691153827684706  0.25953557881297595  0.5346427731070359  1.0000
  S   S83       1.0  0.4229916662657575  0.3110697140043835  0.5295905950264292  1.0000
  S   S84       1.0  0.5282853358762857  0.24523998498209887  0.4997775314072384  1.0000
  Fe  Fe43      1.0  0.4242277768330562  0.3117328132476817  0.5844681428517101  1.0000
  S   S85       1.0  0.4362868438979737  0.3605679012913503  0.6159305619588714  1.0000
  Fe  Fe44      1.0  0.35570629151598027  0.27551956668290983  0.5354758444333285  1.0000
  S   S86       1.0  0.28889511330899076  0.2884854305759745  0.5035964926553915  1.0000
  S   S87       1.0  0.4755624166252727  0.2636503969679402  0.5891545086038132  1.0000
  S   S88       1.0  0.3994636030077509  0.22322483752093006  0.5358951294630571  1.0000
  Fe  Fe45      1.0  0.19741362900654183  0.26582918184585713  0.7613618292999794  1.0000
  S   S89       1.0  0.17804388922453093  0.2066342607642865  0.7592370319881158  1.0000
  S   S90       1.0  0.26385141880186946  0.2898917161865475  0.787572782808234  1.0000
  Fe  Fe46      1.0  0.10239124866480179  0.28934797032392495  0.7254191286988587  1.0000
  S   S91       1.0  0.07401415932858312  0.23261984139535286  0.7203147576072464  1.0000
  S   S92       1.0  0.060690839207228134  0.3351594104284224  0.7014434225810562  1.0000
  Fe  Fe47      1.0  0.10046612238824291  0.22561010264247366  0.7722512384365632  1.0000
  S   S93       1.0  0.05342864962566885  0.19826045284252403  0.8102420193359633  1.0000
  Fe  Fe48      1.0  0.1535612442897831  0.2192825163094671  0.7076676350017992  1.0000
  S   S94       1.0  0.1671559734202736  0.1873020929469902  0.6621160879571044  1.0000
  S   S95       1.0  0.12169271222457644  0.2839375906599762  0.7787773808652585  1.0000
  S   S96       1.0  0.18033668022534877  0.27675936148804803  0.7084047665078327  1.0000
  C   C1        1.0  0.333989995109615  0.1870597823657117  0.6388533183647508  1.0000
  C   C2        1.0  0.31851927299706717  0.18561635689852646  0.6715803189433495  1.0000
  C   C3        1.0  0.2670851766423539  0.1861756270782218  0.6789669311957712  1.0000
  C   C4        1.0  0.23139816023002194  0.18672348377629422  0.6535638084654735  1.0000
  C   C5        1.0  0.2469956329801408  0.1875634499640293  0.6209360801670811  1.0000
  C   C6        1.0  0.2982842759381126  0.18839642647605848  0.6135724980940652  1.0000
  H   H1        1.0  0.34605935850037883  0.18489684565230283  0.6912217116168913  1.0000
  H   H2        1.0  0.25500568342212515  0.18548922323203287  0.7042453264423761  1.0000
  H   H3        1.0  0.21925636790666977  0.18820218838887848  0.6014490869977592  1.0000
  H   H4        1.0  0.31021346604384586  0.1896512491451347  0.5883047138434084  1.0000
  C   C7        1.0  0.30509677493757675  0.2888238218022128  0.18669637519348936  1.0000
  C   C8        1.0  0.3244498383806447  0.2873227425464749  0.21865387704991268  1.0000
  C   C9        1.0  0.32643098247175156  0.318959629552007  0.23780066758422638  1.0000
  C   C10       1.0  0.30771440149938445  0.35178732845611776  0.2253131806369696  1.0000
  C   C11       1.0  0.2862191744537182  0.3527461557932351  0.19393322479538067  1.0000
  C   C12       1.0  0.2856713502829015  0.32139882895912636  0.17449511739854384  1.0000
  H   H5        1.0  0.3392285096495378  0.26206483749233284  0.22826349041659033  1.0000
  H   H6        1.0  0.3425072514848949  0.317869261891435  0.2621857556521509  1.0000
  H   H7        1.0  0.2709914299237805  0.3778509685117491  0.184378538713873  1.0000
  H   H8        1.0  0.2701365765317002  0.322238606412172  0.15000124616109245  1.0000
  C   C13       1.0  0.3106719560508414  0.5024703931871418  0.4324371407952139  1.0000
  C   C14       1.0  0.3012327668506904  0.47217373248738725  0.4521029480163717  1.0000
  C   C15       1.0  0.3271907883953826  0.4396600594796288  0.4466271628572379  1.0000
  C   C16       1.0  0.3600045576240913  0.4366067554313108  0.4201375167192516  1.0000
  C   C17       1.0  0.3694379881906769  0.46677900903058167  0.4003497251154985  1.0000
  C   C18       1.0  0.34556741446627537  0.49998895064359755  0.406974614065177  1.0000
  H   H9        1.0  0.2740635136623144  0.4737597545983766  0.47166378606736303  1.0000
  H   H10       1.0  0.3207652303356621  0.416601645649531  0.4624058861749632  1.0000
  H   H11       1.0  0.395089549566358  0.4646089970297129  0.37999899835833156  1.0000
  H   H12       1.0  0.35263961761472234  0.5233462260282091  0.39162189325239016  1.0000
  C   C19       1.0  0.16681451606676218  0.20399097959881884  0.5179523433929515  1.0000
  C   C20       1.0  0.15650745730978216  0.23545465711892852  0.4999485365858122  1.0000
  C   C21       1.0  0.19422824284564624  0.2613745009904846  0.4952986588438984  1.0000
  C   C22       1.0  0.24209293046238242  0.25588660364395777  0.5088911058191882  1.0000
  C   C23       1.0  0.2522765112666112  0.22451289219600215  0.5270096071008805  1.0000
  C   C24       1.0  0.21476138559797844  0.19840009404442613  0.5312778408912898  1.0000
  H   H13       1.0  0.11957691681874597  0.23967853570168424  0.48942460312386277  1.0000
  H   H14       1.0  0.18617481944534373  0.28559448033876966  0.4812559559742522  1.0000
  H   H15       1.0  0.28915760480662506  0.22019373075433735  0.5374674280516971  1.0000
  H   H16       1.0  0.22290937318414195  0.1737544184030071  0.5447282992563526  1.0000
  C   C25       1.0  0.023874732662610754  0.3343803582317699  0.46823596835714715  1.0000
  C   C26       1.0  0.06427268969242189  0.3211557485232059  0.4868945263425795  1.0000
  C   C27       1.0  0.10174889144553717  0.3450127470882218  0.49803517868486447  1.0000
  C   C28       1.0  0.09856815927101636  0.38216132688734106  0.4909852379132026  1.0000
  C   C29       1.0  0.05866224711034773  0.3952398288058091  0.47185365717182925  1.0000
  C   C30       1.0  0.021398822591772948  0.37137485379998925  0.4604985434981275  1.0000
  H   H17       1.0  0.06660221677630217  0.2925680994566157  0.49251244985835924  1.0000
  H   H18       1.0  0.1335184046600588  0.3346478068355384  0.5116798644425289  1.0000
  H   H19       1.0  0.05634102187273293  0.4237131527157388  0.4657300427882689  1.0000
  H   H20       1.0  0.9903787150058847  0.3816489501620059  0.44584701074733174  1.0000
  C   C31       1.0  0.9822884070846616  0.0963226935532232  0.40203268126889136  1.0000
  C   C32       1.0  0.9691023802793054  0.06936956111231743  0.37934945558119043  1.0000
  C   C33       1.0  0.024109294498248387  0.6183844063807608  0.49732851355020313  1.0000
  C   C34       1.0  0.04078309977975403  0.6153474737895567  0.5297982091784232  1.0000
  C   C35       1.0  0.018931668111380473  0.6370337478413565  0.5541475110110388  1.0000
  C   C36       1.0  0.02230922285379222  0.09037479777744484  0.4238630329819195  1.0000
  H   H21       1.0  0.9384026588390644  0.0737908249151195  0.3622980368754451  1.0000
  H   H22       1.0  0.04124467952350907  0.6020431525712038  0.47840893772100274  1.0000
  H   H23       1.0  0.031722400339293744  0.6346279980770698  0.5793188119545561  1.0000
  H   H24       1.0  0.033595338028902466  0.11142725464224398  0.44079932526275845  1.0000
  C   C37       1.0  0.5859453231160275  0.23193189587701668  0.26642653731503524  1.0000
  C   C38       1.0  0.577688437786611  0.2681162306352584  0.27539426663974437  1.0000
  C   C39       1.0  0.5346204996739974  0.27773132504931897  0.2929812114209974  1.0000
  C   C40       1.0  0.5001566867916402  0.2510460610008238  0.30205241835922575  1.0000
  C   C41       1.0  0.508805826054851  0.21476143556102154  0.29367962343100645  1.0000
  C   C42       1.0  0.5514713976180311  0.20525740321337754  0.2755621945616784  1.0000
  H   H25       1.0  0.6043565383340438  0.2888070788240543  0.2684002279770377  1.0000
  H   H26       1.0  0.5282456089542297  0.3058166082192224  0.29949393855165773  1.0000
  H   H27       1.0  0.48186117346868845  0.19415029730712385  0.3003657591086219  1.0000
  H   H28       1.0  0.5568414054525251  0.17747588593162839  0.26795396670268795  1.0000
  C   C43       1.0  0.5903385520733763  0.5275011300869106  0.3391916324357892  1.0000
  C   C44       1.0  0.6232816811991231  0.5128872614428135  0.31606864261306816  1.0000
  C   C45       1.0  0.6101666707536142  0.4812460579435405  0.29892712908811525  1.0000
  C   C46       1.0  0.5643189279918934  0.46409538832116454  0.3050709366226315  1.0000
  C   C47       1.0  0.5310680267109573  0.47914840824446975  0.3278194027989107  1.0000
  C   C48       1.0  0.5438013606554138  0.5110884360274667  0.34456938759065875  1.0000
  H   H29       1.0  0.6591382934547169  0.5256234980154997  0.31159800978812513  1.0000
  H   H30       1.0  0.6359623989376191  0.46967787504205005  0.281328486837492  1.0000
  H   H31       1.0  0.4956822706602202  0.46614955568036054  0.3326380816915725  1.0000
  H   H32       1.0  0.5179349014936426  0.5227193567695928  0.3620328297221872  1.0000
  C   C49       1.0  0.8994390785391284  0.5746288723352604  0.4057495048033495  1.0000
  C   C50       1.0  0.9379272054974123  0.5742995036173166  0.42929156857450856  1.0000
  C   C51       1.0  0.9834258292696225  0.5566781654264487  0.4228481222370039  1.0000
  C   C52       1.0  0.9908141528890771  0.5394120567821431  0.3927608422763097  1.0000
  C   C53       1.0  0.9526597716542998  0.5401417302965689  0.3688667946060834  1.0000
  C   C54       1.0  0.9069020463601933  0.5578204164379574  0.37535495084736875  1.0000
  H   H33       1.0  0.9326837392022196  0.5874384117060614  0.45263074359905375  1.0000
  H   H34       1.0  0.012824327735773577  0.5563203144875178  0.4412186952314179  1.0000
  H   H35       1.0  0.9580264307160692  0.5265444005082652  0.345639305087081  1.0000
  H   H36       1.0  0.877226375126255  0.5579020080200663  0.35706221259239046  1.0000
  C   C55       1.0  0.1183781830410151  0.2265576572365311  0.9934053595148268  1.0000
  C   C56       1.0  0.14554993836582064  0.19495068592377535  0.9864161493950716  1.0000
  C   C57       1.0  0.19819227646719814  0.19541194881416524  0.9868030261172839  1.0000
  C   C58       1.0  0.22382273556885518  0.2272143155074439  0.9951989672848959  1.0000
  C   C59       1.0  0.19679339565109366  0.25902695739657167  0.0017127793490059329  1.0000
  C   C60       1.0  0.14403587799423745  0.25880978228218726  0.00037188124676146295  1.0000
  H   H37       1.0  0.12609372938341676  0.1700905024301766  0.980607373321333  1.0000
  H   H38       1.0  0.2190081365684103  0.17079094616367427  0.9816182066120097  1.0000
  H   H39       1.0  0.21653312098861455  0.28383069846354997  0.00763837180564364  1.0000
  H   H40       1.0  0.12312944828708039  0.2833222724441595  0.005706721022363359  1.0000
  C   C61       1.0  0.1841503255124246  0.44169824228872406  0.13178930285274193  1.0000
  C   C62       1.0  0.20294272213017805  0.4641900566006955  0.10716907240407858  1.0000
  C   C63       1.0  0.23755354798616501  0.45051492577069396  0.0844779628064325  1.0000
  C   C64       1.0  0.25328596516069285  0.41430269837855577  0.08629128774762185  1.0000
  C   C65       1.0  0.23507486241572154  0.3919436265208813  0.11114821966979793  1.0000
  C   C66       1.0  0.20073928818455603  0.40567393414728725  0.1340491031987492  1.0000
  H   H41       1.0  0.19100531131927934  0.4922361079251842  0.10564934057492459  1.0000
  H   H42       1.0  0.2518734919917034  0.46798713999912855  0.06537191126035369  1.0000
  H   H43       1.0  0.24689633281883427  0.36396650502411354  0.11229838877671638  1.0000
  H   H44       1.0  0.1862229542991342  0.3881839234837125  0.15306885788825375  1.0000
  C   C67       1.0  0.8920492258313898  0.13543746070814514  0.13258435911893973  1.0000
  C   C68       1.0  0.9198298921942658  0.6099081575549343  0.23213728287330682  1.0000
  C   C69       1.0  0.8746747679256789  0.5989400843706373  0.2465511633779336  1.0000
  C   C70       1.0  0.7937179906794395  0.11056521533986774  0.1411678733535835  1.0000
  C   C71       1.0  0.8149866842708047  0.11087814296188604  0.10985412961332641  1.0000
  C   C72       1.0  0.8642248180296246  0.12323377645578941  0.10554335459157405  1.0000
  H   H45       1.0  0.9391865068933707  0.6336544409527337  0.24136318000403367  1.0000
  H   H46       1.0  0.8591303021109266  0.6146516795016848  0.2662948598442788  1.0000
  H   H47       1.0  0.7936026999065992  0.10122030048256017  0.08897008381421423  1.0000
  H   H48       1.0  0.8807401851994209  0.12305610102959438  0.08138578292867682  1.0000
  C   C73       1.0  0.9852836494802945  0.09433008726957991  0.768481682771614  1.0000
  C   C74       1.0  0.025814833347968413  0.1106975209595654  0.7525614655402737  1.0000
  C   C75       1.0  0.04660350253565725  0.14295197466932633  0.7650532922680489  1.0000
  C   C76       1.0  0.027017804829328137  0.15865948259648716  0.7935744446101005  1.0000
  C   C77       1.0  0.9860062782648831  0.1425756589718857  0.8090416874926483  1.0000
  C   C78       1.0  0.9649838154199771  0.11064867957945236  0.7964372773133147  1.0000
  H   H49       1.0  0.04165108450797428  0.09817184728733784  0.730943218772964  1.0000
  H   H50       1.0  0.07840255197498615  0.15520300030039574  0.7530103689780919  1.0000
  H   H51       1.0  0.9701479298564042  0.1549540012605161  0.8305798565708925  1.0000
  H   H52       1.0  0.933025490103107  0.09877005853865488  0.8084374258728346  1.0000
  C   C79       1.0  0.9430062484153711  0.38326782407249954  0.7702829809176341  1.0000
  C   C80       1.0  0.95394233257054  0.4003633453794237  0.7405647698276374  1.0000
  C   C81       1.0  0.9896171390945525  0.3852537156097584  0.7192673275948847  1.0000
  C   C82       1.0  0.014342278057014378  0.3529073493947228  0.72755965057046  1.0000
  C   C83       1.0  0.002095257607150902  0.33509875429806146  0.7567434801701494  1.0000
  C   C84       1.0  0.9664180516246419  0.35021942074490753  0.778029291369034  1.0000
  H   H53       1.0  0.93470964894643  0.4250633410347696  0.7337629283119751  1.0000
  H   H54       1.0  0.9984195162936343  0.3988790509570051  0.6965261302921876  1.0000
  H   H55       1.0  0.02019712758672343  0.3097387970595761  0.7629969910696471  1.0000
  H   H56       1.0  0.9578232261369934  0.3366674090716543  0.8008179197980536  1.0000
  C   C85       1.0  0.5493858922350905  0.12326538616096128  0.5094096981358887  1.0000
  C   C86       1.0  0.556575630022737  0.14556974487613847  0.5368451475501855  1.0000
  C   C87       1.0  0.5499534060101628  0.18323259043180287  0.5339634865429299  1.0000
  C   C88       1.0  0.5383033328047125  0.19855968844124852  0.5034041680318161  1.0000
  C   C89       1.0  0.5326581478216704  0.17630723013476535  0.47585238097941357  1.0000
  C   C90       1.0  0.5373436669141385  0.13862445027709366  0.4789872990359266  1.0000
  H   H57       1.0  0.5661969358055149  0.13383659555519628  0.5603832536112775  1.0000
  H   H58       1.0  0.554278440750154  0.2005308517515945  0.5552789500978623  1.0000
  H   H59       1.0  0.5233111910020484  0.1880727399811854  0.45226384566361816  1.0000
  H   H60       1.0  0.5316504265470161  0.12135414192771625  0.45777194333031607  1.0000
  C   C91       1.0  0.4547928762455191  0.46250406180702325  0.5539069526468897  1.0000
  C   C92       1.0  0.4796843332179944  0.4590226025448773  0.5840786211360972  1.0000
  C   C93       1.0  0.4730789030980855  0.4279312500576843  0.6032337200066267  1.0000
  C   C94       1.0  0.44247116016671206  0.3997631452989712  0.5919565443733743  1.0000
  C   C95       1.0  0.41752315697806514  0.4030797853803584  0.5616981644564174  1.0000
  C   C96       1.0  0.423579853097141  0.43452839937397364  0.5426784991295626  1.0000
  H   H61       1.0  0.5046393717427734  0.48002275082133694  0.5927012001069518  1.0000
  H   H62       1.0  0.4926285094208096  0.42544333400416845  0.6265157783867754  1.0000
  H   H63       1.0  0.3927676121859184  0.38180426213343377  0.5532535124428996  1.0000
  H   H64       1.0  0.40387588234309246  0.4371907591310248  0.5194716387556153  1.0000
  C   C97       1.0  0.8127691548420799  0.06881553692117115  0.5586991623485932  1.0000
  C   C98       1.0  0.8508521132610865  0.07627890143153017  0.5363167048192642  1.0000
  C   C99       1.0  0.8732915594599912  0.11061845260056107  0.5358833645047296  1.0000
  C   C100      1.0  0.8590216731528292  0.1371572578473491  0.5585654007525209  1.0000
  C   C101      1.0  0.8214899033189718  0.12940441779550357  0.5814033883877961  1.0000
  C   C102      1.0  0.7979613904261069  0.09539884422423352  0.5812233277000611  1.0000
  H   H65       1.0  0.862052707854144  0.05587993750132703  0.5186517236063974  1.0000
  H   H66       1.0  0.9012035119034808  0.11645447091837363  0.517722500866862  1.0000
  H   H67       1.0  0.8100364101096763  0.14995603119354084  0.5988448517025344  1.0000
  H   H68       1.0  0.7685701751654992  0.08971213529890402  0.5986116896536336  1.0000
  C   C103      1.0  0.6545902042623454  0.5252889884627516  0.6770275846091667  1.0000
  C   C104      1.0  0.6856651393647261  0.5358948893499764  0.6511438186825935  1.0000
  C   C105      1.0  0.7378368843815764  0.539061910115353  0.6562402577751961  1.0000
  C   C106      1.0  0.7588464533137623  0.5318098173390218  0.6872087215684304  1.0000
  C   C107      1.0  0.7073688129314616  0.061048249633987695  0.7480521956388171  1.0000
  C   C108      1.0  0.6870473651304058  0.0864496086670426  0.7260183632120096  1.0000
  H   H69       1.0  0.6695288304536461  0.541919154615976  0.6273398180222132  1.0000
  H   H70       1.0  0.7617943222469707  0.5472411833557963  0.6362668577026263  1.0000
  H   H71       1.0  0.7335762333344568  0.06983915880696218  0.7666216203954804  1.0000
  H   H72       1.0  0.6986299403098122  0.11457596102838181  0.7272183158517278  1.0000
  C   C109      1.0  0.41122277326444356  0.226581645886486  0.7886258744282074  1.0000
  C   C110      1.0  0.4066718489308061  0.2592794508219198  0.8057280619644362  1.0000
  C   C111      1.0  0.3607695169030043  0.277959223333081  0.8058651883240388  1.0000
  C   C112      1.0  0.31938226141366843  0.2642829506286049  0.788545098140386  1.0000
  C   C113      1.0  0.3236383549716412  0.23149267069546994  0.771442030638468  1.0000
  C   C114      1.0  0.36964816076789164  0.21263424496138897  0.771477972149121  1.0000
  H   H73       1.0  0.43867592899992375  0.2705358808266668  0.8185393254202133  1.0000
  H   H74       1.0  0.3576782894209975  0.30344534636409287  0.8189670858734087  1.0000
  H   H75       1.0  0.29180798903480154  0.22088076547737762  0.7579058661782557  1.0000
  H   H76       1.0  0.372971436199975  0.18729196712915494  0.7582310632004444  1.0000
  C   C115      1.0  0.7457727232744991  0.19607510137786413  0.8215405677540264  1.0000
  C   C116      1.0  0.730792805878297  0.1892239277497234  0.8537929145315124  1.0000
  C   C117      1.0  0.755100319262702  0.1622860182496951  0.8723162589891933  1.0000
  C   C118      1.0  0.7939390918491115  0.14188739051603744  0.8584502533398216  1.0000
  C   C119      1.0  0.810705712082593  0.15007205664309656  0.8268693846274008  1.0000
  C   C120      1.0  0.786580290497989  0.17714219176693569  0.8083815941586593  1.0000
  H   H77       1.0  0.6997637991933635  0.2040698249480664  0.8643387587552799  1.0000
  H   H78       1.0  0.7425320442782047  0.15641932183379811  0.8969569589641266  1.0000
  H   H79       1.0  0.8424258133333117  0.13569300397714334  0.8166970060740505  1.0000
  H   H80       1.0  0.7988114470541288  0.18279473423640508  0.78364254578582  1.0000
  C   C121      1.0  0.5437443912777619  0.4070582793177301  0.1014479611530108  1.0000
  C   C122      1.0  0.5738657822497526  0.3775781791435646  0.11077554780872667  1.0000
  C   C123      1.0  0.55965510511184  0.3421877961646923  0.10218714270645335  1.0000
  C   C124      1.0  0.5148394333881374  0.3363477139184433  0.08488884331521662  1.0000
  C   C125      1.0  0.4844146668421293  0.3657952718894686  0.07589578504306727  1.0000
  C   C126      1.0  0.49923494837585247  0.4012020499361077  0.08378973859616279  1.0000
  H   H81       1.0  0.6086142328078734  0.38218300827259677  0.12409852672062538  1.0000
  H   H82       1.0  0.583296548752696  0.3194364558526397  0.10906125352797913  1.0000
  H   H83       1.0  0.4500203138794231  0.36143399581015145  0.06214623176504119  1.0000
  H   H84       1.0  0.47645745682937857  0.4240565023347806  0.07597431004472766  1.0000
  C   C127      1.0  0.7957096482060321  0.5412815713675612  0.05931582709522809  1.0000
  C   C128      1.0  0.8039748896524839  0.5078364834319521  0.04396250292120696  1.0000
  C   C129      1.0  0.8521357472080378  0.4922441775730297  0.0442804781183781  1.0000
  C   C130      1.0  0.8920188171323656  0.5099421737388508  0.060109656026636316  1.0000
  C   C131      1.0  0.8835569555161114  0.5431914927175996  0.07574782886427656  1.0000
  C   C132      1.0  0.8355523154090669  0.5590212919162867  0.07506354231149825  1.0000
  H   H85       1.0  0.773554038399206  0.4941569990592706  0.03139983902571997  1.0000
  H   H86       1.0  0.8585167839399346  0.46648058584008734  0.032198065427524236  1.0000
  H   H87       1.0  0.9139918400472793  0.5568840824278496  0.08822929470072971  1.0000
  H   H88       1.0  0.8293435030354477  0.5849572310351471  0.08689485060003577  1.0000
  C   C133      1.0  0.6581931403152218  0.3989587045426687  0.9376529056959048  1.0000
  C   C134      1.0  0.6777909502853057  0.3747376368114651  0.9145639013354574  1.0000
  C   C135      1.0  0.648469220010588  0.36389160041841556  0.8875945047295534  1.0000
  C   C136      1.0  0.5992799731054574  0.37683155336010893  0.8839511034080184  1.0000
  C   C137      1.0  0.5803643850323605  0.4021146985444517  0.9063259216443089  1.0000
  C   C138      1.0  0.6098929399813542  0.41327489010874424  0.9330712148939564  1.0000
  H   H89       1.0  0.7154285047630193  0.36401104686453833  0.917779568496451  1.0000
  H   H90       1.0  0.6639108367895326  0.3454691683749686  0.8696793053939975  1.0000
  H   H91       1.0  0.5422381199650628  0.4120856983879011  0.903628143601428  1.0000
  H   H92       1.0  0.5948429341485858  0.4324817105643864  0.9503670370376688  1.0000
  C   C139      1.0  0.5430598312282626  0.5795389205930818  0.9512490796035796  1.0000
  C   C140      1.0  0.5832326560789096  0.597850944056645  0.9660556336914522  1.0000
  C   C141      1.0  0.60308131206978  0.13499512965373284  0.9536788517275955  1.0000
  C   C142      1.0  0.5776968459764832  0.16015312476593602  0.9337941796797397  1.0000
  C   C143      1.0  0.5418798020002654  0.14820454187984583  0.9110470683887493  1.0000
  C   C144      1.0  0.5166937889189374  0.5956738746610498  0.9252171924073644  1.0000
  H   H93       1.0  0.6034974295008967  0.5855546011261925  0.986310419498544  1.0000
  H   H94       1.0  0.6313293887358729  0.14431938601591493  0.9708538202015978  1.0000
  H   H95       1.0  0.5217253313314184  0.16760397661177176  0.8959373446492935  1.0000
  H   H96       1.0  0.48538315639793805  0.5816078284542653  0.9139152527785517  1.0000
  Fe  Fe49      1.0  0.5854233505460102  0.002531537449154797  0.9555898865585676  1.0000
  S   S97       1.0  0.6650884774341986  0.9823595348264478  0.9539829604152753  1.0000
  S   S98       1.0  0.5521865324534676  0.0394960612103179  0.9175682720911287  1.0000
  Fe  Fe50      1.0  0.5582886112178883  0.9580700273420957  0.015318022494852368  1.0000
  S   S99       1.0  0.6355472440474718  0.9345595731529417  0.019727856033428193  1.0000
  S   S100      1.0  0.500077844465191  0.9438257055897562  0.05299598734772104  1.0000
  Fe  Fe51      1.0  0.6632596149363496  0.9904393400668584  0.008582880829342887  1.0000
  S   S101      1.0  0.7250147077842201  0.012998991583640152  0.04059127265705054  1.0000
  Fe  Fe52      1.0  0.6306725774736669  0.9284006047983225  0.9652440720608775  1.0000
  S   S102      1.0  0.656665395996742  0.8753909697360339  0.9449113313835891  1.0000
  S   S103      1.0  0.5859709608469865  0.015164088928998787  0.009371813344067892  1.0000
  S   S104      1.0  0.551086323591051  0.9475228372268246  0.9613435205436429  1.0000
  Fe  Fe53      1.0  0.5646039558360274  0.7016912556417458  0.8626816706636903  1.0000
  S   S105      1.0  0.6227845012427259  0.7254355435549033  0.8295268060041562  1.0000
  S   S106      1.0  0.5886324553787071  0.6913595861113466  0.9146655349378228  1.0000
  Fe  Fe54      1.0  0.484111697971368  0.7029094362240743  0.8096844622201631  1.0000
  S   S107      1.0  0.535447402017774  0.7270088436054282  0.7725752205635963  1.0000
  S   S108      1.0  0.4068945607820354  0.6929212068451631  0.7900757068346612  1.0000
  Fe  Fe55      1.0  0.5910221306594775  0.6870504066423446  0.7924585336132629  1.0000
  S   S109      1.0  0.6365069095506658  0.6511452121389496  0.7602659090141284  1.0000
  Fe  Fe56      1.0  0.5604574521762294  0.76297587079292  0.8137498146764294  1.0000
  S   S110      1.0  0.5615176749623446  0.823769331009517  0.8113133563164637  1.0000
  S   S111      1.0  0.5377598938847445  0.6598687564267832  0.8266217677276667  1.0000
  S   S112      1.0  0.5045765894461159  0.7420439778777516  0.849601819579727  1.0000
  Fe  Fe57      1.0  0.635942070054314  0.0688683260109979  0.6245975474557103  1.0000
  S   S113      1.0  0.6815512144151531  0.017539069282944242  0.6252195879685792  1.0000
  S   S114      1.0  0.6379154310330485  0.10431203274510681  0.6691938044127156  1.0000
  Fe  Fe58      1.0  0.4990734906826481  0.6102911345736501  0.6003663380968186  1.0000
  S   S115      1.0  0.5164850435219426  0.5993878987339358  0.5474347176896209  1.0000
  S   S116      1.0  0.44744093773867194  0.6515216403142993  0.6226393942329715  1.0000
  Fe  Fe59      1.0  0.6140290544522857  0.9931433353539242  0.6009018941263136  1.0000
  S   S117      1.0  0.5851370889911353  0.9387414965440288  0.6155404612243605  1.0000
  Fe  Fe60      1.0  0.5956147246656748  0.5912275606102118  0.5655923896612053  1.0000
  S   S118      1.0  0.6641700686989226  0.6115967877196026  0.539919159135164  1.0000
  S   S119      1.0  0.5659755026156453  0.043086623539748015  0.6046830971194966  1.0000
  S   S120      1.0  0.5791290288959393  0.6072319398513106  0.6174678218423848  1.0000
  Fe  Fe61      1.0  0.8231904143312969  0.5247621771144491  0.8171197580405958  1.0000
  S   S121      1.0  0.85938974572405  0.5651973250102231  0.7837301740595606  1.0000
  S   S122      1.0  0.7641533781086922  0.5466014627895511  0.8510554299997926  1.0000
  Fe  Fe62      1.0  0.8720391340931306  0.9808209732169821  0.8415483873622237  1.0000
  S   S123      1.0  0.8658002428183458  0.9800485415626137  0.7867480034195878  1.0000
  S   S124      1.0  0.885401932551137  0.9284459866731146  0.8680002065546374  1.0000
  Fe  Fe63      1.0  0.9307265815150162  0.5363675185381535  0.7971707702383816  1.0000
  S   S125      1.0  0.004296213501857604  0.5622860719301049  0.8101921696941755  1.0000
  Fe  Fe64      1.0  0.7940455184091794  0.01041008832528778  0.7949526707430138  1.0000
  S   S126      1.0  0.7232968850819712  0.9916087924621552  0.7704320989489875  1.0000
  S   S127      1.0  0.8954319512377743  0.49942987346724743  0.8338473879666594  1.0000
  S   S128      1.0  0.7976708761607537  0.007522283955233133  0.849558471658456  1.0000
  Fe  Fe65      1.0  0.9720113759684409  0.10253371585038495  0.01122067049606068  1.0000
  S   S129      1.0  0.9980498324927709  0.0813098596548103  0.060001510960543625  1.0000
  S   S130      1.0  0.9234669135757184  0.07194619843014372  0.9755761744063024  1.0000
  Fe  Fe66      1.0  0.09887181208250606  0.5706463184099423  0.09130112099229071  1.0000
  S   S131      1.0  0.11244807777392896  0.5631105130760855  0.1452617349323242  1.0000
  S   S132      1.0  0.1501221305000322  0.6045604259456202  0.06033044335115667  1.0000
  Fe  Fe67      1.0  0.07287705352116136  0.10334525238260772  0.04547579527558199  1.0000
  S   S133      1.0  0.14373584849078092  0.07424539715153378  0.05893637082402403  1.0000
  Fe  Fe68      1.0  0.028646251692129088  0.5687362693119771  0.14914562624689598  1.0000
  S   S134      1.0  0.9984072504244228  0.6031916363895298  0.190048425275273  1.0000
  S   S135      1.0  0.04882440722874182  0.11889076899314466  0.9946918258699018  1.0000
  S   S136      1.0  0.016091361209308763  0.5813034722238037  0.09577859389678967  1.0000
  Fe  Fe69      1.0  0.7705257033621982  0.5825828121004254  0.2995869343735311  1.0000
  S   S137      1.0  0.8131156920183874  0.6267689378063966  0.32569565519770904  1.0000
  S   S138      1.0  0.7931395970825693  0.5536692703475652  0.2529623219645629  1.0000
  Fe  Fe70      1.0  0.6044552457323665  0.086359528540217  0.23249059383813264  1.0000
  S   S139      1.0  0.6267670199275274  0.12023202051036286  0.27608371752644784  1.0000
  S   S140      1.0  0.5368071337944803  0.050668063673186214  0.22726490989354853  1.0000
  Fe  Fe71      1.0  0.7382372638646725  0.6542727789250241  0.3298867940928369  1.0000
  S   S141      1.0  0.7297769708363872  0.7139958425261519  0.3202164380238635  1.0000
  Fe  Fe72      1.0  0.703208019794433  0.09625306825820457  0.2686979684247342  1.0000
  S   S142      1.0  0.7499589822701467  0.07726026952031395  0.3114879237173399  1.0000
  S   S143      1.0  0.6971607960219639  0.6128476082397372  0.29979447179536456  1.0000
  S   S144      1.0  0.6789594375085044  0.05857460258530445  0.22848344451107833  1.0000
  Fe  Fe73      1.0  0.8200525308000375  0.7640243245341879  0.5888353941705885  1.0000
  S   S145      1.0  0.883798732030284  0.7245324112924633  0.5953706361243875  1.0000
  S   S146      1.0  0.7425815964522385  0.7545609131112617  0.6075439741110665  1.0000
  Fe  Fe74      1.0  0.8808177772061355  0.816896944022925  0.5492924391008256  1.0000
  S   S147      1.0  0.9502019153820823  0.782355834934813  0.5517068743136792  1.0000
  S   S148      1.0  0.8748488864764489  0.8692305799744137  0.5216296791938871  1.0000
  Fe  Fe75      1.0  0.8983983629848483  0.7358833045251721  0.5421483601494589  1.0000
  S   S149      1.0  0.9166400284332971  0.6956917267522014  0.5025858998450198  1.0000
  Fe  Fe76      1.0  0.9292579776040848  0.7748046351382946  0.6045652597306678  1.0000
  S   S150      1.0  0.9898701681432877  0.7803156799454  0.6427169672230315  1.0000
  S   S151      1.0  0.830569627081832  0.7711372868386264  0.5348469928796131  1.0000
  S   S152      1.0  0.8640264860447574  0.8133594421162688  0.6029018188429024  1.0000
  Fe  Fe77      1.0  0.06451270289915013  0.900984265646281  0.3104303865878193  1.0000
  S   S153      1.0  0.985788477141968  0.8854592355808194  0.2966132055444255  1.0000
  S   S154      1.0  0.13328142726349546  0.8828199374216981  0.2830561629150448  1.0000
  Fe  Fe78      1.0  0.030767145828454853  0.9519794918299825  0.36397986702370716  1.0000
  S   S155      1.0  0.9487129443871766  0.9410856164407397  0.35585830819239045  1.0000
  S   S156      1.0  0.0650732785299954  0.9879102555108512  0.402244370447128  1.0000
  Fe  Fe79      1.0  0.9729071535220621  0.8830317853931567  0.3509500397478694  1.0000
  S   S157      1.0  0.9361216969763472  0.8357590834497028  0.37556387451244844  1.0000
  Fe  Fe80      1.0  0.9680598755125913  0.9448079815845898  0.30229733551661114  1.0000
  S   S158      1.0  0.9239351594156164  0.9741654553081298  0.2629695113476071  1.0000
  S   S159      1.0  0.053167818354864727  0.8936843400343566  0.3643751371317448  1.0000
  S   S160      1.0  0.04826599431171651  0.9605970051628183  0.31106348512087584  1.0000
  Fe  Fe81      1.0  0.17636826521889465  0.8775924196977133  0.044261625560378715  1.0000
  S   S161      1.0  0.19472783617521164  0.8202591803260435  0.030287514431888374  1.0000
  S   S162      1.0  0.12657554305716492  0.9117119962676575  0.011934272689471781  1.0000
  Fe  Fe82      1.0  0.24257390968527098  0.8752462051454108  0.10592864836113836  1.0000
  S   S163      1.0  0.26791771264554826  0.8181517783513078  0.09632291002492721  1.0000
  S   S164      1.0  0.2599617577306279  0.9046750944893002  0.1530550506628705  1.0000
  Fe  Fe83      1.0  0.2736719705543975  0.8362244042385455  0.04383110645019728  1.0000
  S   S165      1.0  0.338423356330055  0.8273982127439807  0.009622464940712394  1.0000
  Fe  Fe84      1.0  0.18684702512032433  0.8083962911445345  0.08398375280607229  1.0000
  S   S166      1.0  0.14054178569066483  0.7667222957616379  0.10958750374531956  1.0000
  S   S167      1.0  0.25559146520547676  0.8945111398589728  0.054541618138273185  1.0000
  S   S168      1.0  0.16100244401497987  0.8644952139922456  0.09665113661931879  1.0000
  Fe  Fe85      1.0  0.4869696050046812  0.902407453966686  0.3418160959099389  1.0000
  S   S169      1.0  0.46101155778605596  0.8657597811711761  0.3817624030810235  1.0000
  S   S170      1.0  0.5285108393679026  0.9535077898667599  0.3537585859237403  1.0000
  Fe  Fe86      1.0  0.447930577469839  0.8538525528992597  0.2879788823634933  1.0000
  S   S171      1.0  0.418686666599972  0.8121193995703122  0.32305950704954073  1.0000
  S   S172      1.0  0.4464384221625215  0.8452222191604828  0.23330191783234988  1.0000
  Fe  Fe87      1.0  0.3910743049896456  0.8600511051278719  0.35150691280262514  1.0000
  S   S173      1.0  0.3175482563952708  0.8572433998084997  0.377808289259797  1.0000
  Fe  Fe88      1.0  0.4908846072027135  0.8207539344561549  0.35051793663843056  1.0000
  S   S174      1.0  0.5267345083763018  0.7742596247012165  0.3778129794397599  1.0000
  S   S175      1.0  0.41370388569140876  0.9014755482971504  0.31418244663170936  1.0000
  S   S176      1.0  0.5234073650062345  0.8581205846753742  0.31282451517988913  1.0000
  Fe  Fe89      1.0  0.29087651419128774  0.8257736948906291  0.6231181015117356  1.0000
  S   S177      1.0  0.26848223176044905  0.8815492340254971  0.605952947537823  1.0000
  S   S178      1.0  0.3035095863589752  0.8136318797732637  0.6769634797584735  1.0000
  Fe  Fe90      1.0  0.29595509721322394  0.7954394624705501  0.5542167077545409  1.0000
  S   S179      1.0  0.2730924104377726  0.8478476398514888  0.5307456140982195  1.0000
  S   S180      1.0  0.31194271750707725  0.7443728865486003  0.5262803339219505  1.0000
  Fe  Fe91      1.0  0.3262924221587224  0.873235142840839  0.5668678097446218  1.0000
  S   S181      1.0  0.3737085580266753  0.9182325908996247  0.5468796400396327  1.0000
  Fe  Fe92      1.0  0.2172990587045816  0.8520253705979327  0.5713339150822347  1.0000
  S   S182      1.0  0.13910206693776395  0.8722282586490466  0.5607087880481686  1.0000
  S   S183      1.0  0.3542078314900774  0.8202971580973852  0.5871593365753195  1.0000
  S   S184      1.0  0.2348700244046295  0.7966116829486006  0.5912408335935344  1.0000
  Fe  Fe93      1.0  0.17684280495086402  0.749975183920288  0.8703101044287148  1.0000
  S   S185      1.0  0.12954712136093832  0.7093448044539085  0.8435693203529853  1.0000
  S   S186      1.0  0.24655915154574037  0.7339760557664492  0.8974115738016614  1.0000
  Fe  Fe94      1.0  0.11095468007335064  0.8131122763250325  0.8514499821924612  1.0000
  S   S187      1.0  0.056742244405210335  0.7782753307562992  0.823506395016653  1.0000
  S   S188      1.0  0.1079887256265244  0.8736909704629012  0.8502729014317536  1.0000
  Fe  Fe95      1.0  0.06520049421115721  0.7398152767996459  0.8657979036271847  1.0000
  S   S189      1.0  0.9984620985910079  0.7103616311594133  0.8858784990172099  1.0000
  Fe  Fe96      1.0  0.1256076039824053  0.7510463402500327  0.8039180210684146  1.0000
  S   S190      1.0  0.12526491047357297  0.7363081541685091  0.7504813987534676  1.0000
  S   S191      1.0  0.11305410821555498  0.7774405118218052  0.8959705366529105  1.0000
  S   S192      1.0  0.17933387791351926  0.7892148534901734  0.8285668397823903  1.0000
  C   C145      1.0  0.2549435719010916  0.7899972819596908  0.6967990249937291  1.0000
  C   C146      1.0  0.2587923175875255  0.7830191386204816  0.7305245268653048  1.0000
  C   C147      1.0  0.21995865177599072  0.7651552167670551  0.7469386604277606  1.0000
  C   C148      1.0  0.17701385538764589  0.7542037765518468  0.7297621228413823  1.0000
  C   C149      1.0  0.17378344186349182  0.7598888931745027  0.6959374606674636  1.0000
  C   C150      1.0  0.21230490224266532  0.7782366128027557  0.679592098283273  1.0000
  H   H97       1.0  0.2915128758740007  0.7914948790259018  0.7442143424462969  1.0000
  H   H98       1.0  0.2236901034932833  0.7594774398842908  0.772786133300639  1.0000
  H   H99       1.0  0.14102324933629184  0.7507130480306778  0.6825088816148277  1.0000
  H   H100      1.0  0.20866521774536  0.783348648408484  0.6537977072336999  1.0000
  C   C151      1.0  0.30954516457743736  0.8856722207204143  0.17591636597685545  1.0000
  C   C152      1.0  0.3454192681328039  0.8636127552538932  0.1608277540863272  1.0000
  C   C153      1.0  0.38641296767360345  0.8502591907511657  0.17902584652260511  1.0000
  C   C154      1.0  0.39166647764890095  0.8588369334358323  0.21235511251126396  1.0000
  C   C155      1.0  0.3549975229741577  0.8800639440042766  0.22770507048940813  1.0000
  C   C156      1.0  0.3141539997943946  0.8936853041491193  0.20942811669035422  1.0000
  H   H101      1.0  0.34257630278784473  0.8577665281520244  0.13489999220491677  1.0000
  H   H102      1.0  0.4146800478124985  0.8338066336256881  0.16707358107381332  1.0000
  H   H103      1.0  0.35872549542850657  0.8867540606050127  0.2533900848784884  1.0000
  H   H104      1.0  0.28650530825532794  0.9108381012645286  0.22116327852979056  1.0000
  C   C157      1.0  0.18425366733858106  0.8707625899447183  0.3083328721360746  1.0000
  C   C158      1.0  0.1767452863684682  0.8608887737769402  0.3410112324573061  1.0000
  C   C159      1.0  0.21795836547844577  0.8555425968380982  0.36204770116465274  1.0000
  C   C160      1.0  0.2668380071179264  0.8597395806844549  0.35031796141418153  1.0000
  C   C161      1.0  0.2745333059758952  0.8674590278295643  0.31713064398486884  1.0000
  C   C162      1.0  0.2332086156331055  0.8728754484428582  0.2961048887419952  1.0000
  H   H105      1.0  0.139291361157795  0.8570737033857875  0.35009780757736086  1.0000
  H   H106      1.0  0.2119395469430833  0.848695296368287  0.38752763648350813  1.0000
  H   H107      1.0  0.3122497877777653  0.8699485553511778  0.30777270925594563  1.0000
  H   H108      1.0  0.23932497819163484  0.8800223729104233  0.27070696365067926  1.0000
  C   C163      1.0  0.030380666717095824  0.8125130059515359  0.6260219550338424  1.0000
  C   C164      1.0  0.012142815917759007  0.8368408189939366  0.6024402087073474  1.0000
  C   C165      1.0  0.045611481503619926  0.857148552061348  0.5836319048055374  1.0000
  C   C166      1.0  0.09730474234080982  0.853800469922297  0.5890495654219512  1.0000
  C   C167      1.0  0.11515989324087489  0.8325412106205003  0.615089547005508  1.0000
  C   C168      1.0  0.08172466902881143  0.8113821108863032  0.633244290604317  1.0000
  H   H109      1.0  0.9722287127350825  0.8390365479354666  0.5977633186376828  1.0000
  H   H110      1.0  0.03138609025535333  0.8742215265563787  0.5641276661417735  1.0000
  H   H111      1.0  0.15483744660717463  0.8313809258540524  0.6205062844286479  1.0000
  H   H112      1.0  0.09591722704994105  0.792846982784747  0.6515682082682555  1.0000
  C   C169      1.0  0.8901529242600414  0.8601463323749069  0.4807124869304658  1.0000
  C   C170      1.0  0.9080282790387942  0.8257806088579024  0.47196913625099624  1.0000
  C   C171      1.0  0.9226284215489554  0.8187674395443421  0.43968744040307006  1.0000
  C   C172      1.0  0.918750556681999  0.8458519514794133  0.4158743021586702  1.0000
  C   C173      1.0  0.9007731249108334  0.8802874585083539  0.42450050981378856  1.0000
  C   C174      1.0  0.8863560648818606  0.8874231666558052  0.45695569872696623  1.0000
  H   H113      1.0  0.9110505468260818  0.804545116677173  0.49003553775502573  1.0000
  H   H114      1.0  0.9379155365372833  0.7925328681373809  0.43325654819649945  1.0000
  H   H115      1.0  0.8968559058434666  0.9011304325848913  0.4060545836663294  1.0000
  H   H116      1.0  0.8721026148351037  0.9139650712432801  0.4635606531585238  1.0000
  C   C175      1.0  0.9640902517731048  0.6648106483808294  0.5134613080237442  1.0000
  C   C176      1.0  0.9858004958376761  0.6430931570328172  0.4891776578486405  1.0000
  C   C177      1.0  0.9951621007607022  0.03625913572886952  0.3790053300381324  1.0000
  C   C178      1.0  0.03412199282527362  0.02992297261252652  0.40152916921954057  1.0000
  C   C179      1.0  0.04804287292861642  0.05709502720826687  0.42374865658719796  1.0000
  C   C180      1.0  0.9807175516245094  0.6618605339235009  0.5459836940741065  1.0000
  H   H117      1.0  0.9734684182069947  0.6456352814825645  0.46391540285748156  1.0000
  H   H118      1.0  0.9847683433343973  0.015637098842919972  0.36140696083243373  1.0000
  H   H119      1.0  0.07853986891261955  0.05246617790562036  0.4409563869956706  1.0000
  H   H120      1.0  0.9641715639401713  0.6786018083091553  0.5648448595745843  1.0000
  C   C181      1.0  0.6761367744815493  0.7332372685138437  0.33804363288326056  1.0000
  C   C182      1.0  0.6568739448045242  0.7193728428013654  0.3672634615545939  1.0000
  C   C183      1.0  0.6121895643333908  0.7334445627975693  0.3801598393131527  1.0000
  C   C184      1.0  0.5860063840533359  0.7608983884891433  0.36353191919004135  1.0000
  C   C185      1.0  0.6060302225830816  0.7755700048738791  0.33483122773510016  1.0000
  C   C186      1.0  0.6513455415338101  0.7619727988634567  0.32226936159225805  1.0000
  H   H121      1.0  0.6764301208958673  0.6980049595246937  0.3801219809009938  1.0000
  H   H122      1.0  0.5972657801598753  0.7224258321933607  0.4026784333297658  1.0000
  H   H123      1.0  0.5860177547174361  0.7965839787288218  0.3217404287152337  1.0000
  H   H124      1.0  0.6662295954124262  0.7728492346092377  0.2996826423609266  1.0000
  C   C187      1.0  0.5305918932870509  0.02498653396066075  0.2630359673380997  1.0000
  C   C188      1.0  0.5470101528617155  0.03868917474838329  0.2932572516984195  1.0000
  C   C189      1.0  0.5446253860159517  0.01712542386031357  0.3214660905452693  1.0000
  C   C190      1.0  0.5263935838238353  0.98168085676829  0.3193509571417188  1.0000
  C   C191      1.0  0.5095948858021773  0.9680472560709592  0.2891856799222925  1.0000
  C   C192      1.0  0.5113400428545778  0.9898181462804074  0.2611206299869478  1.0000
  H   H125      1.0  0.5607507182836221  0.06607648936223942  0.2950609860804194  1.0000
  H   H126      1.0  0.557287416556323  0.027818454653173896  0.34483617614339135  1.0000
  H   H127      1.0  0.4967167985662646  0.9403701861899014  0.28719007214650694  1.0000
  H   H128      1.0  0.4992586723202076  0.9790368060976957  0.23783063526491363  1.0000
  C   C193      1.0  0.8001028402255456  0.050344110264523456  0.2981282538244311  1.0000
  C   C194      1.0  0.8329895330139736  0.034630403430508716  0.32102231950335264  1.0000
  C   C195      1.0  0.8719405377404222  0.011785875908686405  0.31042337906553796  1.0000
  C   C196      1.0  0.8775878443469679  0.004262102257684752  0.2769963620190232  1.0000
  C   C197      1.0  0.8453478033526324  0.02073949118657925  0.2541429595137371  1.0000
  C   C198      1.0  0.807047628394896  0.04406183198930691  0.26463939697719735  1.0000
  H   H129      1.0  0.8282092972285856  0.0398541169291724  0.346955125266879  1.0000
  H   H130      1.0  0.8973748586833236  0.9999859169096484  0.3281461871185683  1.0000
  H   H131      1.0  0.8494940834133214  0.015054709261711485  0.22831588186804336  1.0000
  H   H132      1.0  0.7826779613311082  0.05684051725085548  0.24675552579899473  1.0000
  C   C199      1.0  0.14948557187034273  0.6494517759687845  0.07464218482107543  1.0000
  C   C200      1.0  0.11610734756135735  0.6595822160836967  0.09932978588062014  1.0000
  C   C201      1.0  0.11395024665690823  0.6956897400566175  0.10990465133792537  1.0000
  C   C202      1.0  0.14506300910818973  0.7218373363452669  0.09580706835297592  1.0000
  C   C203      1.0  0.1788930067120158  0.7118195499072636  0.07124365690276502  1.0000
  C   C204      1.0  0.18124428661727787  0.6755000912870989  0.06076269617932395  1.0000
  H   H133      1.0  0.09168264313314377  0.6396687595437348  0.11028365303984988  1.0000
  H   H134      1.0  0.08783508431618921  0.7033607068188097  0.12895971893160985  1.0000
  H   H135      1.0  0.2034354674389598  0.7319301541857499  0.06062920216609635  1.0000
  H   H136      1.0  0.20785157113681607  0.6675257849545257  0.04215760091047205  1.0000
  C   C205      1.0  0.1389685423658642  0.02918757066834199  0.045884014244115034  1.0000
  C   C206      1.0  0.11034244748055433  0.02053184787493878  0.01805683690060844  1.0000
  C   C207      1.0  0.10717414239334588  0.9844071210596966  0.0074763191274744845  1.0000
  C   C208      1.0  0.13103137924065283  0.9568215762568244  0.025295775890949113  1.0000
  C   C209      1.0  0.1586396766548166  0.9654629249020664  0.05356113127185491  1.0000
  C   C210      1.0  0.16333714673038263  0.0017054098719451183  0.06353574397505457  1.0000
  H   H137      1.0  0.09178255748945774  0.04178374555110831  0.0042453225863279265  1.0000
  H   H138      1.0  0.08691317872757409  0.9778985849409537  0.9853325435629247  1.0000
  H   H139      1.0  0.176257896557748  0.9443280673499301  0.06793493589903687  1.0000
  H   H140      1.0  0.18508229327388548  0.008301107233487315  0.08526640716004152  1.0000
  C   C211      1.0  0.9399393030799295  0.5903335116968257  0.20586037834249105  1.0000
  C   C212      1.0  0.8707596550965243  0.13528742466298604  0.16385015018577054  1.0000
  C   C213      1.0  0.8216584452332804  0.12270982566131527  0.1681535010561692  1.0000
  C   C214      1.0  0.8497392598295207  0.5680470888360762  0.2351079293951007  1.0000
  C   C215      1.0  0.8698542772733883  0.5484810486313361  0.2087169957309576  1.0000
  C   C216      1.0  0.9145429744852649  0.5598459580736734  0.19386117992883078  1.0000
  H   H141      1.0  0.8925655997832087  0.1443705066305374  0.1847941466449592  1.0000
  H   H142      1.0  0.806081710350139  0.12155317228519014  0.19242611939812448  1.0000
  H   H143      1.0  0.8510549916086376  0.5244517150301231  0.19976362305467488  1.0000
  H   H144      1.0  0.9294404425456768  0.5448689384894506  0.17333853455546655  1.0000
  C   C217      1.0  0.999663140325991  0.5996057260263233  0.8366056509069606  1.0000
  C   C218      1.0  0.043633627879408055  0.6134475401131312  0.8507615953772536  1.0000
  C   C219      1.0  0.04257532052890456  0.6465853455245594  0.8675039370802684  1.0000
  C   C220      1.0  0.9976824529129965  0.6661139134353735  0.8700461991210231  1.0000
  C   C221      1.0  0.9529843950073922  0.6511992511367745  0.8577647190331019  1.0000
  C   C222      1.0  0.9539741145734145  0.6178887884193942  0.8409543968123352  1.0000
  H   H145      1.0  0.0788986134652368  0.5991145514026112  0.8477773412384586  1.0000
  H   H146      1.0  0.07671141879057469  0.6572057936065206  0.8780750518673801  1.0000
  H   H147      1.0  0.9180740155866461  0.6661452711542205  0.8599199982140677  1.0000
  H   H148      1.0  0.9198327956258745  0.6072028786818188  0.8302731727993901  1.0000
  C   C223      1.0  0.946813295940649  0.9128988866702953  0.8619722688800328  1.0000
  C   C224      1.0  0.9828181802445655  0.9356927433597588  0.8481065076033785  1.0000
  C   C225      1.0  0.03258846847722596  0.9236953308569731  0.8449196836085442  1.0000
  C   C226      1.0  0.046033717119186246  0.8886395699932209  0.8548895923452551  1.0000
  C   C227      1.0  0.009860554015421963  0.8656227583015866  0.868247722231625  1.0000
  C   C228      1.0  0.960336854368327  0.8779186214951532  0.8721259536656185  1.0000
  H   H149      1.0  0.9725788931008474  0.9627237518228536  0.8401869683751833  1.0000
  H   H150      1.0  0.060555259866612594  0.9414950375856604  0.834505884074873  1.0000
  H   H151      1.0  0.0201356401225532  0.838506701704214  0.8760477273233168  1.0000
  H   H152      1.0  0.9325465017372501  0.8602556033119041  0.8829266379733132  1.0000
  C   C229      1.0  0.40903250643915723  0.6759448293504771  0.5952323076092809  1.0000
  C   C230      1.0  0.37691380734425795  0.7026085695690106  0.6077264871270948  1.0000
  C   C231      1.0  0.3464246294933886  0.723038924112904  0.5865197906337551  1.0000
  C   C232      1.0  0.3476162872820564  0.7167622579800501  0.5526963535679726  1.0000
  C   C233      1.0  0.37875060135436  0.6894493206335404  0.5401280835002498  1.0000
  C   C234      1.0  0.4097901288371882  0.6692315126576369  0.5613994638378562  1.0000
  H   H153      1.0  0.37595500256843933  0.7078177214285054  0.6338573035829176  1.0000
  H   H154      1.0  0.3220322777081615  0.7436936479087256  0.5965194811168266  1.0000
  H   H155      1.0  0.3799465984749781  0.6846656731699581  0.5139516072351411  1.0000
  H   H156      1.0  0.4346296388822743  0.6488474468003756  0.5515788015774373  1.0000
  C   C235      1.0  0.5264529667715357  0.9325583192078488  0.5965521145758222  1.0000
  C   C236      1.0  0.5117209585966509  0.9551746596133948  0.570633540787355  1.0000
  C   C237      1.0  0.4648793351544347  0.9503228366991379  0.5553780732148683  1.0000
  C   C238      1.0  0.4322495904428319  0.923278996342386  0.5663235894000656  1.0000
  C   C239      1.0  0.4467144027092415  0.9008568227348575  0.5924554159775879  1.0000
  C   C240      1.0  0.494049725341339  0.905280585331269  0.6073753187361725  1.0000
  H   H157      1.0  0.5366464036029283  0.9760809144799635  0.5619444663318829  1.0000
  H   H158      1.0  0.45403799491359437  0.9673464016852156  0.5348938589021427  1.0000
  H   H159      1.0  0.42147342549762856  0.880228974639221  0.6012662920323796  1.0000
  H   H160      1.0  0.5052609618350377  0.8878908797937982  0.6275273098507551  1.0000
  C   C241      1.0  0.6836577810601501  0.6531207938068812  0.5565200902490894  1.0000
  C   C242      1.0  0.7325648923504545  0.6650869628490372  0.5508011450373961  1.0000
  C   C243      1.0  0.7503638323212448  0.6965752447524348  0.56608957756785  1.0000
  C   C244      1.0  0.7189857461075015  0.7165543702233358  0.5868079789289914  1.0000
  C   C245      1.0  0.6694157302598375  0.7053431268182635  0.5916894803537193  1.0000
  C   C246      1.0  0.6517131280587773  0.6736659631421331  0.5764389520746153  1.0000
  H   H161      1.0  0.7568094822031826  0.6497877675275644  0.5348135759581494  1.0000
  H   H162      1.0  0.7885898491053364  0.7049876857250251  0.5620722650307006  1.0000
  H   H163      1.0  0.6447183252918941  0.7210738463453941  0.6072231262894359  1.0000
  H   H164      1.0  0.6131369577443343  0.665533892629431  0.579664428484665  1.0000
  C   C247      1.0  0.6543404632971144  0.07493473431815767  0.701157973480744  1.0000
  C   C248      1.0  0.6391622999924613  0.03867509422723714  0.6998040599340649  1.0000
  C   C249      1.0  0.6589723992941826  0.01343172817788929  0.7220762623175322  1.0000
  C   C250      1.0  0.694261023521074  0.02438556933581837  0.7455725977622184  1.0000
  C   C251      1.0  0.7276370197473121  0.5205291715463904  0.7125853473848333  1.0000
  C   C252      1.0  0.6757665887982127  0.5172604373594771  0.7076020012479176  1.0000
  H   H165      1.0  0.6130103058037562  0.02976695018065878  0.6810136459136524  1.0000
  H   H166      1.0  0.6482652279947351  0.9851583628196963  0.7202436247078053  1.0000
  H   H167      1.0  0.7431743825001953  0.51470930137379  0.7362653347005897  1.0000
  H   H168      1.0  0.6519623508317187  0.5090006377949491  0.7276560013385996  1.0000
  C   C253      1.0  0.36230559396257617  0.7026020282818818  0.8203210335166575  1.0000
  C   C254      1.0  0.3122013899215303  0.7085075600493015  0.8112099600855867  1.0000
  C   C255      1.0  0.2766008831416671  0.7176560415896753  0.835012554572036  1.0000
  C   C256      1.0  0.2909610431480575  0.7209391002989125  0.8679932565274686  1.0000
  C   C257      1.0  0.3409333968499281  0.7143990512829701  0.8772184702013278  1.0000
  C   C258      1.0  0.37661662087450193  0.7052114290477651  0.8533705593256814  1.0000
  H   H169      1.0  0.30091332825634654  0.7062833579154733  0.7857173551957973  1.0000
  H   H170      1.0  0.23801027444769512  0.7219604249871187  0.8277143890097816  1.0000
  H   H171      1.0  0.35204882749156313  0.7164907001572295  0.9027387845492363  1.0000
  H   H172      1.0  0.4149599053549772  0.6996351000040589  0.860680691826397  1.0000
  C   C259      1.0  0.6703341438972988  0.6216216140578241  0.7859834544861983  1.0000
  C   C260      1.0  0.670773120692275  0.6267610586212944  0.8200712439416602  1.0000
  C   C261      1.0  0.6994344306746005  0.603792367347214  0.8403561452342426  1.0000
  C   C262      1.0  0.7277952178074782  0.5757547198892986  0.8264934186944172  1.0000
  C   C263      1.0  0.7267357118865259  0.5704667200087902  0.7925735720403824  1.0000
  C   C264      1.0  0.6976924365286541  0.5930440830606599  0.7723477186454295  1.0000
  H   H173      1.0  0.6498021397531013  0.6487656176107944  0.8309110638236303  1.0000
  H   H174      1.0  0.7004715540420022  0.6084565561167202  0.866552444318881  1.0000
  H   H175      1.0  0.7482323061866726  0.5487448612216086  0.7819304129671927  1.0000
  H   H176      1.0  0.6965391366456123  0.5883005514748743  0.7461676107085313  1.0000
  C   C265      1.0  0.45699945969575057  0.9101828360627164  0.040703007058553675  1.0000
  C   C266      1.0  0.4605164664033824  0.8928835360592605  0.01018103755163291  1.0000
  C   C267      1.0  0.4241950456704156  0.8673240078045992  0.0005368795572986418  1.0000
  C   C268      1.0  0.38529204146587354  0.8580982823795902  0.021861909421942105  1.0000
  C   C269      1.0  0.3829304673625771  0.874369709818243  0.05279309045550162  1.0000
  C   C270      1.0  0.41810574985797494  0.9007405110572806  0.061915908863523716  1.0000
  H   H177      1.0  0.4907251094924619  0.8994193628810379  0.9938585170742348  1.0000
  H   H178      1.0  0.4257391098112084  0.8552511052192243  0.9764258989428646  1.0000
  H   H179      1.0  0.35379932221794186  0.8668355740474901  0.06975896184365982  1.0000
  H   H180      1.0  0.4146014373585167  0.9140908156305373  0.08528244064325863  1.0000
  C   C271      1.0  0.7797920612442717  0.029041771208168754  0.021836192581998093  1.0000
  C   C272      1.0  0.7844782545117144  0.03010563517973952  0.9876991940442086  1.0000
  C   C273      1.0  0.8285641227059577  0.043625955807185646  0.9735280793451179  1.0000
  C   C274      1.0  0.8677926764701144  0.05638904775044917  0.9934859879936613  1.0000
  C   C275      1.0  0.8628600637442223  0.0557159492851067  0.027602513651291405  1.0000
  C   C276      1.0  0.8190669797151438  0.04182331778251758  0.041727298192210105  1.0000
  H   H181      1.0  0.7542039375094247  0.0206997420828543  0.9721870467416911  1.0000
  H   H182      1.0  0.8319170725917069  0.04461554502226894  0.9470799059021534  1.0000
  H   H183      1.0  0.8928146312803051  0.0656644789604992  0.043152346099620376  1.0000
  H   H184      1.0  0.8154874336142  0.04100011783803437  0.06813740643799915  1.0000
  C   C277      1.0  0.6243571065961054  0.8617084712280079  0.9096732771689495  1.0000
  C   C278      1.0  0.6274833467689267  0.8253710886193227  0.9004404894685424  1.0000
  C   C279      1.0  0.6053669758831354  0.8137275762778026  0.8711710194964398  1.0000
  C   C280      1.0  0.5822501698676449  0.8385668944230965  0.8500142726777631  1.0000
  C   C281      1.0  0.5781038514603304  0.875030267809527  0.8594689950213025  1.0000
  C   C282      1.0  0.5984532305676764  0.8865240734606242  0.889711222478536  1.0000
  H   H185      1.0  0.648034283977265  0.8062493557576041  0.9156342554754336  1.0000
  H   H186      1.0  0.608015923632839  0.7856287174031813  0.8646317919098548  1.0000
  H   H187      1.0  0.559741332540727  0.8943616950612577  0.8433642172156092  1.0000
  H   H188      1.0  0.5959337131725595  0.9147515635794911  0.8968993140565074  1.0000
  C   C283      1.0  0.558845526073818  0.08575242256076665  0.9265400774755616  1.0000
  C   C284      1.0  0.5938852743792665  0.09768902204815921  0.9499347570848151  1.0000
  C   C285      1.0  0.5968338349530561  0.632421078407798  0.9548841225089583  1.0000
  C   C286      1.0  0.570792592355255  0.6483952117742459  0.9286137354339387  1.0000
  C   C287      1.0  0.5306654162626064  0.6300499565582947  0.9138183875444527  1.0000
  C   C288      1.0  0.5320539197884792  0.11108261205728454  0.9077186640994804  1.0000
  H   H189      1.0  0.6152027586445589  0.07814907772574076  0.9641294090605778  1.0000
  H   H190      1.0  0.6277039645046316  0.6466948897544327  0.9664847273152583  1.0000
  H   H191      1.0  0.5096729982001449  0.6426257055784783  0.8940746534881587  1.0000
  H   H192      1.0  0.5045099306755326  0.1019290664677941  0.8899000320246928  1.0000
  N   N1        1.0  0.9155647630649387  0.01842241357230434  0.15004306636221765  1.0000
  C   C289      1.0  0.9363567903829205  0.0021158623168011648  0.18039734648464845  1.0000
  C   C290      1.0  0.9172127912966048  0.9915317293325424  0.12311878197950343  1.0000
  C   C291      1.0  0.9457791114284451  0.050449106716159875  0.14102066010310588  1.0000
  C   C292      1.0  0.8628900344826571  0.02966211534298857  0.15555360069134072  1.0000
  H   H193      1.0  0.9359723120500805  0.021769720377844193  0.20119135923214015  1.0000
  H   H194      1.0  0.9759755133021757  0.9930755687164803  0.17716721706109184  1.0000
  H   H195      1.0  0.914287230994435  0.9780282067687092  0.1882694156124598  1.0000
  H   H196      1.0  0.9016571284272576  0.0030828041062771483  0.09988204713551707  1.0000
  H   H197      1.0  0.9564503357300441  0.9825198712674426  0.11819637566768959  1.0000
  H   H198      1.0  0.8947655151729031  0.9669791322840144  0.12911665448815235  1.0000
  H   H199      1.0  0.9310479523918103  0.06350699779607427  0.11829102191076846  1.0000
  H   H200      1.0  0.9857909332317124  0.04313582107626579  0.13657314632461115  1.0000
  H   H201      1.0  0.9453041080374361  0.07149255867565518  0.1606677072314222  1.0000
  H   H202      1.0  0.8390513091537435  0.006345726156320675  0.1629901780167753  1.0000
  H   H203      1.0  0.845707608790697  0.04145697426981654  0.13295315607142255  1.0000
  H   H204      1.0  0.8602592021472124  0.05061329957340166  0.1751656125733907  1.0000
  N   N2        1.0  0.7346129848897661  0.6523539701020872  0.6771036834558157  1.0000
  C   C293      1.0  0.7650558383489465  0.6433245022952707  0.6480005240306488  1.0000
  C   C294      1.0  0.7605916023793726  0.639176287473605  0.707008769920879  1.0000
  C   C295      1.0  0.684936986541818  0.6347922330504133  0.674083602975396  1.0000
  C   C296      1.0  0.727646073642952  0.6921038981067755  0.6792863298622852  1.0000
  H   H205      1.0  0.7455474269539475  0.6515623789946305  0.6249252904853442  1.0000
  H   H206      1.0  0.7723669442014827  0.6135976204771603  0.6464851219282983  1.0000
  H   H207      1.0  0.8020582955855774  0.6572960086909274  0.648682234191069  1.0000
  H   H208      1.0  0.7391023689581733  0.6462343087190457  0.729480899924263  1.0000
  H   H209      1.0  0.7652763573089796  0.609092226944477  0.7066556553069212  1.0000
  H   H210      1.0  0.7986907612943223  0.6511856444651679  0.7096101116066805  1.0000
  H   H211      1.0  0.6600426444206116  0.6422289575504163  0.6947722522679297  1.0000
  H   H212      1.0  0.6883389022026969  0.6047630315054657  0.6742045390983815  1.0000
  H   H213      1.0  0.6654294364110368  0.6428852288993409  0.6509708270427937  1.0000
  H   H214      1.0  0.7058438693699268  0.6997402352476233  0.7015146828253693  1.0000
  H   H215      1.0  0.7067049941801956  0.7027714884995234  0.6576265203606896  1.0000
  H   H216      1.0  0.7642814024724986  0.7065609190324339  0.6803528053873277  1.0000
  N   N3        1.0  0.8442368040411408  0.5792376620662539  0.5174561887529882  1.0000
  C   C297      1.0  0.8059236580274296  0.5770126176826957  0.5434914732431434  1.0000
  C   C298      1.0  0.895031438271846  0.5755182566167127  0.532113195891428  1.0000
  C   C299      1.0  0.8400352915061033  0.6147279340263112  0.500750080454847  1.0000
  C   C300      1.0  0.8357975317409176  0.5497258373911121  0.49343743914086946  1.0000
  H   H217      1.0  0.7671564948212597  0.5796502431216909  0.5331222976243677  1.0000
  H   H218      1.0  0.8107729261449631  0.5989873932462481  0.5619821251852792  1.0000
  H   H219      1.0  0.8079168901480723  0.5506073981501677  0.5567046577955961  1.0000
  H   H220      1.0  0.9247631128780497  0.576679569777186  0.5130191363893287  1.0000
  H   H221      1.0  0.9030002016246629  0.5977355516030673  0.5499236681393574  1.0000
  H   H222      1.0  0.8995424013542214  0.549200802718997  0.5452204482240035  1.0000
  H   H223      1.0  0.8446921686983166  0.6376518184997448  0.518286040495999  1.0000
  H   H224      1.0  0.8029581250363528  0.6179165683259603  0.48818079170154566  1.0000
  H   H225      1.0  0.8694060513163878  0.6179434837764278  0.48172082329831206  1.0000
  H   H226      1.0  0.8645767180676576  0.5499493548062543  0.4737972033584448  1.0000
  H   H227      1.0  0.7985441405176833  0.5525064839944183  0.48099558374109164  1.0000
  H   H228      1.0  0.8374207211136814  0.5225534197226095  0.5052877668066174  1.0000
  N   N4        1.0  0.8112631027343998  0.5608899539605219  0.9483127593837528  1.0000
  C   C301      1.0  0.79183500585297  0.5265453813112887  0.9344182383075648  1.0000
  C   C302      1.0  0.8192033381748365  0.5873643299837561  0.9216039352052914  1.0000
  C   C303      1.0  0.8595160703795922  0.5538605364405267  0.965439262193922  1.0000
  C   C304      1.0  0.774430744244512  0.5757138004533389  0.9718263736197291  1.0000
  H   H229      1.0  0.7549939580395227  0.5307660053323742  0.9218851834236096  1.0000
  H   H230      1.0  0.7863916023605446  0.5056616841390492  0.9538312134633106  1.0000
  H   H231      1.0  0.8180097075491425  0.515051184329739  0.9158459547083179  1.0000
  H   H232      1.0  0.8458881574004858  0.576692388503455  0.9029299732366933  1.0000
  H   H233      1.0  0.7834169896227253  0.593653812242742  0.9084068146204657  1.0000
  H   H234      1.0  0.8346237808902244  0.6134071061293973  0.9311302028983448  1.0000
  H   H235      1.0  0.8750564083642091  0.5790697189044731  0.9766213110414704  1.0000
  H   H236      1.0  0.8882576540942515  0.5427799153365006  0.9483706576143343  1.0000
  H   H237      1.0  0.8549733589590972  0.533878888599888  0.9856546033860015  1.0000
  H   H238      1.0  0.7380021771091433  0.5824364252658806  0.9596254061117523  1.0000
  H   H239      1.0  0.7885134192068591  0.6008243663343754  0.983977442265126  1.0000
  H   H240      1.0  0.7662785823546944  0.5558512012455731  0.9915747344956765  1.0000
  N   N5        1.0  0.532764991088892  0.4721761672557757  0.4437970120859502  1.0000
  C   C305      1.0  0.5011973036973317  0.4423355321208609  0.45629893787527753  1.0000
  C   C306      1.0  0.5695361931733882  0.48311081805621575  0.46930785619853105  1.0000
  C   C307      1.0  0.5004152691893078  0.5035369954448281  0.43528389148528673  1.0000
  C   C308      1.0  0.559867160249057  0.45976931547809985  0.41426528181210404  1.0000
  H   H241      1.0  0.47324889297125794  0.4333667364820015  0.43755351952095045  1.0000
  H   H242      1.0  0.47968706078785267  0.45089551719295357  0.4783292645182182  1.0000
  H   H243      1.0  0.5242309767993847  0.4183143807107222  0.4633956618931677  1.0000
  H   H244      1.0  0.5945355276043702  0.46012130703288484  0.4764313948683378  1.0000
  H   H245      1.0  0.5937867364081921  0.5057285745676788  0.4606721409456131  1.0000
  H   H246      1.0  0.5504163665816354  0.4925999719679898  0.49197983803594697  1.0000
  H   H247      1.0  0.5230083404521703  0.5266010374482658  0.42572578706118713  1.0000
  H   H248      1.0  0.47938540793882495  0.5134704137502754  0.4571026741194299  1.0000
  H   H249      1.0  0.47212468714746614  0.49622531660001096  0.41614242777406774  1.0000
  H   H250      1.0  0.5839824779169507  0.4816879735667561  0.40407932576629146  1.0000
  H   H251      1.0  0.5332799982190359  0.4512254282672736  0.39450530409750717  1.0000
  H   H252      1.0  0.5847341269718862  0.4361763439772617  0.4197675786906174  1.0000
  N   N6        1.0  0.8518158035712243  0.7180294604138997  0.40674842844866993  1.0000
  C   C309      1.0  0.8452025626684952  0.7381061986513725  0.437849638851006  1.0000
  C   C310      1.0  0.802357982586793  0.705228452231714  0.39485135271419336  1.0000
  C   C311      1.0  0.8852753007225442  0.6865017301178657  0.4124957309256363  1.0000
  C   C312      1.0  0.8742395670427987  0.7421248639423019  0.3818325494441121  1.0000
  H   H253      1.0  0.8820181474935151  0.7461345950026949  0.4486174935415127  1.0000
  H   H254      1.0  0.8262274971115255  0.7211031821731991  0.4566168894717456  1.0000
  H   H255      1.0  0.8224223069558013  0.7631954022405295  0.4342200037476749  1.0000
  H   H256      1.0  0.7847351046113971  0.6863395746045702  0.41266596953677437  1.0000
  H   H257      1.0  0.7758768924165552  0.7282360762547027  0.39047686691581773  1.0000
  H   H258      1.0  0.8058602682093491  0.6904570435734838  0.3711591612863478  1.0000
  H   H259      1.0  0.8893441003334456  0.6695721974835951  0.3899897246040187  1.0000
  H   H260      1.0  0.8703827994415813  0.6685899717889702  0.4321172492779815  1.0000
  H   H261      1.0  0.9234760927004799  0.6951339531725294  0.4205431018451944  1.0000
  H   H262      1.0  0.878730487027627  0.7279020244453603  0.35789568300265684  1.0000
  H   H263      1.0  0.9119992379163558  0.7519671170475942  0.38957911195395883  1.0000
  H   H264      1.0  0.8504127897823281  0.7665513480357979  0.37723038967372746  1.0000
  N   N7        1.0  0.22276360836175235  0.8630034702190512  0.9350535496909108  1.0000
  C   C313      1.0  0.24011539061652254  0.8248566745319562  0.9365494999666493  1.0000
  C   C314      1.0  0.23363710605122612  0.8781128390818669  0.9022935579652008  1.0000
  C   C315      1.0  0.2492538682994767  0.884437574433244  0.960487419404561  1.0000
  C   C316      1.0  0.16799344429318475  0.864640529421462  0.9408523553812858  1.0000
  H   H265      1.0  0.23276950231923244  0.8125466945024554  0.9609611251438454  1.0000
  H   H266      1.0  0.28136070563640336  0.8225952925852136  0.9324577204218308  1.0000
  H   H267      1.0  0.22101159989059127  0.8078185552545596  0.9177155345810105  1.0000
  H   H268      1.0  0.22052262754649266  0.906759692238792  0.9002469788347706  1.0000
  H   H269      1.0  0.2746506415138572  0.8775011363239014  0.8971214130919379  1.0000
  H   H270      1.0  0.21418883508887676  0.8624329290633417  0.8825614316438785  1.0000
  H   H271      1.0  0.23696503636639576  0.9133576800587412  0.960393436940636  1.0000
  H   H272      1.0  0.2907834509314997  0.8835707419893488  0.9572216287123261  1.0000
  H   H273      1.0  0.24168699155402318  0.8736553064243963  0.9853912666246653  1.0000
  H   H274      1.0  0.15804427460637838  0.8525127720793371  0.964941303888598  1.0000
  H   H275      1.0  0.14658243320079123  0.8499990121054827  0.9214258643964616  1.0000
  H   H276      1.0  0.15405395253387133  0.8931768815047325  0.9410979330214979  1.0000
  N   N8        1.0  0.10858026628268369  0.7355903853694705  0.542834663445327  1.0000
  C   C317      1.0  0.1597737947881536  0.7198247609249998  0.5416092682370895  1.0000
  C   C318      1.0  0.07753160325434165  0.719903016988154  0.5161628786943718  1.0000
  C   C319      1.0  0.11138165386938657  0.7753824376938011  0.5386870798037378  1.0000
  C   C320      1.0  0.08563495221197115  0.7272328965172346  0.5748960309534712  1.0000
  H   H277      1.0  0.18418145825647383  0.7305518321819385  0.5616683798300931  1.0000
  H   H278      1.0  0.1787205861886089  0.7261509382194954  0.5180103473775141  1.0000
  H   H279      1.0  0.15890590899515258  0.6897091117832539  0.5441443654904432  1.0000
  H   H280      1.0  0.09290488816679845  0.7265629977015166  0.4915765818003092  1.0000
  H   H281      1.0  0.07612476957005224  0.6897709672478873  0.5178816906431959  1.0000
  H   H282      1.0  0.03805735429610734  0.7300709572949352  0.5169799293423558  1.0000
  H   H283      1.0  0.1282200392552744  0.782872009484388  0.51472141351337  1.0000
  H   H284      1.0  0.1350111327009099  0.787991240547568  0.5581718906032537  1.0000
  H   H285      1.0  0.07351024616918245  0.7882513301605825  0.5400692942898369  1.0000
  H   H286      1.0  0.10793483150109212  0.7389493789704579  0.595563138009416  1.0000
  H   H287      1.0  0.08304569864646698  0.6974076406181057  0.5789004610083618  1.0000
  H   H288      1.0  0.04689617217976361  0.7386285607287382  0.5767142100509908  1.0000
  N   N9        1.0  0.2359943319930604  0.1602021861298452  0.08739260956647366  1.0000
  C   C321      1.0  0.18694877012500982  0.1722269807273181  0.07407505935759451  1.0000
  C   C322      1.0  0.22810552810513413  0.13319301001045655  0.11363649316141511  1.0000
  C   C323      1.0  0.26284491276754274  0.19188108198698517  0.10098580648000621  1.0000
  C   C324      1.0  0.26590747895684724  0.1437144012693351  0.06078333883732667  1.0000
  H   H289      1.0  0.19136583570387777  0.19439547409743613  0.05584017938929953  1.0000
  H   H290      1.0  0.16195870910361176  0.1826316502627085  0.09376191023358138  1.0000
  H   H291      1.0  0.1672567633617309  0.14957938929582348  0.061405259207036655  1.0000
  H   H292      1.0  0.264468450653125  0.12365378141633201  0.12422943779612106  1.0000
  H   H293      1.0  0.20536127138168617  0.14470411302395053  0.13399277302992463  1.0000
  H   H294      1.0  0.20781871541312827  0.10891540482841941  0.10418949130714417  1.0000
  H   H295      1.0  0.2410543353496762  0.20519359366329185  0.12093126634416484  1.0000
  H   H296      1.0  0.2692372415813431  0.21260960488880717  0.08168931243742916  1.0000
  H   H297      1.0  0.30011669844115557  0.18415509162131644  0.11147462916753215  1.0000
  H   H298      1.0  0.30348212847412487  0.1346826240318848  0.06977247704687084  1.0000
  H   H299      1.0  0.2721073580002207  0.16333046751537802  0.040444778344056465  1.0000
  H   H300      1.0  0.24647352437777095  0.11960927316646489  0.05008861261250841  1.0000
  N   N10       1.0  0.4845209020115361  0.6199341871599119  0.7200685289315513  1.0000
  C   C325      1.0  0.4987815282297368  0.6580075035629769  0.7137714279999738  1.0000
  C   C326      1.0  0.4954237813976147  0.6107997876043286  0.754691502084911  1.0000
  C   C327      1.0  0.5136632628617593  0.5956898670913339  0.6983978534412656  1.0000
  C   C328      1.0  0.4302021554172611  0.6153751635118996  0.7133950667946117  1.0000
  H   H301      1.0  0.5393720112757007  0.662617795136013  0.7191944258607064  1.0000
  H   H302      1.0  0.476493426331105  0.676999580082684  0.7292123136763524  1.0000
  H   H303      1.0  0.4919341124089238  0.665555620539605  0.6876478713901443  1.0000
  H   H304      1.0  0.4855981324878719  0.5821278254730776  0.7601925292799048  1.0000
  H   H305      1.0  0.5360908709086477  0.6143411453942936  0.7605974795322905  1.0000
  H   H306      1.0  0.47357736093404773  0.6284385454016889  0.7716756408347341  1.0000
  H   H307      1.0  0.50415397257911  0.5666217891021067  0.7024068164568511  1.0000
  H   H308      1.0  0.5549089067951485  0.5984870004184116  0.7026817965481187  1.0000
  H   H309      1.0  0.5060480862013977  0.6018214795281096  0.6721227663563689  1.0000
  H   H310      1.0  0.41813548608156004  0.5868852643360708  0.7176115265619161  1.0000
  H   H311      1.0  0.42069286753269364  0.6223971682729952  0.68748778358408  1.0000
  H   H312      1.0  0.4071915260872792  0.6332917068520085  0.7295154854424911  1.0000
  N   N11       1.0  0.9365379489640353  0.16932249104393862  0.9171836879254004  1.0000
  C   C329      1.0  0.917281725253641  0.19039522387214444  0.8889059894228325  1.0000
  C   C330      1.0  0.8954335465929614  0.16330601452709376  0.9407742711881143  1.0000
  C   C331      1.0  0.9774951377662175  0.18967257275437796  0.9334556303330626  1.0000
  C   C332      1.0  0.956021031148077  0.1339220600490391  0.9056838118642554  1.0000
  H   H313      1.0  0.887966606691574  0.17496720132588484  0.875199823608594  1.0000
  H   H314      1.0  0.9478633275907815  0.1969869035973911  0.871392813509047  1.0000
  H   H315      1.0  0.900162043548574  0.21649928208115846  0.8969115980664873  1.0000
  H   H316      1.0  0.8639089349655725  0.1478804423227845  0.9294281126145729  1.0000
  H   H317      1.0  0.9085516457251118  0.14721557088949863  0.9622420356383231  1.0000
  H   H318      1.0  0.8799809313171055  0.18935037865010867  0.9502108635512627  1.0000
  H   H319      1.0  0.9927716038311084  0.17453075557453232  0.9549110800675118  1.0000
  H   H320      1.0  0.9643504136867047  0.21649124537955317  0.9427203460778715  1.0000
  H   H321      1.0  0.009362557258585143  0.19468291807600246  0.9165114532889402  1.0000
  H   H322      1.0  0.986914210634437  0.13736884929012702  0.8877001284874084  1.0000
  H   H323      1.0  0.9259097566885882  0.1175644295094691  0.8936816050444621  1.0000
  H   H324      1.0  0.971014461161525  0.11744258665252055  0.9264532663046097  1.0000
  N   N12       1.0  0.5546115663438884  0.3145176964005717  0.9792836605381223  1.0000
  C   C333      1.0  0.5004843622160678  0.305940075251937  0.9814289344074512  1.0000
  C   C334      1.0  0.5706116896641251  0.31187181948687753  0.9447249296543542  1.0000
  C   C335      1.0  0.5838647231485218  0.2883893909835092  0.9992905624496519  1.0000
  C   C336      1.0  0.5635237024769052  0.3517321950339614  0.9916196098066516  1.0000
  H   H325      1.0  0.48688768871758  0.30816535311154414  0.007087439318694155  1.0000
  H   H326      1.0  0.49263750557529445  0.2777778868649694  0.9728713010043165  1.0000
  H   H327      1.0  0.47738732235945797  0.32483855035757214  0.9662239636919734  1.0000
  H   H328      1.0  0.6110632268020921  0.31877482700819415  0.94203751866759  1.0000
  H   H329      1.0  0.5653722777175363  0.2838984880814778  0.9349875936694849  1.0000
  H   H330      1.0  0.5485569275911107  0.3305548367614438  0.9286816433157015  1.0000
  H   H331      1.0  0.5731021563807177  0.28982453043585277  0.025595510635883167  1.0000
  H   H332      1.0  0.6249067298278335  0.2938877144334715  0.997839937726153  1.0000
  H   H333      1.0  0.5776171463057987  0.2599677784108211  0.9908464777538718  1.0000
  H   H334      1.0  0.5421644572152817  0.3722103154038658  0.9770364238122701  1.0000
  H   H335      1.0  0.6040693981612364  0.359090030637176  0.990424078341722  1.0000
  H   H336      1.0  0.5518220246274939  0.35461854407778753  0.0176810959048328  1.0000
  N   N13       1.0  0.16406650630471553  0.8232616682625382  0.198311244895917  1.0000
  C   C337      1.0  0.20742771313395247  0.8116175940980013  0.1784108600211416  1.0000
  C   C338      1.0  0.16279070448532154  0.863334415312289  0.20000250664889663  1.0000
  C   C339      1.0  0.1690355539450343  0.808066235634145  0.2317208222243281  1.0000
  C   C340      1.0  0.11700830257924213  0.8100540563458126  0.1830015000342069  1.0000
  H   H337      1.0  0.2090069312052861  0.7815458133097546  0.17576555785805192  1.0000
  H   H338      1.0  0.24364667080648295  0.8209919981538304  0.1893059670113939  1.0000
  H   H339      1.0  0.20489301958690315  0.82302518082185  0.15327149337552748  1.0000
  H   H340      1.0  0.16071399189265148  0.8756483616291302  0.1750920664580249  1.0000
  H   H341      1.0  0.12971961187790138  0.8732042988551977  0.21399499367533892  1.0000
  H   H342      1.0  0.19712724170524218  0.8742889284377205  0.2121866445653786  1.0000
  H   H343      1.0  0.17106752213503937  0.777901766951969  0.2311657522171493  1.0000
  H   H344      1.0  0.13644351429313256  0.8158020553316984  0.2472475798897702  1.0000
  H   H345      1.0  0.20353024786072954  0.8182241759314262  0.24429489146264283  1.0000
  H   H346      1.0  0.08354824490639233  0.8178504523461566  0.19766960534582978  1.0000
  H   H347      1.0  0.11713657021532332  0.7799322030762421  0.18046845182208182  1.0000
  H   H348      1.0  0.11179716220208126  0.8214031291011796  0.15788353510767417  1.0000
  N   N14       1.0  0.7960258718480184  0.32110429298016674  0.7970072481893395  1.0000
  C   C341      1.0  0.8143001919693905  0.2840081913939652  0.7898866802460169  1.0000
  C   C342      1.0  0.8060938298106265  0.34479480656204115  0.7685423095532697  1.0000
  C   C343      1.0  0.8224881269341563  0.3352752139946785  0.8263288571109739  1.0000
  C   C344      1.0  0.7413588125431356  0.32028074073211  0.8032983260057167  1.0000
  H   H349      1.0  0.8078104260083927  0.26545243525768897  0.8109663956453723  1.0000
  H   H350      1.0  0.8553249130868467  0.28380146268867984  0.7845945972913914  1.0000
  H   H351      1.0  0.7944800304648885  0.27215065314582465  0.7682504934540102  1.0000
  H   H352      1.0  0.7950882282954188  0.37347391656874834  0.7735426544328663  1.0000
  H   H353      1.0  0.8468428802804803  0.34505907885266285  0.7624402694075336  1.0000
  H   H354      1.0  0.7853313275069392  0.3356288224512018  0.7462577990098049  1.0000
  H   H355      1.0  0.8115995673031896  0.3639357366430516  0.8315207556900991  1.0000
  H   H356      1.0  0.8639759915820427  0.3350153913634143  0.8228730048666633  1.0000
  H   H357      1.0  0.8141640123536493  0.3188819002980073  0.848525424759137  1.0000
  H   H358      1.0  0.7263732410398532  0.3479014556553487  0.8086444687827291  1.0000
  H   H359      1.0  0.7324349212085862  0.3025530443072593  0.8245840800314531  1.0000
  H   H360      1.0  0.7201822402562452  0.30929545976668305  0.7818230776276264  1.0000
  N   N15       1.0  0.413880630966286  0.08322760401709828  0.5625620287937378  1.0000
  C   C345      1.0  0.45391935814449147  0.10082530311090121  0.58215327542057  1.0000
  C   C346      1.0  0.4255375667942075  0.04412464479626621  0.5588699143363076  1.0000
  C   C347      1.0  0.41103512866986214  0.10033104720902397  0.5297842599184303  1.0000
  C   C348      1.0  0.3652193527842807  0.08776227523706814  0.5794216680192521  1.0000
  H   H361      1.0  0.44707707223299303  0.13055920951981026  0.584732950360731  1.0000
  H   H362      1.0  0.49117724833482884  0.09714887111625936  0.5704155415746955  1.0000
  H   H363      1.0  0.45654835601466454  0.08905317932981305  0.6072375475787866  1.0000
  H   H364      1.0  0.4619151414614996  0.03985975333153435  0.5459334760710652  1.0000
  H   H365      1.0  0.42870972200960367  0.03025218416984199  0.5830711325577168  1.0000
  H   H366      1.0  0.3959761628384814  0.029748852276644033  0.5444178013924443  1.0000
  H   H367      1.0  0.4032859251259554  0.1299929910402844  0.531603668835032  1.0000
  H   H368      1.0  0.3808835505254775  0.08795987517652049  0.5143985231196377  1.0000
  H   H369      1.0  0.44697198769534846  0.09699053556140935  0.5162371687930003  1.0000
  H   H370      1.0  0.36587997760621016  0.07483578484714815  0.6041043847312006  1.0000
  H   H371      1.0  0.33393154217923293  0.0751886342053032  0.5651581367526588  1.0000
  H   H372      1.0  0.355815451643672  0.1170268677183719  0.5830078043190631  1.0000
  N   N16       1.0  0.8257374256241251  0.04785904631649607  0.6760501002866436  1.0000
  C   C349      1.0  0.8341267598642522  0.03194812194334751  0.6432210978194889  1.0000
  C   C350      1.0  0.8743334435322822  0.05956350770845042  0.6902693750832473  1.0000
  C   C351      1.0  0.8028087037160414  0.020379338599592733  0.6976466974952598  1.0000
  C   C352      1.0  0.7917775582065377  0.07956826487947424  0.6731592444300177  1.0000
  H   H373      1.0  0.7981062810694114  0.023549283110099406  0.6314142900661932  1.0000
  H   H374      1.0  0.8588226081715005  0.007552814776611959  0.6445338380939343  1.0000
  H   H375      1.0  0.8523938657331376  0.05165574651048099  0.626443966460793  1.0000
  H   H376      1.0  0.8694419576762387  0.07190140356512678  0.715026250639378  1.0000
  H   H377      1.0  0.9008408134647118  0.03630840080505826  0.693269387441501  1.0000
  H   H378      1.0  0.8930417807350458  0.08015259654560385  0.6746241872647164  1.0000
  H   H379      1.0  0.7975465654154001  0.031116737713255294  0.7229004760564888  1.0000
  H   H380      1.0  0.8268160651809378  0.9956979280792437  0.6998477865776839  1.0000
  H   H381      1.0  0.7652172215017052  0.011733574781803256  0.6883172815854927  1.0000
  H   H382      1.0  0.7852779463389197  0.0924871441890648  0.6974673312371841  1.0000
  H   H383      1.0  0.7543068564385491  0.07173890997141477  0.6630562628841333  1.0000
  H   H384      1.0  0.8075990195957731  0.10066993257101504  0.6566895222491727  1.0000
  N   N17       1.0  0.07704992564660766  0.8483176796132113  0.737274406827505  1.0000
  C   C353      1.0  0.045890273990245596  0.8661338976041204  0.7625818775924182  1.0000
  C   C354      1.0  0.05319501114904335  0.813877247401103  0.727003325314666  1.0000
  C   C355      1.0  0.12757982772330198  0.8407458289007477  0.7510094479955902  1.0000
  C   C356      1.0  0.08170939237124947  0.8724468942924118  0.7084962847431249  1.0000
  H   H385      1.0  0.06270312811250796  0.8922671725247928  0.7708990291433334  1.0000
  H   H386      1.0  0.04238225755722346  0.8488259446950704  0.7848417619097079  1.0000
  H   H387      1.0  0.007267326419849284  0.8719475986905354  0.7533020626013698  1.0000
  H   H388      1.0  0.07691344456413433  0.7988965714065686  0.7091245717377647  1.0000
  H   H389      1.0  0.04750527158999817  0.7954077474850063  0.7482341066734346  1.0000
  H   H390      1.0  0.01594078525732234  0.8185139844299696  0.7150595373542229  1.0000
  H   H391      1.0  0.15313415453367854  0.8292929080859985  0.7320983474018052  1.0000
  H   H392      1.0  0.12575624364549204  0.820720453255438  0.771350774700041  1.0000
  H   H393      1.0  0.1454966809979086  0.8657416584862236  0.7609721737656093  1.0000
  H   H394      1.0  0.09948880001665293  0.8987355805916516  0.7153121109438096  1.0000
  H   H395      1.0  0.04434019534406586  0.8784491369792053  0.6972378186215945  1.0000
  H   H396      1.0  0.10528550502607775  0.8597429049934435  0.6890845480304498  1.0000
  N   N18       1.0  0.3878273221306215  0.4368829093778381  0.1586258600360131  1.0000
  C   C357      1.0  0.34648453841678317  0.4536743523212717  0.17745373819404686  1.0000
  C   C358      1.0  0.3675111678110301  0.42175558420378584  0.12769075301801447  1.0000
  C   C359      1.0  0.4110932691548159  0.4074509548221167  0.1781976679571673  1.0000
  C   C360      1.0  0.42616924211588614  0.46456318963327636  0.15109464347701218  1.0000
  H   H397      1.0  0.3601135546869309  0.4648498843075248  0.20128776042539998  1.0000
  H   H398      1.0  0.31675407194199606  0.43353953093003855  0.1833198333829451  1.0000
  H   H399      1.0  0.3280394856504128  0.4760420954776574  0.16344933560624697  1.0000
  H   H400      1.0  0.3384180802251865  0.4008054192089419  0.132465209506492  1.0000
  H   H401      1.0  0.34956740733400854  0.4431571713566324  0.11222264966481466  1.0000
  H   H402      1.0  0.3974119864255314  0.40882408402900605  0.11268805361625778  1.0000
  H   H403      1.0  0.4429516932406894  0.39465003221366723  0.16485490774296485  1.0000
  H   H404      1.0  0.38328135330064506  0.3859003290292855  0.18391200002534736  1.0000
  H   H405      1.0  0.4258497918672852  0.41778045407250874  0.202095441565614  1.0000
  H   H406      1.0  0.45792113422460534  0.4527360816677141  0.13688790012718877  1.0000
  H   H407      1.0  0.4424455154094799  0.4765135244985905  0.1738910152533677  1.0000
  H   H408      1.0  0.41004124315984564  0.4870983628534282  0.13614489867935942  1.0000
  N   N19       1.0  0.3761690986925204  0.31082723845400323  0.697705503615825  1.0000
  C   C361      1.0  0.4269150011859012  0.30538007501899544  0.6839590862377616  1.0000
  C   C362      1.0  0.3484830930546926  0.27609392294942053  0.6968706396290675  1.0000
  C   C363      1.0  0.34866278789903565  0.3382398325855178  0.6780545481159778  1.0000
  C   C364      1.0  0.38073150298013847  0.32362419383848484  0.7319765419066648  1.0000
  H   H409      1.0  0.44844350755802315  0.33129678567828275  0.6834758765624497  1.0000
  H   H410      1.0  0.4249281037060642  0.2952889496437161  0.658214623710166  1.0000
  H   H411      1.0  0.44913289961547154  0.28549401984574263  0.6986196968625896  1.0000
  H   H412      1.0  0.31047454620614395  0.2789026241779727  0.7079541140319487  1.0000
  H   H413      1.0  0.3434588899497603  0.26600247061345833  0.671284935269805  1.0000
  H   H414      1.0  0.36886916960003874  0.25463375841987046  0.7108441461548571  1.0000
  H   H415      1.0  0.31031199965336387  0.3431840750549715  0.6878935807391355  1.0000
  H   H416      1.0  0.34482984126342514  0.3296121477980317  0.6519774213698938  1.0000
  H   H417      1.0  0.36893599915775627  0.36468298988436154  0.6778386231345604  1.0000
  H   H418      1.0  0.3431450681842209  0.3272011067770116  0.7435060644664008  1.0000
  H   H419      1.0  0.4005717004645549  0.3501497370719237  0.7334508165025958  1.0000
  H   H420      1.0  0.4023253379849034  0.30397930904781284  0.7473100153281468  1.0000
  N   N20       1.0  0.03330165894967929  0.6465322035309737  0.7410860599918494  1.0000
  C   C365      1.0  0.07606266277439333  0.6413393975248112  0.7185776603970665  1.0000
  C   C366      1.0  0.00511851816324338  0.6796382838434584  0.7317497538055024  1.0000
  C   C367      1.0  0.0525010749526833  0.6504285443695286  0.7750131242088049  1.0000
  C   C368      1.0  0.9996313546456277  0.6147105754629668  0.7391470250202892  1.0000
  H   H421      1.0  0.09848557743507946  0.6168509290849873  0.725361110608001  1.0000
  H   H422      1.0  0.10200844254849689  0.6650439880274882  0.7193358018831855  1.0000
  H   H423      1.0  0.06303176454526539  0.6378903420093763  0.6927634954749843  1.0000
  H   H424      1.0  0.9725382040099881  0.6842032174685101  0.7482677172248314  1.0000
  H   H425      1.0  0.029409805100821137  0.7041551997604519  0.7333017285148664  1.0000
  H   H426      1.0  0.9905233194550466  0.6778840507446311  0.7061398863855047  1.0000
  H   H427      1.0  0.07989781571943676  0.6730340227276991  0.7772240612258323  1.0000
  H   H428      1.0  0.07180153105886708  0.6252022683615597  0.7834652806868118  1.0000
  H   H429      1.0  0.02152114897862267  0.656207554667812  0.7924687224891902  1.0000
  H   H430      1.0  0.968373928076106  0.6168097151055562  0.7571278431724969  1.0000
  H   H431      1.0  0.020222298777570865  0.5890818084625745  0.7449317035553721  1.0000
  H   H432      1.0  0.9827840720730833  0.6115336024716831  0.7142557767553213  1.0000
  N   N21       1.0  0.03664158559936981  0.9204921969082818  0.4839946073927776  1.0000
  C   C369      1.0  0.02174554446963283  0.882352846611532  0.48943787366815333  1.0000
  C   C370      1.0  0.0430598503421542  0.9389385032287405  0.5159748764103756  1.0000
  C   C371      1.0  0.9971975354537048  0.9393169460237971  0.46467749614327813  1.0000
  C   C372      1.0  0.08461941185354785  0.9213993275278883  0.465949125926435  1.0000
  H   H433      1.0  0.051394866380002784  0.867118008304897  0.503155054381707  1.0000
  H   H434      1.0  0.014739822577904071  0.8679887622829827  0.4657693496611727  1.0000
  H   H435      1.0  0.9865574080960273  0.8806725296736735  0.5039886362192904  1.0000
  H   H436      1.0  0.05374871783168289  0.9679012454196455  0.5127161988682126  1.0000
  H   H437      1.0  0.007755192429691694  0.9382533019372411  0.530478068156135  1.0000
  H   H438      1.0  0.07311843368311526  0.925779691507092  0.5310071525563761  1.0000
  H   H439      1.0  0.007112744178422002  0.9682409981565832  0.4602044974560307  1.0000
  H   H440      1.0  0.9604588146434753  0.9389671553553077  0.4775528440413458  1.0000
  H   H441      1.0  0.9916374197489135  0.9263816901468546  0.4401957983907355  1.0000
  H   H442      1.0  0.09717735583149277  0.9498157011815979  0.46175430542327606  1.0000
  H   H443      1.0  0.08086938261902814  0.9082924069596607  0.44141912993626614  1.0000
  H   H444      1.0  0.11511433666581593  0.9071345258247575  0.479762702702099  1.0000
  N   N22       1.0  0.5151271161932851  0.7788995339738953  0.9613512370106693  1.0000
  C   C373      1.0  0.4969224441676994  0.7885799773311223  0.9944318772345752  1.0000
  C   C374      1.0  0.49007749344505513  0.7452670848162504  0.9501363424569752  1.0000
  C   C375      1.0  0.5701061058183177  0.7730323648299267  0.9625744529000091  1.0000
  C   C376      1.0  0.5035076364643111  0.8086940830310513  0.9381971097289149  1.0000
  H   H445      1.0  0.455321914685176  0.7923272578033108  0.9946179351459077  1.0000
  H   H446      1.0  0.5141275252905397  0.814334979084132  0.003379258725603629  1.0000
  H   H447      1.0  0.5061199626852689  0.7670029495888208  0.012625294656139152  1.0000
  H   H448      1.0  0.4996743018497921  0.7218336296382831  0.9662959351200887  1.0000
  H   H449      1.0  0.4484228149432157  0.7483112175514612  0.9497523864611057  1.0000
  H   H450      1.0  0.5019996719185275  0.7376854349253475  0.9249259996274327  1.0000
  H   H451      1.0  0.5903938216268199  0.7979910503095006  0.9705827209852942  1.0000
  H   H452      1.0  0.5848209611028103  0.7652680537554938  0.9380474633977479  1.0000
  H   H453      1.0  0.580483757892479  0.7506274237845707  0.9796621878933169  1.0000
  H   H454      1.0  0.5171949043067275  0.8023041293384238  0.9130745055734989  1.0000
  H   H455      1.0  0.5217896466032923  0.8345440512287  0.9459697589152445  1.0000
  H   H456      1.0  0.46231672150213354  0.813668658720648  0.9363790660269595  1.0000
  N   N23       1.0  0.21393650942686573  0.3643203660412782  0.41805980582454966  1.0000
  C   C377      1.0  0.23314004966874105  0.36724569009070573  0.4520930040639072  1.0000
  C   C378      1.0  0.2231550602322076  0.3271957103977454  0.40565831354268805  1.0000
  C   C379      1.0  0.24013420214342632  0.3908472439592342  0.3970745165371567  1.0000
  C   C380      1.0  0.1593505382972293  0.37197770576305456  0.4174377611761022  1.0000
  H   H457      1.0  0.22875153140783153  0.3953524713024537  0.461768671845983  1.0000
  H   H458      1.0  0.2737353583199858  0.35996374830211053  0.4537811787479905  1.0000
  H   H459      1.0  0.212528643881446  0.34898495514118566  0.469029915487907  1.0000
  H   H460      1.0  0.20867970956304896  0.3238954050059616  0.3801304737112925  1.0000
  H   H461      1.0  0.26404415281362276  0.32070156367960867  0.4055638041194698  1.0000
  H   H462      1.0  0.2043782675091621  0.30653873568691975  0.42127600407624266  1.0000
  H   H463      1.0  0.22632098972363066  0.3897642307836154  0.3712514547094055  1.0000
  H   H464      1.0  0.2813276133873038  0.3856320388302251  0.39668677731181523  1.0000
  H   H465      1.0  0.23457653694216302  0.41914649203390236  0.4060703370831723  1.0000
  H   H466      1.0  0.14385332152057773  0.3716802664272516  0.39201329150146746  1.0000
  H   H467      1.0  0.15082464879849378  0.39907776703496683  0.4282091280282704  1.0000
  H   H468      1.0  0.1380950437430793  0.35153634264976136  0.43181955812911627  1.0000
  N   N24       1.0  0.39206668812409806  0.8079745693899792  0.4606391541727322  1.0000
  C   C381      1.0  0.42360138720162294  0.7938354525861822  0.4337392645276644  1.0000
  C   C382      1.0  0.4116207743282263  0.794499428748359  0.49243175095201636  1.0000
  C   C383      1.0  0.339835044197781  0.795392339566567  0.45577988065650515  1.0000
  C   C384      1.0  0.3930881351915219  0.8481170404890661  0.46056013125696527  1.0000
  H   H469      1.0  0.4086786651262977  0.8023549091568054  0.40931542297988993  1.0000
  H   H470      1.0  0.42505357091218593  0.7636492308296265  0.43374658954322975  1.0000
  H   H471      1.0  0.4630388760328859  0.8037144351720685  0.43570840581075143  1.0000
  H   H472      1.0  0.3887534737057152  0.804833861978122  0.5132512873118991  1.0000
  H   H473      1.0  0.4105931197630801  0.764305603225473  0.4936562948297425  1.0000
  H   H474      1.0  0.451146270847123  0.803196462458048  0.49671173657785145  1.0000
  H   H475      1.0  0.3239024455837273  0.8051754450643126  0.432021013787751  1.0000
  H   H476      1.0  0.3148983476539037  0.8053652616714204  0.47561041379943153  1.0000
  H   H477      1.0  0.33764613503418006  0.7652189239461573  0.4558607635926908  1.0000
  H   H478      1.0  0.37001828129783176  0.8596798439006189  0.4807873300345287  1.0000
  H   H479      1.0  0.37802625442330773  0.859272375007571  0.437082502054851  1.0000
  H   H480      1.0  0.43201409848687733  0.8586101140678831  0.46371476709212417  1.0000
  N   N25       1.0  0.6541624439965446  0.10981613650498728  0.05914375381245063  1.0000
  C   C385      1.0  0.68806601646469  0.10366449035635707  0.031079184260952353  1.0000
  C   C386      1.0  0.6732617926353774  0.14037815324271313  0.07914789153315605  1.0000
  C   C387      1.0  0.652357751258893  0.0766642089516541  0.07951369086901816  1.0000
  C   C388      1.0  0.6030915186743938  0.11849841163862326  0.04687802158925147  1.0000
  H   H481      1.0  0.6749797611844458  0.08059197843056787  0.015577456746406426  1.0000
  H   H482      1.0  0.7268067496068572  0.09670451553201342  0.03958933024540956  1.0000
  H   H483      1.0  0.6907561211296117  0.12809998817249224  0.015226512543133675  1.0000
  H   H484      1.0  0.6739502574210169  0.16610455594939066  0.06490442811630848  1.0000
  H   H485      1.0  0.6498518196870264  0.14484749170702352  0.10134669277304442  1.0000
  H   H486      1.0  0.7122272134442398  0.13501321631215574  0.08802654762094608  1.0000
  H   H487      1.0  0.6299625066563453  0.08083864258221339  0.10216765047746224  1.0000
  H   H488      1.0  0.6907228525283706  0.06801083719035587  0.08739069990502957  1.0000
  H   H489      1.0  0.6359434116224467  0.053389965975469744  0.0658056459348173  1.0000
  H   H490      1.0  0.5878821687537888  0.09616250538588572  0.031301496411959784  1.0000
  H   H491      1.0  0.6028977303499226  0.14357720410941366  0.0316525040247988  1.0000
  H   H492      1.0  0.576470515863477  0.12274807533969388  0.06748664995414311  1.0000
  N   N26       1.0  0.7389879800274639  0.8978575426919454  0.8404905382505709  1.0000
  C   C389      1.0  0.7815339648651712  0.9041230949242861  0.8181479347454035  1.0000
  C   C390      1.0  0.7559732214565714  0.9024328932334434  0.8748866078799622  1.0000
  C   C391      1.0  0.7199644764734572  0.8605879277777896  0.8357048449450432  1.0000
  C   C392      1.0  0.6985064919488864  0.9242814666256909  0.8331741298223129  1.0000
  H   H493      1.0  0.7699606937712414  0.9011335562859897  0.7919865016866052  1.0000
  H   H494      1.0  0.813099667126301  0.8849302606141548  0.8231667913237122  1.0000
  H   H495      1.0  0.7967056119993536  0.9319389029980447  0.8212510589530042  1.0000
  H   H496      1.0  0.724789214646599  0.8977393711652023  0.8924684725272698  1.0000
  H   H497      1.0  0.7867854409711611  0.8830915968128505  0.881235700841888  1.0000
  H   H498      1.0  0.7706367022023001  0.9302572144003942  0.8794462887995216  1.0000
  H   H499      1.0  0.7053534277982878  0.8563545616824075  0.8103238689731201  1.0000
  H   H500      1.0  0.688677882829842  0.854796046329473  0.8527013059187688  1.0000
  H   H501      1.0  0.7497599369128928  0.8399604095706434  0.8405483753015391  1.0000
  H   H502      1.0  0.7118340975990932  0.9526809366997718  0.8361618711043349  1.0000
  H   H503      1.0  0.6660407602374377  0.9206504690692954  0.8498126562596056  1.0000
  H   H504      1.0  0.6844023874000495  0.921434620119159  0.8074997181238291  1.0000
  N   N27       1.0  0.8738492068809106  0.15445098668749013  0.3133957295256918  1.0000
  C   C393      1.0  0.8677814858653367  0.12921279719279077  0.28543213683811536  1.0000
  C   C394      1.0  0.8491780125895129  0.1391601755872789  0.34266393262285166  1.0000
  C   C395      1.0  0.8503987814503889  0.18974734608989885  0.30511680529750285  1.0000
  C   C396      1.0  0.9279521228076716  0.15968396023212605  0.32042201854168134  1.0000
  H   H505      1.0  0.8273257009688632  0.12469274957632503  0.2795612146976536  1.0000
  H   H506      1.0  0.884819212884351  0.10220702396475612  0.2909209099145691  1.0000
  H   H507      1.0  0.8858563199971574  0.13986639289962244  0.2628759937613571  1.0000
  H   H508      1.0  0.8546366404779193  0.1568884495381886  0.36454472266170235  1.0000
  H   H509      1.0  0.8080440793436594  0.13578282188223278  0.3386228501681453  1.0000
  H   H510      1.0  0.8648746141124039  0.11201866700396801  0.34908127665633715  1.0000
  H   H511      1.0  0.8540532618004657  0.20939046002631234  0.3257884838468762  1.0000
  H   H512      1.0  0.8095305136019707  0.1866617030854678  0.29954135383706004  1.0000
  H   H513      1.0  0.8681661007536114  0.20218091270198513  0.28319442035764264  1.0000
  H   H514      1.0  0.9465128230972472  0.13363590566711903  0.3274358387799955  1.0000
  H   H515      1.0  0.9338950283856857  0.1787438657598912  0.34134726247198993  1.0000
  H   H516      1.0  0.9480595696362834  0.1708278344673062  0.29884047068096314  1.0000
  N   N28       1.0  0.43240541364906926  0.2806289556016568  0.4248055472797761  1.0000
  C   C397      1.0  0.4518427239252008  0.312763032561897  0.44250708196868704  1.0000
  C   C398      1.0  0.39587016700429317  0.2924837846370662  0.3995688528853379  1.0000
  C   C399      1.0  0.4072154317517154  0.2560954677800387  0.4481058676337478  1.0000
  C   C400      1.0  0.47455973947199453  0.26132219798534656  0.40891003976279544  1.0000
  H   H517      1.0  0.47972388174463626  0.30488220401437166  0.46175050251798383  1.0000
  H   H518      1.0  0.42096897220748253  0.32809885579795645  0.45467109805783096  1.0000
  H   H519      1.0  0.4706132715678915  0.331970540653817  0.42548283513118823  1.0000
  H   H520      1.0  0.3805470032419115  0.2690535481083761  0.3854344667377933  1.0000
  H   H521      1.0  0.36396829590676183  0.30771124447070686  0.41058572133097865  1.0000
  H   H522      1.0  0.4140219274684696  0.3107255708014371  0.38161381236376457  1.0000
  H   H523      1.0  0.43387223644352885  0.2462272849045297  0.4672332239359836  1.0000
  H   H524      1.0  0.39153146347128837  0.23184790486102397  0.4354212621977235  1.0000
  H   H525      1.0  0.3756866076495739  0.27006242745246467  0.4608521771811606  1.0000
  H   H526      1.0  0.4612476757958953  0.23703325914538417  0.39510650375707934  1.0000
  H   H527      1.0  0.5030907272720553  0.2521816772089444  0.42727579357323364  1.0000
  H   H528      1.0  0.49397316820819825  0.27902965184238493  0.39085795201442797  1.0000
  N   N29       1.0  0.4827258748039023  0.27747876146020223  0.1894652375151384  1.0000
  C   C401      1.0  0.4465359699468256  0.3057333992411797  0.17896623495113004  1.0000
  C   C402      1.0  0.5300754888752047  0.29477763805278806  0.20035622968367248  1.0000
  C   C403      1.0  0.4931279899521183  0.2528869308483604  0.16163416589529378  1.0000
  C   C404      1.0  0.46111695643825085  0.2564397977037488  0.21679034067630362  1.0000
  H   H529      1.0  0.4376488769283511  0.32465697653868875  0.19944041622370642  1.0000
  H   H530      1.0  0.4104234233185126  0.2934296559789062  0.17071172059525105  1.0000
  H   H531      1.0  0.4614646678850098  0.32188650814259495  0.15811802320568155  1.0000
  H   H532      1.0  0.5241181119237418  0.31244510942289916  0.222197675388094  1.0000
  H   H533      1.0  0.5589198484391542  0.27407569927070824  0.2072201263178442  1.0000
  H   H534      1.0  0.5465021839469731  0.311858054356593  0.1806418157572338  1.0000
  H   H535      1.0  0.519454540820797  0.23070081645643858  0.1689432728206044  1.0000
  H   H536      1.0  0.5106304550361609  0.2677351460401933  0.14088918677779858  1.0000
  H   H537      1.0  0.4579893833017227  0.24016263582759223  0.15211057890819  1.0000
  H   H538      1.0  0.4875666697169688  0.2349685509695767  0.22541508803133942  1.0000
  H   H539      1.0  0.42548296730033425  0.24287424110732675  0.20928501701449978  1.0000
  H   H540      1.0  0.45252688345238706  0.2740891876646422  0.23826547955260965  1.0000
  N   N30       1.0  0.1566735041425536  0.3088886277857607  0.5940701123937768  1.0000
  C   C405      1.0  0.1847552854856772  0.2756465850637781  0.6032705855192202  1.0000
  C   C406      1.0  0.11106275962394575  0.29883861661148453  0.5752442639778044  1.0000
  C   C407      1.0  0.18894062156142372  0.33229934638940944  0.5736429846554167  1.0000
  C   C408      1.0  0.14183773181938253  0.328784248214607  0.6240566214370076  1.0000
  H   H541      1.0  0.21996253800247517  0.282199147955462  0.6169076906126164  1.0000
  H   H542      1.0  0.19556727189548137  0.2596104310533838  0.5812090412489089  1.0000
  H   H543      1.0  0.16212268069541885  0.2576268249102235  0.6193042484078126  1.0000
  H   H544      1.0  0.08945617713875874  0.32336019209413597  0.5673824167420315  1.0000
  H   H545      1.0  0.12064904299537625  0.2832494415683116  0.5526910931753257  1.0000
  H   H546      1.0  0.0853204534678597  0.28189961970797156  0.5901182437067664  1.0000
  H   H547      1.0  0.16876525798698214  0.35745740729794057  0.5657353162034833  1.0000
  H   H548      1.0  0.2014250422545649  0.3179657420798937  0.5510105677956117  1.0000
  H   H549      1.0  0.2234375556923762  0.3408513661379281  0.5871247268998991  1.0000
  H   H550      1.0  0.17510731121317824  0.33689466242187716  0.6390077675340134  1.0000
  H   H551      1.0  0.11733965920016942  0.31202992556799247  0.6401059350102525  1.0000
  H   H552      1.0  0.120373245199664  0.35397318982057546  0.6180244318858332  1.0000
  N   N31       1.0  0.6854986981204506  0.9620258967664013  0.3046104080506759  1.0000
  C   C409      1.0  0.6974366277458962  0.9323047655499666  0.32777388249860034  1.0000
  C   C410      1.0  0.672744894991251  0.9952135279577371  0.32325436223853726  1.0000
  C   C411      1.0  0.6421965661464996  0.9514087800667956  0.2838265477017671  1.0000
  C   C412      1.0  0.7295096868936666  0.9691531826331745  0.28367293729691306  1.0000
  H   H553      1.0  0.7070056664858781  0.9067581432601408  0.31455285992940285  1.0000
  H   H554      1.0  0.6648508157230241  0.9263466184413662  0.3439726120042786  1.0000
  H   H555      1.0  0.7299772502065213  0.9393701559283612  0.34386230699896875  1.0000
  H   H556      1.0  0.6405140335802713  0.9904550634729122  0.3399980509448124  1.0000
  H   H557      1.0  0.7051113703931847  0.0047560893952884875  0.3384043558264064  1.0000
  H   H558      1.0  0.66209686782283  0.018009748716039997  0.30660233610332754  1.0000
  H   H559      1.0  0.6512625608884732  0.9276336580078649  0.26806561143334795  1.0000
  H   H560      1.0  0.6298162627582721  0.9740706574869021  0.2675257109068505  1.0000
  H   H561      1.0  0.6094449756827226  0.9436043614684136  0.2990820025521289  1.0000
  H   H562      1.0  0.7220279448863804  0.9919796860459691  0.26641747638623137  1.0000
  H   H563      1.0  0.7398683439960217  0.9449180495355624  0.26883703473923964  1.0000
  H   H564      1.0  0.7630883946049587  0.9765912809018215  0.29865832783630347  1.0000
  N   N32       1.0  0.42714458472397615  0.8076065003169812  0.7434952006563003  1.0000
  C   C413      1.0  0.42188397895185303  0.7974101413411486  0.7783998537139981  1.0000
  C   C414      1.0  0.4116794060359357  0.776739130335965  0.722523694043668  1.0000
  C   C415      1.0  0.48008589555363246  0.8169660618140757  0.7367434268303296  1.0000
  C   C416      1.0  0.39502373344095215  0.8394621215020794  0.7362527546658747  1.0000
  H   H565      1.0  0.44496412834432714  0.7730947472409639  0.7845261726022663  1.0000
  H   H566      1.0  0.3822553202723509  0.7905002599694023  0.7844102785388611  1.0000
  H   H567      1.0  0.4343441641057466  0.8196805034529129  0.7950414258320699  1.0000
  H   H568      1.0  0.41411398368177377  0.7836015808711496  0.6959613469474512  1.0000
  H   H569      1.0  0.43536833784040035  0.7523040044573396  0.7272029796840627  1.0000
  H   H570      1.0  0.3720365033959864  0.7687887790740066  0.7271806579592675  1.0000
  H   H571      1.0  0.48527201561069977  0.8250121064172699  0.7106634458779503  1.0000
  H   H572      1.0  0.505692365936173  0.7937594797913395  0.7417967093573864  1.0000
  H   H573      1.0  0.493179033054292  0.8398700447101318  0.7524792405120944  1.0000
  H   H574      1.0  0.397024681334922  0.8472006560196746  0.7098567689405124  1.0000
  H   H575      1.0  0.40631615751776823  0.8634393356232625  0.7511602890110636  1.0000
  H   H576      1.0  0.3548607447541226  0.8338399807054313  0.7414285749904748  1.0000
  N   N33       1.0  0.6482032208320713  0.08318484756727385  0.8413851350863109  1.0000
  C   C417      1.0  0.6603421650922705  0.04574026085464511  0.8310914601696567  1.0000
  C   C418      1.0  0.6733308726871697  0.10935476622949336  0.8195574242976494  1.0000
  C   C419      1.0  0.6657708799678684  0.08890541095351878  0.8755005304444702  1.0000
  C   C420      1.0  0.5932432224203049  0.08866863960733262  0.8393399269318913  1.0000
  H   H577      1.0  0.6434165395273522  0.025432338182892922  0.8479523305535763  1.0000
  H   H578      1.0  0.7015979635737941  0.04103048015595445  0.8308777411111495  1.0000
  H   H579      1.0  0.6457410275130839  0.039924149650764296  0.8059979083789265  1.0000
  H   H580      1.0  0.6600696231936375  0.10657068294880534  0.7937759679691715  1.0000
  H   H581      1.0  0.6655606485087382  0.13777631694672055  0.8271912479659843  1.0000
  H   H582      1.0  0.7148699058536926  0.10560905620881655  0.8199468989419663  1.0000
  H   H583      1.0  0.648833412642585  0.06883507227621433  0.8925170431445699  1.0000
  H   H584      1.0  0.655564948277853  0.11647493623413796  0.8846074437733282  1.0000
  H   H585      1.0  0.7073686249452764  0.08601414561386411  0.8776403534669087  1.0000
  H   H586      1.0  0.5823554244969025  0.11619450285593436  0.8479940587789937  1.0000
  H   H587      1.0  0.5729871693389754  0.06857087957151142  0.8546795969559678  1.0000
  H   H588      1.0  0.5790249056828337  0.08558882724969674  0.813765886900154  1.0000
  N   N34       1.0  0.7222947220104611  0.8840042199533816  0.5551935288220832  1.0000
  C   C421      1.0  0.7541500018008043  0.913891374540568  0.5676849485213664  1.0000
  C   C422      1.0  0.7228789906412263  0.8841569336168581  0.5189211231621064  1.0000
  C   C423      1.0  0.6701932997484199  0.8890552780072027  0.5668097224283286  1.0000
  C   C424      1.0  0.74214941434655  0.8489015573615124  0.5672900345016647  1.0000
  H   H589      1.0  0.7544907123876148  0.9147074615204861  0.5949753519356787  1.0000
  H   H590      1.0  0.7404762150533966  0.9408211944176418  0.5588404592473961  1.0000
  H   H591      1.0  0.793805858980118  0.9108227227898181  0.5593985921805462  1.0000
  H   H592      1.0  0.6994848851341008  0.8618318791864239  0.508596973420372  1.0000
  H   H593      1.0  0.7081040399827051  0.9102423542478734  0.5089243994169034  1.0000
  H   H594      1.0  0.7618204865701077  0.8805183122952044  0.5094419898529072  1.0000
  H   H595      1.0  0.6539215802832101  0.9153513312592706  0.5583317494294657  1.0000
  H   H596      1.0  0.6683432163125945  0.8890385025169021  0.5941159164748007  1.0000
  H   H597      1.0  0.6449715898638183  0.8670610633377509  0.5578633088120613  1.0000
  H   H598      1.0  0.7189647822483333  0.8256370311996021  0.5585310784195731  1.0000
  H   H599      1.0  0.7426744399739857  0.8477151485764574  0.5945930242175986  1.0000
  H   H600      1.0  0.7812487956047609  0.8442017885948229  0.5587025383204872  1.0000
  N   N35       1.0  0.5138371624371658  0.16782599465071887  0.6959813706867112  1.0000
  C   C425      1.0  0.5275915222518606  0.15527819166538134  0.6627543386854209  1.0000
  C   C426      1.0  0.5551789940022277  0.15941272763599434  0.7192435421467669  1.0000
  C   C427      1.0  0.4675696904764489  0.14915222978146564  0.7065247162333823  1.0000
  C   C428      1.0  0.5049460916862203  0.20745106410561073  0.6953877713674366  1.0000
  H   H601      1.0  0.49796756686791116  0.16223895064744645  0.6443888758627976  1.0000
  H   H602      1.0  0.5331646167175617  0.12532856103963244  0.6621264209240973  1.0000
  H   H603      1.0  0.5633806753691107  0.1678211248464977  0.6544902551185473  1.0000
  H   H604      1.0  0.5461173166372496  0.16873759501551613  0.7445538147640428  1.0000
  H   H605      1.0  0.5628485230293361  0.12970500773733862  0.7202939799335152  1.0000
  H   H606      1.0  0.5908658809224431  0.1727652160422627  0.7118680172417758  1.0000
  H   H607      1.0  0.4730258026555434  0.11921475203263006  0.707415782044613  1.0000
  H   H608      1.0  0.4356121818333991  0.15487157099542717  0.6895083892183529  1.0000
  H   H609      1.0  0.4559947637459805  0.1580874991203059  0.7314638572254138  1.0000
  H   H610      1.0  0.5391014577620452  0.2223422786602317  0.6874385786044697  1.0000
  H   H611      1.0  0.49463329215942387  0.21779574402069568  0.7201382342667371  1.0000
  H   H612      1.0  0.473780949878014  0.21464688217232378  0.678177946401269  1.0000
  N   N36       1.0  0.13427399946433916  0.6740383820510271  0.9610180696165399  1.0000
  C   C429      1.0  0.16125376334070052  0.6608171730477922  0.9317341509138977  1.0000
  C   C430      1.0  0.08342049574742672  0.6865844566116841  0.9514190761346036  1.0000
  C   C431      1.0  0.16249166712205332  0.7044799916484774  0.975921330359948  1.0000
  C   C432      1.0  0.129895311300811  0.644243681887276  0.9850615714312032  1.0000
  H   H613      1.0  0.2001700155150663  0.6518664799119168  0.9380667278467459  1.0000
  H   H614      1.0  0.164631632456947  0.6824928616286562  0.9128844499056396  1.0000
  H   H615      1.0  0.14156791714837924  0.6374158423438315  0.9201542784936941  1.0000
  H   H616      1.0  0.060842611461716434  0.6642908422789858  0.9402703200642051  1.0000
  H   H617      1.0  0.06214790683883864  0.6969712304793257  0.9729236184765855  1.0000
  H   H618      1.0  0.08503959987722198  0.7088501410535055  0.9330648907654123  1.0000
  H   H619      1.0  0.14327871582922014  0.7151279522383909  0.9981746415339849  1.0000
  H   H620      1.0  0.16685065047591685  0.7273242653863963  0.9582994451856192  1.0000
  H   H621      1.0  0.200999672207691  0.6958728265439993  0.9835727185066783  1.0000
  H   H622      1.0  0.10955461906094399  0.6531938686205108  0.007477108926788212  1.0000
  H   H623      1.0  0.1674771783207054  0.634128088142006  0.9931862838587928  1.0000
  H   H624      1.0  0.10901647852650753  0.62067493652587  0.9747572388772066  1.0000
  N   N37       1.0  0.7069304248091184  0.1381080478234519  0.48113126105779663  1.0000
  C   C433      1.0  0.7515423245133096  0.1278350926784659  0.5009007969526043  1.0000
  C   C434      1.0  0.7233013096172994  0.15250638641856842  0.44910379420170815  1.0000
  C   C435      1.0  0.6779545423877729  0.16626866935507156  0.4987397196682574  1.0000
  C   C436      1.0  0.6749762564702828  0.10581280339796509  0.475834085082167  1.0000
  H   H625      1.0  0.7743140529879496  0.10648407217537988  0.48852382060018557  1.0000
  H   H626      1.0  0.7405198618177099  0.11692239859036611  0.5252226539832029  1.0000
  H   H627      1.0  0.7767000454911638  0.1514823958562508  0.5054734382067717  1.0000
  H   H628      1.0  0.6905341624286112  0.16057742517692195  0.4335397379106833  1.0000
  H   H629      1.0  0.7476112097089413  0.1768630295456086  0.4522531315266578  1.0000
  H   H630      1.0  0.745331993428812  0.13192512834707767  0.4351860654143783  1.0000
  H   H631      1.0  0.7010093128191309  0.19094264526119253  0.5034368203856515  1.0000
  H   H632      1.0  0.6646689359738582  0.15618856691989785  0.5229104431313274  1.0000
  H   H633      1.0  0.6441244025535284  0.17487581251555057  0.4844554820327019  1.0000
  H   H634      1.0  0.6619968830529617  0.09418792896394608  0.4995013542071032  1.0000
  H   H635      1.0  0.6955603573572631  0.0839438946016325  0.4626290828376746  1.0000
  H   H636      1.0  0.6406832790272505  0.11253741802189286  0.46119129364755707  1.0000
  N   N38       1.0  0.9642817370879538  0.964532495972556  0.9551614199670924  1.0000
  C   C437      1.0  0.9739674976979442  0.9827157342243195  0.9869430963957486  1.0000
  C   C438      1.0  0.9274813137068941  0.9350315313136272  0.9598318058062376  1.0000
  C   C439      1.0  0.011682514604843153  0.9491529564281361  0.9423640003308408  1.0000
  C   C440      1.0  0.9438432197056844  0.9912370752428874  0.9314859014437572  1.0000
  H   H637      1.0  0.9386301084247434  0.9937596536788582  0.9975870462742945  1.0000
  H   H638      1.0  6.419846086536118e-05  0.006073109024489209  0.984140426503142  1.0000
  H   H639      1.0  0.9910293340113546  0.963749726400529  0.0051776641067129425  1.0000
  H   H640      1.0  0.9191326182039954  0.920826340018317  0.9362901138123882  1.0000
  H   H641      1.0  0.9417772160096068  0.9143519873076932  0.9775081767142433  1.0000
  H   H642      1.0  0.8911370081607803  0.9456873786596354  0.9693364205087287  1.0000
  H   H643      1.0  0.039243082120275385  0.9708655430380652  0.9366898338347358  1.0000
  H   H644      1.0  0.005178354418834186  0.9336317788042112  0.9193056634232432  1.0000
  H   H645      1.0  0.029607127262919697  0.9302198070606308  0.9603293584664291  1.0000
  H   H646      1.0  0.9692834475274039  0.014951561827243554  0.9287190799447781  1.0000
  H   H647      1.0  0.9067760831581453  0.0019721185345733527  0.9395091586174825  1.0000
  H   H648      1.0  0.9384634200324474  0.9790375012849225  0.9068028585403551  1.0000
  N   N39       1.0  0.20404390641080045  0.24947102188825665  0.8761888977578226  1.0000
  C   C441      1.0  0.17594789724525736  0.2819482156386566  0.8650613451483014  1.0000
  C   C442      1.0  0.18136977916246358  0.2353739923427917  0.9066366650985587  1.0000
  C   C443      1.0  0.2570796054505056  0.2593093827278158  0.8826223666601342  1.0000
  C   C444      1.0  0.2018080217904728  0.22128520898414608  0.8503630392071805  1.0000
  H   H649      1.0  0.19253709280949896  0.2935181941772177  0.8423304936220557  1.0000
  H   H650      1.0  0.1763715012798155  0.3037204513753107  0.8840104156720872  1.0000
  H   H651      1.0  0.1359480930919909  0.2753802603703073  0.8594163763747756  1.0000
  H   H652      1.0  0.20191724132597097  0.21100305489712196  0.9158480149491406  1.0000
  H   H653      1.0  0.18233331217004584  0.25597657433594545  0.9266597444962821  1.0000
  H   H654      1.0  0.14138379956069935  0.2275213128525646  0.9027126191499607  1.0000
  H   H655      1.0  0.2794982147448515  0.23540737754571542  0.8909546663249542  1.0000
  H   H656      1.0  0.2602061846005554  0.28044359295113813  0.9020830282953254  1.0000
  H   H657      1.0  0.2753087593786143  0.27019538134359555  0.8601468329558724  1.0000
  H   H658      1.0  0.22208085110635847  0.19617661200787667  0.8580013311522775  1.0000
  H   H659      1.0  0.21940237744418226  0.23095087928415262  0.8272635611422483  1.0000
  H   H660      1.0  0.16223683909296527  0.2136707198858406  0.8443635447681133  1.0000
  N   N40       1.0  0.6170578971630415  0.5097410242632981  0.8773540382265085  1.0000
  C   C445      1.0  0.6142739210361579  0.5173834336598401  0.8417845506899727  1.0000
  C   C446      1.0  0.6306420951523382  0.5432411559031495  0.8952783170848115  1.0000
  C   C447      1.0  0.6556793256746918  0.4815712557545107  0.8835968545587575  1.0000
  C   C448      1.0  0.5676688212649703  0.4967746475495661  0.8887912848018524  1.0000
  H   H661      1.0  0.6511668540407991  0.5266094628152065  0.8322697851481903  1.0000
  H   H662      1.0  0.5862579427913784  0.5390696914744201  0.8362243662443347  1.0000
  H   H663      1.0  0.6035274565586235  0.49274116529203454  0.8275715983321962  1.0000
  H   H664      1.0  0.6293315370622169  0.5390768215520322  0.9222805808631317  1.0000
  H   H665      1.0  0.6691575402616426  0.5523208880683607  0.8890306300231136  1.0000
  H   H666      1.0  0.6043016841792056  0.5659309039592344  0.889440990250419  1.0000
  H   H667      1.0  0.6601718353337485  0.4761300646419064  0.9103295190902752  1.0000
  H   H668      1.0  0.6930795973163276  0.48995444530679116  0.8741628883054922  1.0000
  H   H669      1.0  0.6457121237307119  0.455451310898104  0.8714463285952355  1.0000
  H   H670      1.0  0.5382766954853542  0.5182464267719497  0.886485755595955  1.0000
  H   H671      1.0  0.5691998614719727  0.4888830905517439  0.9151468864225126  1.0000
  H   H672      1.0  0.5548301421071926  0.4726143756435323  0.8746695549377022  1.0000
  N   N41       1.0  0.3339240069777598  0.5663995369441284  0.533769757141135  1.0000
  C   C449      1.0  0.35864755826376493  0.5707136892326155  0.5661209550167461  1.0000
  C   C450      1.0  0.2876428403460189  0.5887040355933296  0.5323876450823901  1.0000
  C   C451      1.0  0.3208828278955862  0.5278101314009196  0.52878448904309  1.0000
  C   C452      1.0  0.36853666011277464  0.5782649487707731  0.5076862270091012  1.0000
  H   H673      1.0  0.39355495086274334  0.554022460052277  0.5676935734922031  1.0000
  H   H674      1.0  0.3336480697292277  0.5619901002701382  0.5863843278694719  1.0000
  H   H675      1.0  0.36929195892532785  0.5994320164517144  0.570862621669354  1.0000
  H   H676      1.0  0.29606285248283964  0.6180008926909196  0.5362996951329125  1.0000
  H   H677      1.0  0.2684950216811135  0.5860681565834145  0.5080459313379386  1.0000
  H   H678      1.0  0.260205972429218  0.5802121430821146  0.5513792415325669  1.0000
  H   H679      1.0  0.3015783827811231  0.5237305403262472  0.5048682075694728  1.0000
  H   H680      1.0  0.2952962879079958  0.51774574379585  0.5482099233108763  1.0000
  H   H681      1.0  0.35493508387402367  0.5101733988467951  0.5288649540225617  1.0000
  H   H682      1.0  0.4038519131593046  0.5620310271969702  0.5079035425320629  1.0000
  H   H683      1.0  0.379031780736657  0.6072965338430828  0.5106615208294125  1.0000
  H   H684      1.0  0.3511840443701643  0.5750322572591436  0.4829086731204441  1.0000
  N   N42       1.0  0.030709652830653408  0.1757727622634  0.6135784730486659  1.0000
  C   C453      1.0  0.04327457274252855  0.15640928214393773  0.644337371366906  1.0000
  C   C454      1.0  0.9866820726329272  0.19962604087003183  0.6188892680563565  1.0000
  C   C455      1.0  0.01890733869263261  0.14917755778013744  0.5875041338592788  1.0000
  C   C456      1.0  0.07413386181495193  0.19793125499227998  0.603484679305362  1.0000
  H   H685      1.0  0.011551851711196102  0.13926143554767909  0.6527370508898424  1.0000
  H   H686      1.0  0.05261747909658765  0.17574555929204363  0.6644916335831945  1.0000
  H   H687      1.0  0.07682184785184949  0.13856440537924058  0.6412185364885749  1.0000
  H   H688      1.0  0.9764238830236968  0.2148332803751186  0.5961753571453873  1.0000
  H   H689      1.0  0.9528839076988849  0.1837115767377647  0.6258428524592708  1.0000
  H   H690      1.0  0.9940129435179498  0.21987014695339963  0.6386527239387749  1.0000
  H   H691      1.0  0.051709278564771914  0.1312744113504069  0.5822325481574756  1.0000
  H   H692      1.0  0.008885548148794607  0.1631081470441947  0.5642045866405252  1.0000
  H   H693      1.0  0.9863291691389956  0.13184994122827784  0.5941129043503733  1.0000
  H   H694      1.0  0.1081162917623024  0.18073065354031861  0.5994283293050152  1.0000
  H   H695      1.0  0.0839899013692627  0.21833513744121844  0.6225701786797087  1.0000
  H   H696      1.0  0.06647458922572279  0.21240274778231846  0.5800454831581089  1.0000
  N   N43       1.0  0.07020653519371067  0.3975024979525343  0.06536578086737688  1.0000
  C   C457      1.0  0.12241491275615601  0.40546329631313105  0.055552670561979545  1.0000
  C   C458      1.0  0.060570543179041314  0.3581896519126627  0.061785425569771846  1.0000
  C   C459      1.0  0.0349616203826848  0.4181071542564912  0.04418945225336368  1.0000
  C   C460      1.0  0.06290303576573097  0.4082861686474884  0.09996730490096928  1.0000
  H   H697      1.0  0.13149668364335865  0.43473977579399575  0.058895206934450384  1.0000
  H   H698      1.0  0.12909611952507727  0.39858895367125713  0.02935502623592967  1.0000
  H   H699      1.0  0.14997761907520868  0.3897231192636847  0.0704873849699752  1.0000
  H   H700      1.0  0.02133075402402751  0.35130455223374096  0.0687399669769615  1.0000
  H   H701      1.0  0.06619503998880338  0.34898640454973845  0.036032681824079704  1.0000
  H   H702      1.0  0.08634104313196045  0.3419243800623276  0.0777001394941168  1.0000
  H   H703      1.0  0.04218964824299998  0.44782177718225175  0.045648078265311476  1.0000
  H   H704      1.0  0.9951650147652217  0.41397777169246947  0.05163528195362832  1.0000
  H   H705      1.0  0.03829501442234462  0.41008615468679227  0.017980025997324622  1.0000
  H   H706      1.0  0.023996030920204525  0.4025870124167255  0.10833623062914555  1.0000
  H   H707      1.0  0.06933077585891212  0.4378314220911126  0.10352349127339444  1.0000
  H   H708      1.0  0.08955167133054998  0.3938905602519166  0.11670936962974898  1.0000
  N   N44       1.0  0.05388247520713829  0.5285106819760119  0.2634464139784013  1.0000
  C   C461      1.0  0.0019160935870767837  0.5237927209070846  0.2511293873222254  1.0000
  C   C462      1.0  0.07412516858130425  0.5632531323401322  0.25122667473945315  1.0000
  C   C463      1.0  0.08560013924010956  0.4982430077884792  0.2515726527632588  1.0000
  C   C464      1.0  0.053776795312105996  0.5288306537722001  0.29974383193552145  1.0000
  H   H709      1.0  0.000556651666114627  0.5240846216564686  0.22380768623278677  1.0000
  H   H710      1.0  0.9768386495312463  0.5460405980840233  0.25982602457506315  1.0000
  H   H711      1.0  0.9854193633176329  0.4977279844681809  0.2595347507677419  1.0000
  H   H712      1.0  0.11251827718055507  0.5685467315314257  0.26105720896587986  1.0000
  H   H713      1.0  0.07650734884869026  0.5633656668928174  0.22394114285388772  1.0000
  H   H714      1.0  0.04961745654884875  0.5865814899351833  0.25818073131716957  1.0000
  H   H715      1.0  0.07154810626855568  0.4715771184872655  0.2603794799807156  1.0000
  H   H716      1.0  0.1252051624970294  0.501066031120428  0.26018202841176413  1.0000
  H   H717      1.0  0.08627843041462135  0.497152462839053  0.22420799775124373  1.0000
  H   H718      1.0  0.030649118666580266  0.5516057156975218  0.3095341886862953  1.0000
  H   H719      1.0  0.0923451668118267  0.5319209271370153  0.31013364496772194  1.0000
  H   H720      1.0  0.03808399584377531  0.5032549473393841  0.3099529691177799  1.0000
  N   N45       1.0  0.46352343481028496  0.9502833329261807  0.15874024202976056  1.0000
  C   C465      1.0  0.4344581984825641  0.9715300720240114  0.1343392191576871  1.0000
  C   C466      1.0  0.4339114217427893  0.946951928561798  0.1891264797420027  1.0000
  C   C467      1.0  0.5114745371147443  0.9689410553726193  0.16593229662999165  1.0000
  C   C468      1.0  0.4741273190852759  0.91369238266804  0.14551056632864778  1.0000
  H   H721      1.0  0.4553221492267314  0.9741953138819749  0.11086941824957752  1.0000
  H   H722      1.0  0.42634531416076843  0.999403713178077  0.14344983187219396  1.0000
  H   H723      1.0  0.39777006041697316  0.958389857694231  0.1285415511268555  1.0000
  H   H724      1.0  0.39671090671273035  0.9343843067161625  0.1840573429343635  1.0000
  H   H725      1.0  0.45339172893899193  0.9295216267224051  0.20763724548629758  1.0000
  H   H726      1.0  0.4267593852044689  0.9739223948010871  0.20053528930964304  1.0000
  H   H727      1.0  0.5342960951488097  0.9537057709628863  0.18433848872491554  1.0000
  H   H728      1.0  0.5050373769397702  0.9967178844881863  0.17596644285974228  1.0000
  H   H729      1.0  0.5345545878431115  0.9718260872290864  0.14337829684130132  1.0000
  H   H730      1.0  0.4952390577341624  0.8966794320512232  0.16354618161883994  1.0000
  H   H731      1.0  0.4966034165824191  0.9150936782520552  0.12256295044702759  1.0000
  H   H732      1.0  0.43880000872154445  0.899009496411592  0.13952081176830755  1.0000
  N   N46       1.0  0.20167067192127502  0.9814567295484615  0.34939048855613014  1.0000
  C   C469      1.0  0.1823747499507334  0.9523380917110713  0.37074051606849967  1.0000
  C   C470      1.0  0.16682650782698247  0.012796787416738953  0.3502239953520378  1.0000
  C   C471      1.0  0.20566983529490315  0.9677756554892079  0.3153873557422543  1.0000
  C   C472      1.0  0.2518982025877772  0.9927529143395244  0.36126496704082023  1.0000
  H   H733      1.0  0.17647534611548724  0.96213854359858  0.3962708484364604  1.0000
  H   H734      1.0  0.20892312028319726  0.9289868721653812  0.371862943382663  1.0000
  H   H735      1.0  0.1456205528131703  0.9419325091366997  0.3615887465254868  1.0000
  H   H736      1.0  0.1800937326318889  0.03538852512759938  0.334440411217521  1.0000
  H   H737      1.0  0.1285637781459015  0.00508396824007229  0.3415414292159062  1.0000
  H   H738      1.0  0.16241105412045445  0.023538568894922562  0.3756133659750585  1.0000
  H   H739      1.0  0.21872922756174967  0.9892360383599058  0.2982961284413264  1.0000
  H   H740      1.0  0.16884629412677696  0.9576289669331354  0.3059803679202348  1.0000
  H   H741      1.0  0.23280902732518208  0.9448135003945587  0.3138458951606358  1.0000
  H   H742      1.0  0.2502795525967505  0.0031250795175459256  0.38690421158239485  1.0000
  H   H743      1.0  0.2678170496241778  0.014594093219627569  0.3456387668806959  1.0000
  H   H744      1.0  0.2790140819784083  0.9695801599039038  0.36101056639261797  1.0000
  N   N47       1.0  0.7214433391660086  0.5277424618422064  0.16149926030696915  1.0000
  C   C473      1.0  0.6841395516000567  0.544679255099059  0.18348625466736257  1.0000
  C   C474      1.0  0.7607682571498023  0.5545249715354242  0.15343283514792105  1.0000
  C   C475      1.0  0.6963017679106035  0.5156037874796219  0.13095974635640206  1.0000
  C   C476      1.0  0.744601409221241  0.4961388156434248  0.17813027642767731  1.0000
  H   H745      1.0  0.6537337076909169  0.5252751828780431  0.18987926515616538  1.0000
  H   H746      1.0  0.6663365393498533  0.5688633250803977  0.17183761490853855  1.0000
  H   H747      1.0  0.7020436215557022  0.5537710356497793  0.2069295246536491  1.0000
  H   H748      1.0  0.7451057797075809  0.5776683139782252  0.13901923856243492  1.0000
  H   H749      1.0  0.7785292000594914  0.5659043381480039  0.17601890944277265  1.0000
  H   H750      1.0  0.7911278990899032  0.5421238658127399  0.13841635996012913  1.0000
  H   H751      1.0  0.7238288775044018  0.5034657786255475  0.11362742656575908  1.0000
  H   H752      1.0  0.6778619721403742  0.5386811782183853  0.11791098295378521  1.0000
  H   H753      1.0  0.6667817427996597  0.494928035921998  0.13585175242885827  1.0000
  H   H754      1.0  0.7736409039224602  0.4830529729697592  0.1624955276721547  1.0000
  H   H755      1.0  0.716012270820633  0.4752245808371743  0.18418297354526447  1.0000
  H   H756      1.0  0.7631318805459967  0.5042427784637281  0.20159402261159354  1.0000
  N   N48       1.0  0.5423215761861591  0.6550252754881258  0.31677994025655254  1.0000
  C   C477      1.0  0.5756143032521505  0.6814344343496873  0.30051228044514144  1.0000
  C   C478      1.0  0.5558416104446282  0.652553442569796  0.3519564933916058  1.0000
  C   C479      1.0  0.5482364286915847  0.618993687010988  0.3012438667182593  1.0000
  C   C480      1.0  0.48953270138689686  0.6672460170389426  0.31348410932251386  1.0000
  H   H757      1.0  0.5676544506119645  0.683289637966375  0.27373546218719963  1.0000
  H   H758      1.0  0.616017564539397  0.6740030208290286  0.3036057395133712  1.0000
  H   H759      1.0  0.5707277384459208  0.7090854331605694  0.31097121272744044  1.0000
  H   H760      1.0  0.5483650659084467  0.6785587605054311  0.36492483440170354  1.0000
  H   H761      1.0  0.5340733385764616  0.6309826474299094  0.364569575037471  1.0000
  H   H762      1.0  0.5964122161608275  0.645852083620744  0.35544230903841306  1.0000
  H   H763      1.0  0.5244339079999002  0.598170651688734  0.3133470679718796  1.0000
  H   H764      1.0  0.5876974964757317  0.6091485481411862  0.3032265274948547  1.0000
  H   H765      1.0  0.5380190525931098  0.6196623743450431  0.2747441701933924  1.0000
  H   H766      1.0  0.4633926740123539  0.6480355284176991  0.325658493609534  1.0000
  H   H767      1.0  0.47801089861962054  0.669511986085601  0.28725003689189377  1.0000
  H   H768      1.0  0.4839587528754743  0.6944836991389732  0.32493185954452525  1.0000
