data_image0
_chemical_formula_structural       FeS2FeS2FeSFeS3FeS2FeS2FeSFeS3FeS2FeS2FeSFeS3FeS2FeS2FeSFeS3FeS2FeS2FeSFeS3FeS2FeS2FeSFeS3FeS2FeS2FeSFeS3FeS2FeS2FeSFeS3FeS2FeS2FeSFeS3FeS2FeS2FeSFeS3FeS2FeS2FeSFeS3FeS2FeS2FeSFeS3C6H4C6H4C6H4C6H4C6H4C6H4C6H4C6H4C6H4C6H4C6H4C6H4C6H4C6H4C6H4C6H4C6H4C6H4C6H4C6H4C6H4C6H4C6H4C6H4NC4H12NC4H12NC4H12NC4H12NC4H12NC4H12NC4H12NC4H12NC4H12NC4H12NC4H12NC4H12NC4H12NC4H12NC4H12NC4H12NC4H12NC4H12NC4H12NC4H12NC4H12NC4H12NC4H12NC4H12
_chemical_formula_sum              "Fe48 S96 C240 H384 N24"
_cell_length_a       43.24071017644869
_cell_length_b       35.99263171685641
_cell_length_c       27.507520286757988
_cell_angle_alpha    89.31956904273781
_cell_angle_beta     102.38753153011955
_cell_angle_gamma    90.140725021765

_space_group_name_H-M_alt    "P 1"
_space_group_IT_number       1

loop_
  _space_group_symop_operation_xyz
  'x, y, z'

loop_
  _atom_site_type_symbol
  _atom_site_label
  _atom_site_symmetry_multiplicity
  _atom_site_fract_x
  _atom_site_fract_y
  _atom_site_fract_z
  _atom_site_occupancy
  Fe  Fe1       1.0  0.29498981631858084  0.18606657514520233  0.7345537327184393  1.0000
  S   S1        1.0  0.24867038187129878  0.17802373134172  0.7577380569507168  1.0000
  S   S2        1.0  0.2955044076032689  0.16289949654327934  0.6586685761768315  1.0000
  Fe  Fe2       1.0  0.32454956419807224  0.22501450224074554  0.8317498746085088  1.0000
  S   S3        1.0  0.2810120731391728  0.21835874464753083  0.8627503510904948  1.0000
  S   S4        1.0  0.3685903332360684  0.2530502234179727  0.8739006125817782  1.0000
  Fe  Fe3       1.0  0.2785354287251929  0.16081364466651105  0.8316641533629365  1.0000
  S   S5        1.0  0.27355921238112757  0.10505340017367648  0.8680421398915804  1.0000
  Fe  Fe4       1.0  0.2559667764393378  0.23646071806089158  0.7858456362698435  1.0000
  S   S6        1.0  0.2210594356343267  0.28358083380975085  0.7779592034709583  1.0000
  S   S7        1.0  0.32461321898475354  0.1658650844645098  0.8070187377938292  1.0000
  S   S8        1.0  0.2997886794370816  0.24606169941776576  0.7565250365979146  1.0000
  Fe  Fe5       1.0  0.38342266517011  0.03525516050412289  0.44621741608994975  1.0000
  S   S9        1.0  0.3611261853555399  0.01188408643727068  0.5064395216088649  1.0000
  S   S10       1.0  0.3576052858031776  0.068368509850299  0.3799287874291415  1.0000
  Fe  Fe6       1.0  0.4485858926625153  0.002522860905694424  0.49195540728401316  1.0000
  S   S11       1.0  0.4313816723135991  0.9763222262510214  0.555562380108631  1.0000
  S   S12       1.0  0.49704520890725756  0.992323965351431  0.4761067793743625  1.0000
  Fe  Fe7       1.0  0.3885347478071397  0.9603274454992385  0.4978691184242773  1.0000
  S   S13       1.0  0.3660401556206393  0.9039097725194399  0.49901830931884  1.0000
  Fe  Fe8       1.0  0.40577925320993236  0.030406744857509486  0.5580523318716591  1.0000
  S   S14       1.0  0.4084724047355374  0.05946109629805639  0.6311003838782039  1.0000
  S   S15       1.0  0.40743171182079757  0.9825216070296592  0.4337494839907782  1.0000
  S   S16       1.0  0.42635184306490587  0.05801544915297291  0.4984162448787001  1.0000
  Fe  Fe9       1.0  0.22464726250979214  0.958244375629599  0.12856148269129106  1.0000
  S   S17       1.0  0.18922173380460522  0.9548215029105719  0.17652236758228287  1.0000
  S   S18       1.0  0.25741584576842086  0.9097866666542674  0.12592808261644875  1.0000
  Fe  Fe10      1.0  0.2042887467590151  0.03732275561429525  0.093955232020909  1.0000
  S   S19       1.0  0.16732469484725648  0.03870031777325982  0.14067396061950357  1.0000
  S   S20       1.0  0.20555318644039158  0.09078146517875882  0.04995634151399253  1.0000
  Fe  Fe11      1.0  0.20534553088037608  0.012164340573042276  0.19974362944326032  1.0000
  S   S21       1.0  0.21722899825754055  0.019592112193841674  0.28287226983128433  1.0000
  Fe  Fe12      1.0  0.15543378697699262  0.9810746375943065  0.11236356900725765  1.0000
  S   S22       1.0  0.10917671431853049  0.9519766237753242  0.08058610758058815  1.0000
  S   S23       1.0  0.24297721562689056  0.014572798278845233  0.15517372908149366  1.0000
  S   S24       1.0  0.19004378362098362  0.981080449668007  0.06207941879654766  1.0000
  Fe  Fe13      1.0  0.7884583395089375  0.7830984827720181  0.22874373893534794  1.0000
  S   S25       1.0  0.7502678990523103  0.7910663513881995  0.2717496180171384  1.0000
  S   S26       1.0  0.7828942593532423  0.8186514392588545  0.15884517712044294  1.0000
  Fe  Fe14      1.0  0.8204921294091757  0.7212667785999141  0.29988828139001306  1.0000
  S   S27       1.0  0.785315745343174  0.7257233673451063  0.348586857061383  1.0000
  S   S28       1.0  0.8584543004124852  0.6771256970531172  0.30959357211389443  1.0000
  Fe  Fe15      1.0  0.7494751202868759  0.7287133081032018  0.27623562327843054  1.0000
  S   S29       1.0  0.707354471169698  0.6904167755919383  0.26439612716155814  1.0000
  Fe  Fe16      1.0  0.7899595658190709  0.7875260908432447  0.3392143561039652  1.0000
  S   S30       1.0  0.7999359483793501  0.8303703208638691  0.40039420507704915  1.0000
  S   S31       1.0  0.7844156870918219  0.7208929982060336  0.22799140068150905  1.0000
  S   S32       1.0  0.8284685538570348  0.7828588436052845  0.29586043620074487  1.0000
  Fe  Fe17      1.0  0.6678868745234925  0.9767938681204569  0.6290233474869908  1.0000
  S   S33       1.0  0.686045962496395  0.9998382790026015  0.5642376855244399  1.0000
  S   S34       1.0  0.6213164187797341  0.9925878750248307  0.6479453613836568  1.0000
  Fe  Fe18      1.0  0.7277237530913843  0.9307756982312935  0.6681849414484993  1.0000
  S   S35       1.0  0.750414344889974  0.9492663497888792  0.6060500113178616  1.0000
  S   S36       1.0  0.7521361667554135  0.8872371138573089  0.7229584709037662  1.0000
  Fe  Fe19      1.0  0.7321638733655629  0.005756195353962655  0.6197567410711747  1.0000
  S   S37       1.0  0.7661640001201885  0.05384539625374245  0.6305742007665249  1.0000
  Fe  Fe20      1.0  0.7025595249528565  0.9412453482099893  0.5563023487581203  1.0000
  S   S38       1.0  0.6915952985467914  0.9097572421979404  0.4838483477603231  1.0000
  S   S39       1.0  0.712835370565409  0.9877027971596022  0.685656257043553  1.0000
  S   S40       1.0  0.6809477919711538  0.9179354481715499  0.6174809751535659  1.0000
  Fe  Fe21      1.0  0.8865988991255238  0.9548662018248806  0.9426813958780066  1.0000
  S   S41       1.0  0.8484125097182469  0.964115857663239  0.9845804657417633  1.0000
  S   S42       1.0  0.880403376325996  0.913084311927062  0.8808825197172607  1.0000
  Fe  Fe22      1.0  0.9322617663987657  0.009634013386047524  0.005588525373735331  1.0000
  S   S43       1.0  0.896793516234679  0.02399516971309623  0.05148422992409049  1.0000
  S   S44       1.0  0.9793774814586633  0.0399402545127574  0.022399088496899866  1.0000
  Fe  Fe23      1.0  0.8875736419800296  0.9625589316794172  0.052862090087635316  1.0000
  S   S45       1.0  0.8894563964281564  0.931025164766152  0.12507211702169285  1.0000
  Fe  Fe24      1.0  0.8612306625183381  0.02441252439365998  0.9788218999910997  1.0000
  S   S46       1.0  0.8206155058937082  0.06452170566149779  0.9551860148444732  1.0000
  S   S47       1.0  0.9253155499619149  0.9481908217360325  0.011407008242613204  1.0000
  S   S48       1.0  0.8971855375220735  0.015089057810036888  0.9324115555371442  1.0000
  Fe  Fe25      1.0  0.7994740387886634  0.24263011110749397  0.7932438266774062  1.0000
  S   S49       1.0  0.7499595546773711  0.22563377108698027  0.7953173643521386  1.0000
  S   S50       1.0  0.8416873480789983  0.20830241295721558  0.8311248803309088  1.0000
  Fe  Fe26      1.0  0.7774503843510622  0.31348340072523306  0.7339086180887963  1.0000
  S   S51       1.0  0.7262839673473118  0.30159507631523147  0.7331076600441516  1.0000
  S   S52       1.0  0.7848612436030074  0.36690734218308185  0.6942754341035152  1.0000
  Fe  Fe27      1.0  0.7435999333491342  0.2853844669294302  0.813278097818299  1.0000
  S   S53       1.0  0.7185475939059037  0.2960828186947578  0.8759212778719233  1.0000
  Fe  Fe28      1.0  0.7382254709085831  0.24346098451222545  0.7154929484674145  1.0000
  S   S54       1.0  0.7057368837340857  0.2098625990061052  0.6572777160169383  1.0000
  S   S55       1.0  0.7939652803779715  0.30170845174811384  0.8157280040310841  1.0000
  S   S56       1.0  0.7884085700761334  0.2561410657175906  0.7112001578299162  1.0000
  Fe  Fe29      1.0  0.876635115221036  0.4943960062557175  0.46056891661473714  1.0000
  S   S57       1.0  0.8954917542355555  0.48295016978946076  0.3928700550825693  1.0000
  S   S58       1.0  0.864100670594329  0.553088343691655  0.47722006001593753  1.0000
  Fe  Fe30      1.0  0.8820465616744316  0.4138765747103999  0.4949764809597972  1.0000
  S   S59       1.0  0.9014114367233471  0.3963845984997315  0.42928100755347676  1.0000
  S   S60       1.0  0.8806229305607305  0.3667865359710986  0.5494771716449838  1.0000
  Fe  Fe31      1.0  0.9313523889797191  0.4473989280468763  0.44307839310760955  1.0000
  S   S61       1.0  0.9804479903775145  0.44773989376164175  0.427246082919944  1.0000
  Fe  Fe32      1.0  0.8640257986856066  0.4331853562432608  0.3844805559359547  1.0000
  S   S62       1.0  0.8428971221410692  0.417291195101884  0.3054781399585949  1.0000
  S   S63       1.0  0.9151833265300996  0.4626000538683923  0.5124274238168952  1.0000
  S   S64       1.0  0.8417937789122418  0.4468595150314644  0.44883174307001256  1.0000
  Fe  Fe33      1.0  0.7152178095741769  0.46891287441056784  0.0386344952538553  1.0000
  S   S65       1.0  0.6822351949742834  0.4357384802860977  0.07478138551924024  1.0000
  S   S66       1.0  0.7499181462105383  0.4453934383871651  0.9963114846956477  1.0000
  Fe  Fe34      1.0  0.6897326851103107  0.5429831422627461  0.06595039117257603  1.0000
  S   S67       1.0  0.6538473785111204  0.5160736831772954  0.10259127320712651  1.0000
  S   S68       1.0  0.6962861206608425  0.6047368435356276  0.06167772290467982  1.0000
  Fe  Fe35      1.0  0.6936891711035426  0.47763112794178436  0.13584138397412013  1.0000
  S   S69       1.0  0.7010015393082469  0.4655111707440903  0.2177821099892567  1.0000
  Fe  Fe36      1.0  0.6453868683488209  0.47704154411821287  0.03818484406154183  1.0000
  S   S70       1.0  0.5988832005877813  0.45316646982494957  0.9970792498915683  1.0000
  S   S71       1.0  0.7303394915269188  0.5072380959566191  0.10348502458241932  1.0000
  S   S72       1.0  0.677719943720691  0.5076299687884649  0.9978473581699145  1.0000
  Fe  Fe37      1.0  0.3429374290741888  0.7428091903245236  0.3194635422536555  1.0000
  S   S73       1.0  0.29682688785005834  0.7460712146702456  0.343781840897946  1.0000
  S   S74       1.0  0.3781587575103371  0.789881934595224  0.33088932867668663  1.0000
  Fe  Fe38      1.0  0.32720176891095015  0.6669396554799105  0.27067399240926904  1.0000
  S   S75       1.0  0.27906843126771314  0.6652891630054357  0.2893015038679284  1.0000
  S   S76       1.0  0.3485383959353184  0.6151889803036659  0.24554241639260446  1.0000
  Fe  Fe39      1.0  0.2765438877401268  0.7257876975934682  0.2667036983598063  1.0000
  S   S77       1.0  0.23308178867198034  0.7554776968400372  0.22461908088315485  1.0000
  Fe  Fe40      1.0  0.30411441321379284  0.6855521989791298  0.36425435737924033  1.0000
  S   S78       1.0  0.30273310027931566  0.6568032088894548  0.43741435111831106  1.0000
  S   S79       1.0  0.32239875140457386  0.7255327932781388  0.24096260981092657  1.0000
  S   S80       1.0  0.35241793494580825  0.6843283881076917  0.3468713190223252  1.0000
  Fe  Fe41      1.0  0.2032513826653993  0.44698035328243096  0.5901887177784789  1.0000
  S   S81       1.0  0.18302393377217546  0.470249081614431  0.651729229818211  1.0000
  S   S82       1.0  0.22189330303344185  0.3883274402456708  0.5915456573563143  1.0000
  Fe  Fe42      1.0  0.19085452969664793  0.5182693894678811  0.5283243359594133  1.0000
  S   S83       1.0  0.16966940895435678  0.5469176791762882  0.5855918985398406  1.0000
  S   S84       1.0  0.19014694570917914  0.5485539736175516  0.4557062102541989  1.0000
  Fe  Fe43      1.0  0.2101858719158073  0.5213794217496354  0.6405161342360134  1.0000
  S   S85       1.0  0.2352828787840961  0.5538091886611067  0.7067797281593169  1.0000
  Fe  Fe44      1.0  0.14441923627443887  0.4930189583985881  0.5910100848435863  1.0000
  S   S86       1.0  0.09472737186544108  0.48841310306613667  0.6045120357609782  1.0000
  S   S87       1.0  0.23349278149207964  0.49679964899082363  0.5828447838838317  1.0000
  S   S88       1.0  0.1625238596823564  0.46587464632718056  0.5296521954317621  1.0000
  Fe  Fe45      1.0  0.35649483920558117  0.5232554234735427  0.9979088557437492  1.0000
  S   S89       1.0  0.3925628844514464  0.5372922725354055  0.9527885748715048  1.0000
  S   S90       1.0  0.32835005772268755  0.5712741648192615  0.018822196359651103  1.0000
  Fe  Fe46      1.0  0.37071078609198993  0.440432839638212  0.996687330260809  1.0000
  S   S91       1.0  0.4087806814934808  0.4479988375545283  0.9534066616796758  1.0000
  S   S92       1.0  0.35283308215808934  0.38483939475459517  0.017085020436264697  1.0000
  Fe  Fe47      1.0  0.42395047717751394  0.49685016722081493  0.003295456593656043  1.0000
  S   S93       1.0  0.4721005713716186  0.5182156797185994  0.04261467265594532  1.0000
  Fe  Fe48      1.0  0.3740224464885967  0.4876797375970994  0.9071621586590584  1.0000
  S   S94       1.0  0.3644138386323064  0.4833374577562682  0.8235648352177878  1.0000
  S   S95       1.0  0.38878433731356254  0.48560058419517016  0.05124608333907244  1.0000
  S   S96       1.0  0.3350424466082602  0.4771008172815282  0.9474298468738449  1.0000
  C   C1        1.0  0.2709612022816423  0.5337493524967261  0.7392986725068903  1.0000
  C   C2        1.0  0.28860923178102726  0.5105982647447623  0.7150582990293256  1.0000
  C   C3        1.0  0.31762739307112914  0.49596909769267433  0.7409859559909683  1.0000
  C   C4        1.0  0.3286672600119051  0.5034352837360396  0.7916421957725668  1.0000
  C   C5        1.0  0.31085985321576676  0.5262187880096092  0.816091333684909  1.0000
  C   C6        1.0  0.2822653621884723  0.541763499064402  0.7897482788342178  1.0000
  H   H1        1.0  0.28028976522353555  0.5045176079827017  0.6761174627350273  1.0000
  H   H2        1.0  0.331460761327198  0.4786062969226366  0.721839160694534  1.0000
  H   H3        1.0  0.31929202930172507  0.532277274863129  0.8551295646107179  1.0000
  H   H4        1.0  0.2687505228453255  0.5597150748021915  0.8086942255015739  1.0000
  C   C7        1.0  0.3403038653237584  0.6024665462929671  0.18253872758131748  1.0000
  C   C8        1.0  0.3241423175535305  0.626205591477701  0.14507363925045064  1.0000
  C   C9        1.0  0.3195738148687014  0.6157569752637999  0.09490682820003422  1.0000
  C   C10       1.0  0.33111341838375113  0.5816150958485664  0.08208850155918652  1.0000
  C   C11       1.0  0.34624809299272585  0.5574083757773518  0.11976628034012718  1.0000
  C   C12       1.0  0.3510473754625235  0.5679376239060797  0.1697989598340542  1.0000
  H   H5        1.0  0.31565958384032655  0.6528297444698851  0.1546494244605486  1.0000
  H   H6        1.0  0.3076255329914594  0.6344996018073015  0.06588733251942137  1.0000
  H   H7        1.0  0.3546791553392621  0.5307850759350847  0.11035737431619287  1.0000
  H   H8        1.0  0.36339990770597  0.5493671650084526  0.19868432512299747  1.0000
  C   C13       1.0  0.2715341740335039  0.6262619412435451  0.44089071040315647  1.0000
  C   C14       1.0  0.2761327045681168  0.5986843438312363  0.47822684942476723  1.0000
  C   C15       1.0  0.25137724119495763  0.5744305115259726  0.4828741695659649  1.0000
  C   C16       1.0  0.2218754126521588  0.5778140992920022  0.4502716157242793  1.0000
  C   C17       1.0  0.21746163681103606  0.6050004422490589  0.412427936632001  1.0000
  C   C18       1.0  0.24219750630347314  0.6292940373784565  0.40781681686287424  1.0000
  H   H9        1.0  0.29894800497358104  0.5960722932302874  0.5035512594876097  1.0000
  H   H10       1.0  0.25511265951201884  0.5530728498499098  0.5115031128473598  1.0000
  H   H11       1.0  0.19467683148472545  0.6076160433315936  0.3869985935032462  1.0000
  H   H12       1.0  0.23844876401004325  0.6506192452051853  0.37906452764408605  1.0000
  C   C19       1.0  0.5636184299942734  0.47216116552853127  0.008451995469286102  1.0000
  C   C20       1.0  0.5641616933045285  0.5037993339945425  0.03759991797694915  1.0000
  C   C21       1.0  0.5358793469015618  0.5176817182526339  0.04765265712382046  1.0000
  C   C22       1.0  0.5068487796092701  0.5003366122053897  0.028066840997856835  1.0000
  C   C23       1.0  0.5062377698592728  0.46893110042151925  0.9984581525898116  1.0000
  C   C24       1.0  0.5346029682788095  0.4548316083811943  0.9888031670136933  1.0000
  H   H13       1.0  0.586274515917147  0.5178543246941936  0.05190213665989417  1.0000
  H   H14       1.0  0.5364400723041893  0.5421995270657614  0.07020096451248159  1.0000
  H   H15       1.0  0.4839587107549982  0.4553938931013145  0.9832206568594715  1.0000
  H   H16       1.0  0.5340139075018423  0.4303931054513623  0.9660908083898816  1.0000
  C   C25       1.0  0.012257255423523183  0.4581549655063974  0.4769139718877069  1.0000
  C   C26       1.0  0.04245345523004307  0.4643483750278522  0.4673871231925586  1.0000
  C   C27       1.0  0.06801458704033816  0.4736644795834218  0.5062428683220287  1.0000
  C   C28       1.0  0.06341089334563213  0.47688793180329014  0.5547782287795807  1.0000
  C   C29       1.0  0.033257805771421796  0.47046484119511583  0.5643539122576536  1.0000
  C   C30       1.0  0.007771069662182661  0.460970708957995  0.5255794152412179  1.0000
  H   H17       1.0  0.04607504165226528  0.4622692743896191  0.4297874359134931  1.0000
  H   H18       1.0  0.09114489366296846  0.47875449225352323  0.4984637503161559  1.0000
  H   H19       1.0  0.029651204347600484  0.47262853503701213  0.6019582996304798  1.0000
  H   H20       1.0  0.9847463320117416  0.45556446713966897  0.5334514843411209  1.0000
  C   C31       1.0  0.8036998390064339  0.4319447998449376  0.2818319436597145  1.0000
  C   C32       1.0  0.7847300808993761  0.445015905176414  0.31329571542597395  1.0000
  C   C33       1.0  0.753103658327742  0.45516163638644763  0.29358829822074445  1.0000
  C   C34       1.0  0.740588090375302  0.45292927500465885  0.24230368867155277  1.0000
  C   C35       1.0  0.7597682914157489  0.4406275532287879  0.21078005511974096  1.0000
  C   C36       1.0  0.791155704236538  0.42986527376420214  0.2305661021323087  1.0000
  H   H21       1.0  0.794187575934528  0.4466407138839033  0.3528783475197353  1.0000
  H   H22       1.0  0.7383690233575173  0.4647388961006032  0.31810197030011345  1.0000
  H   H23       1.0  0.7502540291855995  0.43863685337743324  0.17118969408616413  1.0000
  H   H24       1.0  0.8056911822668086  0.41980602997745886  0.20603664629089344  1.0000
  C   C37       1.0  0.7417741872693514  0.40298476656544985  0.9648856378194698  1.0000
  C   C38       1.0  0.7187273842866273  0.3785031253847005  0.9750404133891312  1.0000
  C   C39       1.0  0.7120330565483786  0.345511711677024  0.9479073552873907  1.0000
  C   C40       1.0  0.7281760867654072  0.3369895211880618  0.9103052308147116  1.0000
  C   C41       1.0  0.7514473727135282  0.36125640709897444  0.9005625718794749  1.0000
  C   C42       1.0  0.7583394352667442  0.39403385195342483  0.9280010436509656  1.0000
  H   H25       1.0  0.706095134495377  0.3849542015219271  0.0037940923009167626  1.0000
  H   H26       1.0  0.6940503676198226  0.32677060716884393  0.9557097005018915  1.0000
  H   H27       1.0  0.7638859515634261  0.35514542856991044  0.8714776607831809  1.0000
  H   H28       1.0  0.7762085748191376  0.41288141016325647  0.9200012006097578  1.0000
  C   C43       1.0  0.8126126860785556  0.36757274878989965  0.6559334571435335  1.0000
  C   C44       1.0  0.8350303664545491  0.33928880609752515  0.6588392312346179  1.0000
  C   C45       1.0  0.8560842825364678  0.33969762784002017  0.6263824641315276  1.0000
  C   C46       1.0  0.8548316370786337  0.3683475386439727  0.5909376662969944  1.0000
  C   C47       1.0  0.8325882693760503  0.3968184441192043  0.588328426072282  1.0000
  C   C48       1.0  0.8115786562874894  0.3964508205619008  0.6208920241418168  1.0000
  H   H29       1.0  0.8362523586557229  0.3171956340954478  0.686185545273318  1.0000
  H   H30       1.0  0.8733969601336655  0.31772799143730235  0.6286842658841442  1.0000
  H   H31       1.0  0.8315406547261602  0.4190452766990006  0.5611978874171927  1.0000
  H   H32       1.0  0.7943677670273291  0.41851549675231187  0.6187342725091405  1.0000
  C   C49       1.0  0.8272718352999856  0.10469865458012814  0.9220386464880123  1.0000
  C   C50       1.0  0.8574384422453267  0.11400969043046229  0.9150244437561366  1.0000
  C   C51       1.0  0.8616446731092635  0.14592370310931801  0.8871403435409968  1.0000
  C   C52       1.0  0.835752111442063  0.16858595484253447  0.8661400700670285  1.0000
  C   C53       1.0  0.8057003792702727  0.15923426969970156  0.8735683639835194  1.0000
  C   C54       1.0  0.8014857271202547  0.12749846305192097  0.9014920923917061  1.0000
  H   H33       1.0  0.8775683689467204  0.09681336028216209  0.9313205305257971  1.0000
  H   H34       1.0  0.8850451848043029  0.15307289585908765  0.8818640853754893  1.0000
  H   H35       1.0  0.7856548016696748  0.1763639388848702  0.858110143922446  1.0000
  H   H36       1.0  0.7781041799678777  0.12038515172769884  0.9068632317720271  1.0000
  C   C55       1.0  0.7491955825937734  0.09740450856610117  0.6359342729561515  1.0000
  C   C56       1.0  0.7676751820802201  0.12505226834841107  0.6635734391070154  1.0000
  C   C57       1.0  0.7543033900172585  0.15944652977962115  0.6706130028514313  1.0000
  C   C58       1.0  0.7228366399024548  0.16707795016614732  0.6478500722276358  1.0000
  C   C59       1.0  0.7047257140590647  0.14008368740522234  0.618172886961982  1.0000
  C   C60       1.0  0.717628757387379  0.10488246901881017  0.6132661918943644  1.0000
  H   H37       1.0  0.7922793468861431  0.11975685545124745  0.6802814308922189  1.0000
  H   H38       1.0  0.7684800338747282  0.18000729198162346  0.6935707354087061  1.0000
  H   H39       1.0  0.6806115392019002  0.14624652531561488  0.5995378277616144  1.0000
  H   H40       1.0  0.7034775410554358  0.083868231444101  0.5909765488172524  1.0000
  C   C61       1.0  0.7879377960904433  0.8982693009292618  0.7646312317640191  1.0000
  C   C62       1.0  0.7893650643776648  0.9250304907008658  0.801782905393155  1.0000
  C   C63       1.0  0.8177275264314326  0.9305122528338192  0.8375971521282815  1.0000
  C   C64       1.0  0.8445704699955715  0.9090395570276559  0.8362553127468599  1.0000
  C   C65       1.0  0.8429086817978938  0.8823858726903498  0.799165717418824  1.0000
  C   C66       1.0  0.814744582674008  0.8768362705633136  0.763853359220004  1.0000
  H   H41       1.0  0.7683042193053223  0.9405632492414482  0.8037997282068964  1.0000
  H   H42       1.0  0.8186226310497005  0.9507156432429995  0.8666591928301598  1.0000
  H   H43       1.0  0.8634546851357267  0.8655512510515536  0.7980881010370379  1.0000
  H   H44       1.0  0.8136887260081311  0.8555180389059238  0.7361788700102464  1.0000
  C   C67       1.0  0.8126272921932971  0.8499448877968131  0.15028305415916252  1.0000
  C   C68       1.0  0.8060048734790118  0.8758156592166393  0.11079166797057168  1.0000
  C   C69       1.0  0.8293000549874222  0.90110098626178  0.10279845875580351  1.0000
  C   C70       1.0  0.8593259962471377  0.9005189443328947  0.13426953155783386  1.0000
  C   C71       1.0  0.8657594462433231  0.8749974352699039  0.17410878889116313  1.0000
  C   C72       1.0  0.8425249566481954  0.8496664023233277  0.18202847420376755  1.0000
  H   H45       1.0  0.7827631435941111  0.8763047302288833  0.08638515684588662  1.0000
  H   H46       1.0  0.8239892869430551  0.9212920569586361  0.07274720819448104  1.0000
  H   H47       1.0  0.8889772031205568  0.8745360954715979  0.1986193783098906  1.0000
  H   H48       1.0  0.8478850715899823  0.8297268049453803  0.2123855484477365  1.0000
  C   C73       1.0  0.7694401268629688  0.8519674695826283  0.42304598804546606  1.0000
  C   C74       1.0  0.7773138444694004  0.8800692923085351  0.45854368306418625  1.0000
  C   C75       1.0  0.7536097413818443  0.8982120316690325  0.47717130249256484  1.0000
  C   C76       1.0  0.7218777774851876  0.8882986777372557  0.4604139881630171  1.0000
  C   C77       1.0  0.7139819574376061  0.8604681653258851  0.42452626949381145  1.0000
  C   C78       1.0  0.7376935519191683  0.8422220037200453  0.405976712589769  1.0000
  H   H49       1.0  0.8018430653658645  0.887960292234909  0.4714921177321166  1.0000
  H   H50       1.0  0.7598261916260785  0.9201680168549331  0.504007293443304  1.0000
  H   H51       1.0  0.6894194252654006  0.85279002997721  0.41129386991364864  1.0000
  H   H52       1.0  0.7313916463813024  0.8206159996053526  0.3785795700901201  1.0000
  C   C79       1.0  0.7019086753643825  0.6676590233381569  0.2068957275530062  1.0000
  C   C80       1.0  0.710960933832783  0.6847517630606166  0.16619747625504605  1.0000
  C   C81       1.0  0.7084328596685538  0.6654952920502718  0.12143179662398754  1.0000
  C   C82       1.0  0.69730437821807  0.6288375585419613  0.11730471564536608  1.0000
  C   C83       1.0  0.6879240883652601  0.6118001101105739  0.15786634053564588  1.0000
  C   C84       1.0  0.6898147862442254  0.6313844239770066  0.20235768580775385  1.0000
  H   H53       1.0  0.7196196339162199  0.7130218298862487  0.16897341310539996  1.0000
  H   H54       1.0  0.715535205589977  0.6788924060644812  0.0901286434605155  1.0000
  H   H55       1.0  0.6792612458780781  0.5835980895161318  0.1550214069852602  1.0000
  H   H56       1.0  0.6826318476432423  0.6181339131883533  0.23367165643886653  1.0000
  C   C85       1.0  0.8599256251725858  0.6433857738256825  0.35693399652762214  1.0000
  C   C86       1.0  0.8433174071199888  0.6476020080411289  0.3949142907282132  1.0000
  C   C87       1.0  0.8446349968444489  0.6196985120253411  0.4315249421105472  1.0000
  C   C88       1.0  0.8620458478937346  0.5871168072918641  0.4298384667869078  1.0000
  C   C89       1.0  0.8786738417289316  0.5830678354330816  0.39183165318106716  1.0000
  C   C90       1.0  0.8779388768865478  0.6112487371708945  0.35597273082485914  1.0000
  H   H57       1.0  0.829930151630758  0.6725816760579957  0.3967380615721954  1.0000
  H   H58       1.0  0.8320031244759296  0.6233421108239594  0.46110990142064373  1.0000
  H   H59       1.0  0.8925996039039824  0.5586853638811586  0.3901746366837059  1.0000
  H   H60       1.0  0.8910699272071267  0.6079542217500513  0.3269357602063411  1.0000
  C   C91       1.0  0.25179129871437594  0.8677390893171137  0.15665668319040021  1.0000
  C   C92       1.0  0.2723534260873885  0.8378515878288869  0.15569474554009205  1.0000
  C   C93       1.0  0.2674379719342445  0.8035763448475365  0.1779387200130435  1.0000
  C   C94       1.0  0.2416260995622547  0.7988654411645961  0.20061282384331253  1.0000
  C   C95       1.0  0.2213809539451267  0.8288354330600203  0.20221352437006382  1.0000
  C   C96       1.0  0.22664639825353905  0.8631719373511813  0.18077259398922874  1.0000
  H   H61       1.0  0.2919279075489881  0.8410007841927918  0.1371880471903102  1.0000
  H   H62       1.0  0.2830031184516454  0.7804605542388985  0.17599457525671383  1.0000
  H   H63       1.0  0.20155752183302497  0.8254000888525819  0.22010836616295668  1.0000
  H   H64       1.0  0.21074415083960438  0.8856314306244982  0.18217344206580086  1.0000
  C   C97       1.0  0.07268841319230178  0.9758583371381471  0.06848336147169833  1.0000
  C   C98       1.0  0.045702678094105324  0.9582549978613749  0.040810213531970674  1.0000
  C   C99       1.0  0.016632488155667424  0.9772040701198426  0.02807911483444459  1.0000
  C   C100      1.0  0.014443474162190606  0.014007406936664246  0.042680293188831486  1.0000
  C   C101      1.0  0.04129964837795552  0.03135151463235819  0.07131075724206082  1.0000
  C   C102      1.0  0.07030060529496962  0.012227768831761354  0.08453241707552483  1.0000
  H   H65       1.0  0.04731060363469763  0.9300189547054936  0.028579669894154284  1.0000
  H   H66       1.0  0.9961171522069892  0.9636727509704912  0.0058794250271425605  1.0000
  H   H67       1.0  0.03959301331672194  0.05966495315452813  0.08324979545558775  1.0000
  H   H68       1.0  0.09074880108863087  0.025492441136502286  0.1072451247037336  1.0000
  C   C103      1.0  0.3690623613926225  0.8726992116785355  0.45156039845678875  1.0000
  C   C104      1.0  0.35473338138522337  0.8377030089441397  0.45078192806329376  1.0000
  C   C105      1.0  0.3572441075856995  0.8120946299177393  0.4137036775978085  1.0000
  C   C106      1.0  0.37427352121901886  0.8213443695749229  0.377438730273099  1.0000
  C   C107      1.0  0.3886287829760216  0.8563038752826254  0.3782352835010087  1.0000
  C   C108      1.0  0.38583942047717984  0.8819854905126532  0.4149820681743532  1.0000
  H   H69       1.0  0.34179726883952966  0.830246668864279  0.47907302675398  1.0000
  H   H70       1.0  0.34655916931405517  0.7849295772615379  0.4138576744895346  1.0000
  H   H71       1.0  0.40178524950936734  0.8635435203191459  0.35014561430191476  1.0000
  H   H72       1.0  0.39698633937946876  0.9086851885498969  0.4151551879588368  1.0000
  C   C109      1.0  0.5313021725722692  0.9930873080675068  0.5243545113032898  1.0000
  C   C110      1.0  0.5606824524801284  0.9845232485800398  0.5133356005439433  1.0000
  C   C111      1.0  0.5883974207479139  0.9840204259741158  0.5510044453506365  1.0000
  C   C112      1.0  0.5868854089636366  0.9921707238719978  0.5999890504358751  1.0000
  C   C113      1.0  0.557493811533652  0.0007122527810250467  0.6110813108089418  1.0000
  C   C114      1.0  0.5297282304941583  0.0010570625098098585  0.573406359142839  1.0000
  H   H73       1.0  0.5620494414481695  0.9782515497366424  0.4754700840384707  1.0000
  H   H74       1.0  0.610914127433443  0.9773767151926758  0.5420525505506204  1.0000
  H   H75       1.0  0.5561457460268263  0.006927049898157067  0.6489481168090407  1.0000
  H   H76       1.0  0.5071701579573048  0.007577162032553542  0.582287938506914  1.0000
  C   C115      1.0  0.31921137841684205  0.052927021737370517  0.35245044554462274  1.0000
  C   C116      1.0  0.3053961791632287  0.06414322116229473  0.3036745376994905  1.0000
  C   C117      1.0  0.27435367870219546  0.05333580630915106  0.28162158129975473  1.0000
  C   C118      1.0  0.2567045230152828  0.03198671552133725  0.3087067704270754  1.0000
  C   C119      1.0  0.27053188150390906  0.020728991603126443  0.35749371328251545  1.0000
  C   C120      1.0  0.3018466792680934  0.0307611017836418  0.37910730479872107  1.0000
  H   H77       1.0  0.31867153488491534  0.08135361641297019  0.28289456678090974  1.0000
  H   H78       1.0  0.2637370372804234  0.06257453186121473  0.24424632175526456  1.0000
  H   H79       1.0  0.25692737266101767  0.004301829804034929  0.37864317371907513  1.0000
  H   H80       1.0  0.3121706676533882  0.02207007741868039  0.4167521342863087  1.0000
  C   C121      1.0  0.22477905918501465  0.09413999837114345  0.9997392155834226  1.0000
  C   C122      1.0  0.2239255123557259  0.12808708591463974  0.9737712904929635  1.0000
  C   C123      1.0  0.23869909911492695  0.1317670224976514  0.9331541826829868  1.0000
  C   C124      1.0  0.25447364336744027  0.10147038362381806  0.9184070952269775  1.0000
  C   C125      1.0  0.25534327140479535  0.06753254678569  0.9443563201601197  1.0000
  C   C126      1.0  0.24052948486618472  0.06383417324062897  0.984955766971585  1.0000
  H   H81       1.0  0.21170373607149257  0.15161573273849208  0.9850441671883122  1.0000
  H   H82       1.0  0.237665345926513  0.15792911339289065  0.9130833715087893  1.0000
  H   H83       1.0  0.26754100534420383  0.04398163167709347  0.9331086641866808  1.0000
  H   H84       1.0  0.24132615862396364  0.03759001682660402  0.00481353557256381  1.0000
  C   C127      1.0  0.3270065304867621  0.1340170987580902  0.6520142785487618  1.0000
  C   C128      1.0  0.3552047904391586  0.13269894421575198  0.6880345271810242  1.0000
  C   C129      1.0  0.37993129636678824  0.10931874562963219  0.6815272936756298  1.0000
  C   C130      1.0  0.3765253441806447  0.08709834675510582  0.6391643657116622  1.0000
  C   C131      1.0  0.3480238097104776  0.08778290767643646  0.6037484920290405  1.0000
  C   C132      1.0  0.3234356804758066  0.11147565735608539  0.6099464551345783  1.0000
  H   H85       1.0  0.35821860431283864  0.15015402267186628  0.7204539766855768  1.0000
  H   H86       1.0  0.4019627906957517  0.1088285733966445  0.7090727512050261  1.0000
  H   H87       1.0  0.3450399343681009  0.07025553100990373  0.5714993572303232  1.0000
  H   H88       1.0  0.30144845967895845  0.11211750579583472  0.5823450094181307  1.0000
  C   C133      1.0  0.22301540272051978  0.3601189079434562  0.6447064322082986  1.0000
  C   C134      1.0  0.23265359117397658  0.3230015193792389  0.6443138439374829  1.0000
  C   C135      1.0  0.23248088671142464  0.29945583651085594  0.6853499057249999  1.0000
  C   C136      1.0  0.22219593101168195  0.31279754415432914  0.7267250355921668  1.0000
  C   C137      1.0  0.21267731203078605  0.3499331076603979  0.7272890957732236  1.0000
  C   C138      1.0  0.2136054377975948  0.3736593471035277  0.68673384259095  1.0000
  H   H89       1.0  0.24007573472418411  0.31231964992563943  0.6120063205698981  1.0000
  H   H90       1.0  0.23963321331693943  0.27073989544948374  0.6844022243527514  1.0000
  H   H91       1.0  0.2049040248122144  0.3604618967637877  0.7593672367819279  1.0000
  H   H92       1.0  0.20710861401669353  0.4023697430654735  0.688153899313457  1.0000
  C   C139      1.0  0.3635045970816281  0.29060439239990776  0.9119548767395738  1.0000
  C   C140      1.0  0.3347787497381597  0.2962321582036847  0.9264352215062128  1.0000
  C   C141      1.0  0.33189388644283074  0.3248194101356499  0.9594259916920946  1.0000
  C   C142      1.0  0.3571951187204632  0.349072478636892  0.9762354260423276  1.0000
  C   C143      1.0  0.385654070822266  0.34418247953429987  0.9606899176246092  1.0000
  C   C144      1.0  0.3889334617217007  0.3146461587355634  0.9292069218445916  1.0000
  H   H93       1.0  0.31485745855241687  0.2783738419165063  0.912947868742794  1.0000
  H   H94       1.0  0.30983489579647533  0.32860928951996293  0.9713383049103401  1.0000
  H   H95       1.0  0.4053740119297726  0.3626488628982347  0.9738595480080905  1.0000
  H   H96       1.0  0.4112223348808222  0.3105146085334625  0.9181365473218587  1.0000
  N   N1        1.0  0.29784232501118457  0.9110098974281032  0.3015568192468052  1.0000
  C   C145      1.0  0.26884106266426566  0.927789581356832  0.27088892607611315  1.0000
  C   C146      1.0  0.30541549147964164  0.8763500262751834  0.27815134760635507  1.0000
  C   C147      1.0  0.29267229364268266  0.9024812585145641  0.3519103933207268  1.0000
  C   C148      1.0  0.32442554065570844  0.9374873487592024  0.3053228832614163  1.0000
  H   H97       1.0  0.26243249020321424  0.9540507897321444  0.28731142569313817  1.0000
  H   H98       1.0  0.24823203298285576  0.9087118202967619  0.2674414063905426  1.0000
  H   H99       1.0  0.271856075443729  0.9345166877289826  0.23254442217173366  1.0000
  H   H100      1.0  0.3271155044109731  0.8627498458955538  0.30033071407675505  1.0000
  H   H101      1.0  0.2858100838139237  0.85574120248803  0.27455891530640164  1.0000
  H   H102      1.0  0.30949426498109367  0.8817459613519149  0.24006855109453595  1.0000
  H   H103      1.0  0.3140618238779366  0.8896297880012801  0.3759525629841358  1.0000
  H   H104      1.0  0.272731097617683  0.8826175077974068  0.3504795437444497  1.0000
  H   H105      1.0  0.28710711134226946  0.9280586290075782  0.3707917634600608  1.0000
  H   H106      1.0  0.3466719215967332  0.9258103618608811  0.3284611059429192  1.0000
  H   H107      1.0  0.3193898379001006  0.96403366933401  0.32261878260976173  1.0000
  H   H108      1.0  0.3289943812631549  0.9444885608111018  0.26795408144263533  1.0000
  N   N2        1.0  0.9360466314056698  0.3879182849043933  0.29562171314566654  1.0000
  C   C149      1.0  0.9478943510072834  0.3865971800472081  0.24912896246996577  1.0000
  C   C150      1.0  0.926525358270932  0.4263346485625161  0.3037150977375816  1.0000
  C   C151      1.0  0.9613260513102647  0.37589474339601914  0.33805930066410694  1.0000
  C   C152      1.0  0.9083678934806353  0.3630353767367099  0.29168988169120763  1.0000
  H   H109      1.0  0.9553067614931035  0.3579809534037278  0.24178614835825563  1.0000
  H   H110      1.0  0.9687203877039375  0.4052209474365183  0.25098169879681503  1.0000
  H   H111      1.0  0.9293328443018993  0.3956725585416695  0.21650944630460944  1.0000
  H   H112      1.0  0.9173721735508276  0.4279469842348716  0.338269385724242  1.0000
  H   H113      1.0  0.9468120677957415  0.44600783739463207  0.30777831612675094  1.0000
  H   H114      1.0  0.9072097617044007  0.43641473544813564  0.2728074369386485  1.0000
  H   H115      1.0  0.9823794847667224  0.39449311554177735  0.34266053588972833  1.0000
  H   H116      1.0  0.9692625030328773  0.3470445178415342  0.3333969460680791  1.0000
  H   H117      1.0  0.9531457597102313  0.37675470493765856  0.3737822096353092  1.0000
  H   H118      1.0  0.8987697543302682  0.36355757201879774  0.32617930448424154  1.0000
  H   H119      1.0  0.9144778027181532  0.33374583140631797  0.2854241279432029  1.0000
  H   H120      1.0  0.8885838673333807  0.3717780438048659  0.26061974594150283  1.0000
  N   N3        1.0  0.2435492145416669  0.6366942979633909  0.6054481526309562  1.0000
  C   C153      1.0  0.2661827719555012  0.6680060731637716  0.6137971642626164  1.0000
  C   C154      1.0  0.2612792457419453  0.601296175741556  0.6105597914380684  1.0000
  C   C155      1.0  0.22330609624241893  0.639832641654485  0.5548719023188143  1.0000
  C   C156      1.0  0.2234871026684928  0.6375964742791802  0.6426970994833157  1.0000
  H   H121      1.0  0.25367996629518474  0.6952129756946506  0.6101442709555469  1.0000
  H   H122      1.0  0.2817312949019104  0.6679933154328853  0.586257354081369  1.0000
  H   H123      1.0  0.28182214529549254  0.6663992237746997  0.6516394469821776  1.0000
  H   H124      1.0  0.24495624401745042  0.5771088767894751  0.603419094977326  1.0000
  H   H125      1.0  0.27738170012075036  0.5999409104255898  0.584116907355395  1.0000
  H   H126      1.0  0.2759470955698098  0.5974025796854556  0.648875008774897  1.0000
  H   H127      1.0  0.20817346318267282  0.6651037216452979  0.5506456740318192  1.0000
  H   H128      1.0  0.2073661258476187  0.6153175888233477  0.5458869344295825  1.0000
  H   H129      1.0  0.2377370164843251  0.6417137576577788  0.5259743472636578  1.0000
  H   H130      1.0  0.2061004109321316  0.614325909374521  0.6372526983945876  1.0000
  H   H131      1.0  0.20996342336153506  0.6640073699949068  0.6405636937768419  1.0000
  H   H132      1.0  0.23792464789280876  0.6345060040517501  0.6813030458169128  1.0000
  N   N4        1.0  0.8514202306365911  0.8410366360146823  0.9857674017539686  1.0000
  C   C157      1.0  0.8245883657236699  0.8663408718755309  0.9665393613614405  1.0000
  C   C158      1.0  0.8584212458567518  0.8192630882776578  0.9441772269246778  1.0000
  C   C159      1.0  0.8431471302487377  0.815634126629139  0.02368461618273976  1.0000
  C   C160      1.0  0.8796004621094364  0.8630510908428535  0.008509945690973854  1.0000
  H   H133      1.0  0.8185720472086127  0.8831952105658626  0.9968599748615353  1.0000
  H   H134      1.0  0.8029352918396174  0.8507555940436088  0.9487451209139351  1.0000
  H   H135      1.0  0.8302468006672171  0.8860345983123876  0.9381007948623475  1.0000
  H   H136      1.0  0.8377035950315125  0.8022059156053711  0.9261897310710874  1.0000
  H   H137      1.0  0.8645419708375723  0.8378157806752877  0.9148406375873243  1.0000
  H   H138      1.0  0.8788355945563747  0.800215618674969  0.9571043951982993  1.0000
  H   H139      1.0  0.8214046593251654  0.7993130533671642  0.008406564452262401  1.0000
  H   H140      1.0  0.8386767282879443  0.8311828214371288  0.056227448848120254  1.0000
  H   H141      1.0  0.8626282575714244  0.7956544206684382  0.03825540480411078  1.0000
  H   H142      1.0  0.9001446377892037  0.8449855418964431  0.02475877431743667  1.0000
  H   H143      1.0  0.8749430527059732  0.8808464873145299  0.03897800483717117  1.0000
  H   H144      1.0  0.8870142509214979  0.8816804296584024  0.9805495480267762  1.0000
  N   N5        1.0  0.6362280942449668  0.09983461133778239  0.6927782327200585  1.0000
  C   C161      1.0  0.6343574092831983  0.08782187864902778  0.6409899814572565  1.0000
  C   C162      1.0  0.6365427870103549  0.0668231929702859  0.7253788349340493  1.0000
  C   C163      1.0  0.6084115157176055  0.12310592266148072  0.6947484570203885  1.0000
  C   C164      1.0  0.6655160815674277  0.12156765136630555  0.709970131128521  1.0000
  H   H145      1.0  0.6123390763939088  0.07164592693785593  0.6266835771952648  1.0000
  H   H146      1.0  0.6546108283946832  0.06947736146522075  0.6381554861459292  1.0000
  H   H147      1.0  0.6344680422818485  0.11191915786046022  0.6153678238690818  1.0000
  H   H148      1.0  0.6389276966029253  0.07461936315150301  0.7650051245035698  1.0000
  H   H149      1.0  0.6143120394364108  0.050396746717384894  0.7143405373233068  1.0000
  H   H150      1.0  0.65645033610367  0.047766013447450954  0.7230883273977825  1.0000
  H   H151      1.0  0.5859135038293735  0.10748539783661964  0.6817993942827342  1.0000
  H   H152      1.0  0.6074870188579743  0.1483029572294355  0.6705694723733764  1.0000
  H   H153      1.0  0.60896022258305  0.13257345395840064  0.7333021067225052  1.0000
  H   H154      1.0  0.6682822538419461  0.13008072007401378  0.7494167284147912  1.0000
  H   H155      1.0  0.6655013196836027  0.1474934939547593  0.6874485103959491  1.0000
  H   H156      1.0  0.6869330957382446  0.10531728396577182  0.7070556896716178  1.0000
  N   N6        1.0  0.7818023734807915  0.5893650323965048  0.25389400473974244  1.0000
  C   C165      1.0  0.7771571918030962  0.617211691521283  0.29079263751578627  1.0000
  C   C166      1.0  0.778499066286155  0.6076293400407669  0.20462036904996667  1.0000
  C   C167      1.0  0.7578476095786354  0.5595902580539197  0.25101658549872885  1.0000
  C   C168      1.0  0.8138375979007717  0.573175068495161  0.26911582635209164  1.0000
  H   H157      1.0  0.780424686058473  0.6048516084660847  0.3288288684869582  1.0000
  H   H158      1.0  0.7529758214325171  0.6294731992197438  0.28108278561048894  1.0000
  H   H159      1.0  0.7942624601041796  0.6406161432709255  0.2927584673503166  1.0000
  H   H160      1.0  0.7549472830632341  0.6209895161245261  0.192596357257906  1.0000
  H   H161      1.0  0.7965139314594852  0.629924294674022  0.2053377598679402  1.0000
  H   H162      1.0  0.7810191932156708  0.5874369979743178  0.1753770033861514  1.0000
  H   H163      1.0  0.7604939326164026  0.5381809415714705  0.22326143422032824  1.0000
  H   H164      1.0  0.7333837759998824  0.5708646729487747  0.23970434339330046  1.0000
  H   H165      1.0  0.7597930693398546  0.5450845027504017  0.2875208817473613  1.0000
  H   H166      1.0  0.8178299011060485  0.5512542343730692  0.24292815668389278  1.0000
  H   H167      1.0  0.8176548744687372  0.5603633193712391  0.3070125923737594  1.0000
  H   H168      1.0  0.8323721377493942  0.5948467894779237  0.26998037215029075  1.0000
  N   N7        1.0  0.33709776865225255  0.17169191591153307  0.9975393387178353  1.0000
  C   C169      1.0  0.33646344243666065  0.1445282463242528  0.9574506380330309  1.0000
  C   C170      1.0  0.35079848782298884  0.20703439799732148  0.9840517784801784  1.0000
  C   C171      1.0  0.35662484163107905  0.15696700230157878  0.04455251152321392  1.0000
  C   C172      1.0  0.30446310935614523  0.1782100354991257  0.0039677214182978204  1.0000
  H   H169      1.0  0.3256677503020338  0.11766700544171935  0.9656864914571739  1.0000
  H   H170      1.0  0.36066493778194963  0.13868727337945613  0.9516419864977052  1.0000
  H   H171      1.0  0.3222230021862651  0.1550335100764739  0.9213718008183044  1.0000
  H   H172      1.0  0.3514181936991408  0.22859685887037012  0.012944659775671498  1.0000
  H   H173      1.0  0.3753967612559426  0.2033335931030615  0.9785997953045927  1.0000
  H   H174      1.0  0.3367860625632385  0.21855888892671863  0.9484996568359293  1.0000
  H   H175      1.0  0.35756872585807004  0.17683283167315197  0.07557408556872525  1.0000
  H   H176      1.0  0.3814127654506565  0.15174846389181168  0.04099475590139365  1.0000
  H   H177      1.0  0.346902815066803  0.13025033545476658  0.05570655695448461  1.0000
  H   H178      1.0  0.3039406919710162  0.19872649057671307  0.03374620399870665  1.0000
  H   H179      1.0  0.2933646030370479  0.1520477498431964  0.014072814739257923  1.0000
  H   H180      1.0  0.2890298658747782  0.18917247183911245  0.9690998227628966  1.0000
  N   N8        1.0  0.5981483967893637  0.4496141418375679  0.17549141383321085  1.0000
  C   C173      1.0  0.6091415282695738  0.43033405056472757  0.2238419496871214  1.0000
  C   C174      1.0  0.6157959945174095  0.4352461504842306  0.13928193535028877  1.0000
  C   C175      1.0  0.6039638497098628  0.48993672085708634  0.18194518645553048  1.0000
  C   C176      1.0  0.5639013163342238  0.4429638606001691  0.15687293271232275  1.0000
  H   H181      1.0  0.5963976174291833  0.44043009188573984  0.2522353400925135  1.0000
  H   H182      1.0  0.6349813387161444  0.4350613521145398  0.23857114076802277  1.0000
  H   H183      1.0  0.6054218256326547  0.3997932415395531  0.2203561573660257  1.0000
  H   H184      1.0  0.6417721631907385  0.4391604348953069  0.1525707750663192  1.0000
  H   H185      1.0  0.611483241136465  0.4050763537139966  0.13252865715295437  1.0000
  H   H186      1.0  0.6086796322751967  0.44973656014367885  0.10269936340909691  1.0000
  H   H187      1.0  0.5957714441611152  0.5054641101884987  0.1462637417303732  1.0000
  H   H188      1.0  0.6296939825067682  0.49593008022626756  0.19540174463915438  1.0000
  H   H189      1.0  0.5912808223778104  0.5016818721069182  0.2094219813770989  1.0000
  H   H190      1.0  0.5551102585116501  0.45677848966117884  0.12001722735793248  1.0000
  H   H191      1.0  0.549686189517187  0.45393948271069057  0.18279510714082048  1.0000
  H   H192      1.0  0.5586004477774328  0.4128108203332099  0.15179307410000695  1.0000
  N   N9        1.0  0.7603687943246207  0.8245742612281388  0.5984477190503547  1.0000
  C   C177      1.0  0.76246923806284  0.804217725077756  0.5528743066320675  1.0000
  C   C178      1.0  0.7840688025710857  0.8548001136084676  0.6066496208904328  1.0000
  C   C179      1.0  0.766548794718463  0.7988998476050854  0.6417880565747701  1.0000
  C   C180      1.0  0.7283145693034055  0.8405235946066076  0.592642543230141  1.0000
  H   H193      1.0  0.7452904066854391  0.7807978636342068  0.545961988021994  1.0000
  H   H194      1.0  0.7865906052909293  0.7926433512487701  0.5551382168096753  1.0000
  H   H195      1.0  0.7570539021096834  0.8226976251174853  0.5194015385492671  1.0000
  H   H196      1.0  0.8085773211753825  0.8438329130093337  0.6114335814118711  1.0000
  H   H197      1.0  0.780136153982717  0.8747071571581438  0.5747106818325712  1.0000
  H   H198      1.0  0.7828772917632706  0.8709434415762297  0.6405078848672686  1.0000
  H   H199      1.0  0.7651530250517697  0.8136779875116157  0.6767023355649912  1.0000
  H   H200      1.0  0.7905311824728933  0.7862694700116922  0.6473414099594479  1.0000
  H   H201      1.0  0.7489076509004344  0.7759388720163648  0.6371499122127013  1.0000
  H   H202      1.0  0.7255982060761619  0.8550474205662473  0.6269487530594391  1.0000
  H   H203      1.0  0.7096496818862036  0.8187746904522882  0.58470751183227  1.0000
  H   H204      1.0  0.7232240059691155  0.8611130910370728  0.561495617047241  1.0000
  N   N10       1.0  0.42428696710825864  0.6173789655597461  0.08118619208130905  1.0000
  C   C181      1.0  0.39626812953123003  0.6413931971046677  0.07859722919581422  1.0000
  C   C182      1.0  0.4331262516355571  0.6172176001079674  0.03216431560600364  1.0000
  C   C183      1.0  0.4166556033614257  0.5791482793466467  0.09472777223461633  1.0000
  C   C184      1.0  0.4510211723834502  0.6315163035556396  0.119277716748529  1.0000
  H   H205      1.0  0.3883266190440189  0.6412351778892081  0.11457021002509375  1.0000
  H   H206      1.0  0.3758508751489473  0.6316928207928827  0.04952189687448253  1.0000
  H   H207      1.0  0.4012014275298369  0.6706700063340426  0.06936828582300221  1.0000
  H   H208      1.0  0.4399612642916471  0.6454018491393246  0.02123044348979142  1.0000
  H   H209      1.0  0.45338807772623113  0.5980968047470657  0.03219887918571308  1.0000
  H   H210      1.0  0.41306877231118594  0.6076271990368118  0.002480021344358319  1.0000
  H   H211      1.0  0.43722671042868055  0.5601850442987112  0.09750201055084794  1.0000
  H   H212      1.0  0.3968606837227063  0.5675010774719933  0.06634927925478597  1.0000
  H   H213      1.0  0.4095403343155433  0.57817737988646  0.13124569457869886  1.0000
  H   H214      1.0  0.4450489344120932  0.6317879022873987  0.15671482143414858  1.0000
  H   H215      1.0  0.45745373668891187  0.6603792466521321  0.11036591458560943  1.0000
  H   H216      1.0  0.4724560686677061  0.613823499430644  0.12199311835897063  1.0000
  N   N11       1.0  0.28106065109814005  0.05370138427863639  0.7258880946489071  1.0000
  C   C185      1.0  0.25057400832187665  0.0662139117570803  0.7361687673506786  1.0000
  C   C186      1.0  0.27921759232528093  0.05464103864665202  0.6715961823282456  1.0000
  C   C187      1.0  0.28794744473077044  0.015453950352303472  0.7452351786610494  1.0000
  C   C188      1.0  0.3065842543662353  0.07873012252584026  0.7506300657841157  1.0000
  H   H217      1.0  0.25106563062255033  0.06571321055334932  0.7768237707507631  1.0000
  H   H218      1.0  0.23061855169348305  0.04830433454769087  0.7176104724948951  1.0000
  H   H219      1.0  0.24505339878033822  0.09528974895534861  0.7227533530607145  1.0000
  H   H220      1.0  0.2607308009966668  0.03541561920205019  0.6516398043082202  1.0000
  H   H221      1.0  0.27326921488403094  0.08306174493351048  0.6558628512325264  1.0000
  H   H222      1.0  0.30220900878852747  0.046651022296604956  0.662543458396932  1.0000
  H   H223      1.0  0.26912272973873175  0.9957472220870575  0.7275042093108391  1.0000
  H   H224      1.0  0.2896143603038719  0.014013172674467  0.7862183638673358  1.0000
  H   H225      1.0  0.31085515701564553  0.005312669850241479  0.7380131951715369  1.0000
  H   H226      1.0  0.3299701693446192  0.07063600013062576  0.7431989615538509  1.0000
  H   H227      1.0  0.30870993755069603  0.07883465660652421  0.7917098035049946  1.0000
  H   H228      1.0  0.30188143336043416  0.10777417049627006  0.7370111708147559  1.0000
  N   N12       1.0  0.35768089770677697  0.1517329751849543  0.4812724932214735  1.0000
  C   C189      1.0  0.37748426344206376  0.15065332988915034  0.44366548656519555  1.0000
  C   C190      1.0  0.33843414629756363  0.18603849357360844  0.47434437950284974  1.0000
  C   C191      1.0  0.37828489723497155  0.15114242069861603  0.5317249767425237  1.0000
  C   C192      1.0  0.3364474233990572  0.11908520787478438  0.4752148411428437  1.0000
  H   H229      1.0  0.3626869309085578  0.1501250889051069  0.40513482071482454  1.0000
  H   H230      1.0  0.3924460642398046  0.12519593815398386  0.44809821762819135  1.0000
  H   H231      1.0  0.39355534990263696  0.17505775640317345  0.4464378672621969  1.0000
  H   H232      1.0  0.3231438779851778  0.18763243955085604  0.5021434391012478  1.0000
  H   H233      1.0  0.3536467861296336  0.21128878436611978  0.4786901062307882  1.0000
  H   H234      1.0  0.32260150544454036  0.1872740953781503  0.43663438329934534  1.0000
  H   H235      1.0  0.3642814380804309  0.15410698583482751  0.561008362342577  1.0000
  H   H236      1.0  0.39580274840467294  0.17421154327030783  0.5366808986550942  1.0000
  H   H237      1.0  0.3917839341728285  0.12459263289377075  0.5394741022182638  1.0000
  H   H238      1.0  0.32121004131182107  0.11803325150017492  0.43702892866734655  1.0000
  H   H239      1.0  0.3206070057211797  0.11929960914944576  0.5021224764995772  1.0000
  H   H240      1.0  0.3501733105534988  0.09271889466822315  0.4809626942610785  1.0000
  N   N13       1.0  0.48004303682618743  0.8793024485861392  0.4984989860980124  1.0000
  C   C193      1.0  0.45112395350192375  0.8679844490310483  0.515369993365322  1.0000
  C   C194      1.0  0.49975507141459624  0.9031044143824462  0.5364660060479344  1.0000
  C   C195      1.0  0.4710953191638142  0.9002496804579642  0.4510316448793511  1.0000
  C   C196      1.0  0.49820406626699293  0.8459145963102963  0.4909727856331948  1.0000
  H   H241      1.0  0.436412728351769  0.8924869042766849  0.520198222276568  1.0000
  H   H242      1.0  0.4568782346576931  0.8528401511796783  0.5516639595388882  1.0000
  H   H243      1.0  0.43596372387531496  0.8493916597240464  0.4880407618025316  1.0000
  H   H244      1.0  0.5216543782741643  0.9124585149042729  0.5247093206495521  1.0000
  H   H245      1.0  0.48680068851970426  0.9286745193259053  0.5427898927446505  1.0000
  H   H246      1.0  0.5070441352471297  0.8883687541250821  0.572882235333708  1.0000
  H   H247      1.0  0.4923330987594746  0.9102784351764998  0.4378982334402111  1.0000
  H   H248      1.0  0.4569676768824676  0.9253029579941092  0.4552458111629368  1.0000
  H   H249      1.0  0.4566596069259606  0.8830314135722961  0.4211656813656416  1.0000
  H   H250      1.0  0.4839709816111184  0.8274159518987112  0.46240162090075343  1.0000
  H   H251      1.0  0.505346892627407  0.8293934126122832  0.5260393425945793  1.0000
  H   H252      1.0  0.5201539423665689  0.8535686922767826  0.47814694225207216  1.0000
  N   N14       1.0  0.7781399487773965  0.9069409156469093  0.27311535166113854  1.0000
  C   C197      1.0  0.7575633608242279  0.9014365011878231  0.3091511608902489  1.0000
  C   C198      1.0  0.7604025383543987  0.8974864936137869  0.22261634268026714  1.0000
  C   C199      1.0  0.8061589270555394  0.8825828882583314  0.28700441038304486  1.0000
  C   C200      1.0  0.7885563487222801  0.9460922476709802  0.27372646715445637  1.0000
  H   H253      1.0  0.7702208233965258  0.90832244231516  0.34767658898504644  1.0000
  H   H254      1.0  0.7497707747048776  0.8719599875104068  0.3101041768072634  1.0000
  H   H255      1.0  0.7359236959224693  0.9189960914109477  0.2997963688148307  1.0000
  H   H256      1.0  0.752418651587265  0.8679747778291768  0.2207340957022812  1.0000
  H   H257      1.0  0.7389967595983797  0.9151581255071678  0.21075629899357237  1.0000
  H   H258      1.0  0.7753221699290075  0.901022807292781  0.194536267316724  1.0000
  H   H259      1.0  0.8225963129887368  0.8863088510481739  0.261242042589345  1.0000
  H   H260      1.0  0.7990346188939196  0.8529353512090626  0.2857332721712292  1.0000
  H   H261      1.0  0.8196252565024894  0.8878803867645693  0.3255905133297581  1.0000
  H   H262      1.0  0.8041195673229884  0.9510243004689618  0.24680187952971377  1.0000
  H   H263      1.0  0.8022288768715475  0.953935819884364  0.31128360951649536  1.0000
  H   H264      1.0  0.768001720950259  0.9653158883571984  0.26360705413601815  1.0000
  N   N15       1.0  0.11650426764642724  0.3747983197976633  0.6308059568656643  1.0000
  C   C201      1.0  0.12496321571752263  0.397010514102883  0.6766344562122742  1.0000
  C   C202      1.0  0.13139863904646204  0.3912458325446143  0.592008789192007  1.0000
  C   C203      1.0  0.08172493329438536  0.37487085105746193  0.6129514560442445  1.0000
  C   C204      1.0  0.1279347813751722  0.33625155654080474  0.6415164071080539  1.0000
  H   H265      1.0  0.15098621747533802  0.3974477134228649  0.6913759043016404  1.0000
  H   H266      1.0  0.11382175415770382  0.38569747255873366  0.7065698333311102  1.0000
  H   H267      1.0  0.11713786092048253  0.4264309072586026  0.6696658421813355  1.0000
  H   H268      1.0  0.12626043732182826  0.37480030332354525  0.5572128524769632  1.0000
  H   H269      1.0  0.12271601399132151  0.4199905892799258  0.5821863379873883  1.0000
  H   H270      1.0  0.15758366462225218  0.3926505025456546  0.6046146183521017  1.0000
  H   H271      1.0  0.07445555003857703  0.3591117078876682  0.5777697110576985  1.0000
  H   H272      1.0  0.07250418515853556  0.40373521347820013  0.6052941368947462  1.0000
  H   H273      1.0  0.0696052784825767  0.3622804240054301  0.640978259540655  1.0000
  H   H274      1.0  0.1177694761053321  0.32313053165664984  0.6714356949115734  1.0000
  H   H275      1.0  0.15419953742592962  0.3353000924642173  0.6540310086519334  1.0000
  H   H276      1.0  0.12161639013640173  0.31860620704983106  0.6078867141720162  1.0000
  N   N16       1.0  0.8179939295981248  0.044689919116456915  0.7821225120578459  1.0000
  C   C205      1.0  0.7951987830724785  0.014844408975891678  0.7633872819271034  1.0000
  C   C206      1.0  0.8389592444101931  0.03244539458134329  0.8292700304452314  1.0000
  C   C207      1.0  0.8005978958053519  0.07836182716444705  0.7909585619383394  1.0000
  C   C208      1.0  0.8372329028402749  0.05308979736558025  0.7449551991782309  1.0000
  H   H277      1.0  0.7786722641340263  0.02337436559823304  0.7282712534361873  1.0000
  H   H278      1.0  0.7806471570208958  0.007409789911948516  0.7908722856044154  1.0000
  H   H279      1.0  0.8074988759325555  0.9892683534543972  0.7552163062146704  1.0000
  H   H280      1.0  0.8521870864224652  0.0067198655470803725  0.8243236083158163  1.0000
  H   H281      1.0  0.856612651254906  0.05428647527870643  0.844173522210574  1.0000
  H   H282      1.0  0.8253176987175537  0.026416711792372885  0.8585451173880955  1.0000
  H   H283      1.0  0.817054677651305  0.10193078292552671  0.8031485500355138  1.0000
  H   H284      1.0  0.786980719933907  0.07340243448470639  0.8204945469932019  1.0000
  H   H285      1.0  0.7835299339110849  0.08746523865029757  0.7566788249788424  1.0000
  H   H286      1.0  0.8544364494426561  0.07587680488454462  0.7576216402175026  1.0000
  H   H287      1.0  0.8220811549264835  0.06191557112086067  0.7086746585642613  1.0000
  H   H288      1.0  0.8508635413721057  0.02830374999057067  0.7377644648303048  1.0000
  N   N17       1.0  0.7547972284133723  0.28785378734876305  0.5583324701674784  1.0000
  C   C209      1.0  0.7402540277700261  0.2993931105621717  0.5067795036140872  1.0000
  C   C210      1.0  0.7444706340651169  0.31336295227552985  0.5934775830176371  1.0000
  C   C211      1.0  0.7896492700847453  0.289258370842658  0.5655497891127886  1.0000
  C   C212      1.0  0.7448540342029685  0.24952599533260644  0.5675359582448318  1.0000
  H   H289      1.0  0.7476418278686355  0.28084980142886545  0.4792136223103441  1.0000
  H   H290      1.0  0.7473821255186269  0.32824601384790697  0.49884516865006884  1.0000
  H   H291      1.0  0.7139393869634437  0.2986927367877716  0.500057327964903  1.0000
  H   H292      1.0  0.7551176316048537  0.30566428445172783  0.6327044913318756  1.0000
  H   H293      1.0  0.7517904197208986  0.34256322003003203  0.5880078104081939  1.0000
  H   H294      1.0  0.718323254005665  0.3129601717757495  0.5895134508108937  1.0000
  H   H295      1.0  0.7984213577246233  0.2704727827162638  0.5396471833186416  1.0000
  H   H296      1.0  0.8014204579677981  0.2808035258134818  0.6041405041061818  1.0000
  H   H297      1.0  0.797987779782022  0.31786406205127693  0.5591108347480013  1.0000
  H   H298      1.0  0.7557335628512022  0.23982577806114458  0.6059645844356945  1.0000
  H   H299      1.0  0.7519052885109692  0.2294729304342399  0.5414149420114561  1.0000
  H   H300      1.0  0.718723026419707  0.24749812627397183  0.5635649022499202  1.0000
  N   N18       1.0  0.14974931574047978  0.8486185513793209  0.06602202449852437  1.0000
  C   C213      1.0  0.1836213707752457  0.8433181402064246  0.06578521576610877  1.0000
  C   C214      1.0  0.13538892554693505  0.8742797258429487  0.025072621416780017  1.0000
  C   C215      1.0  0.1466441541388855  0.8645906461292374  0.1139873398595777  1.0000
  C   C216      1.0  0.1333256755323805  0.8123818511610045  0.059363307805780294  1.0000
  H   H301      1.0  0.1951434426168834  0.8235356128463102  0.09562965452594227  1.0000
  H   H302      1.0  0.19693154905382393  0.8700259286382107  0.0719205335174163  1.0000
  H   H303      1.0  0.18692774290136951  0.8320208575353052  0.02979324028723918  1.0000
  H   H304      1.0  0.10996370671121573  0.8795786592337551  0.02479936980877784  1.0000
  H   H305      1.0  0.1474522576350378  0.9018283944038066  0.029185527027256523  1.0000
  H   H306      1.0  0.13692333045498634  0.8631242236982221  0.9881422365409047  1.0000
  H   H307      1.0  0.12139673391864124  0.8696390331270201  0.11514290545651916  1.0000
  H   H308      1.0  0.15882913937102808  0.8918875661983848  0.12019370714656077  1.0000
  H   H309      1.0  0.15700619673398447  0.8460005918908703  0.1458958519740839  1.0000
  H   H310      1.0  0.10771309016607325  0.8154223367121038  0.059467591878036866  1.0000
  H   H311      1.0  0.14368583621805597  0.7925121408106487  0.0899099658047473  1.0000
  H   H312      1.0  0.13521048550638146  0.799416178821219  0.023584066181860486  1.0000
  N   N19       1.0  0.9648749069146507  0.5678815801673784  0.5126747976660888  1.0000
  C   C217      1.0  0.9994961246256397  0.5731536785033033  0.5201866156466621  1.0000
  C   C218      1.0  0.9537265011039536  0.5445099565282728  0.46864461239035443  1.0000
  C   C219      1.0  0.948701652642631  0.6043061823198757  0.5046640501008676  1.0000
  C   C220      1.0  0.9573503777118568  0.5493633343100172  0.5570041684395317  1.0000
  H   H313      1.0  0.00885162114860405  0.5905241465244241  0.5532998051621426  1.0000
  H   H314      1.0  0.005943463258367476  0.5869319739109086  0.48728468432644073  1.0000
  H   H315      1.0  0.012291357021899652  0.5460598109118174  0.5260577137744474  1.0000
  H   H316      1.0  0.9658417973903591  0.5171154089640625  0.4727000433799445  1.0000
  H   H317      1.0  0.9279423215251179  0.5390678729518227  0.46318098945564756  1.0000
  H   H318      1.0  0.9579935725530823  0.5579445046545021  0.434030812117727  1.0000
  H   H319      1.0  0.9225305932483879  0.6010930036910311  0.49939139474360456  1.0000
  H   H320      1.0  0.9531800204836123  0.618763042735478  0.4708204674082673  1.0000
  H   H321      1.0  0.9566520326501637  0.6229256885636556  0.5369312819077269  1.0000
  H   H322      1.0  0.965449778051089  0.5661321843211814  0.591086805964372  1.0000
  H   H323      1.0  0.9688785018760513  0.5215950207874889  0.5638417777778438  1.0000
  H   H324      1.0  0.9313095671297639  0.5450315267831148  0.5523882477942416  1.0000
  N   N20       1.0  0.6587196409971279  0.4459239645113797  0.8637791339601277  1.0000
  C   C221      1.0  0.6836244634063001  0.47476273776930633  0.8741840499809495  1.0000
  C   C222      1.0  0.6479468453116523  0.4367636416091039  0.9099911610478497  1.0000
  C   C223      1.0  0.6716789098492787  0.4122534103036847  0.8452195552338622  1.0000
  C   C224      1.0  0.6316133003696086  0.4599570262169285  0.8258159277090629  1.0000
  H   H325      1.0  0.6928305982730714  0.4818856079933753  0.8404470112762976  1.0000
  H   H326      1.0  0.7041970645093796  0.4653151455584173  0.9034851230990771  1.0000
  H   H327      1.0  0.6746132777426589  0.5007909335044012  0.8876778490971883  1.0000
  H   H328      1.0  0.6366992472361761  0.4611726394875107  0.9236451439708743  1.0000
  H   H329      1.0  0.6300588723137702  0.41405377440652263  0.9043804551642539  1.0000
  H   H330      1.0  0.6679757108544858  0.42781144338580307  0.9404067225170732  1.0000
  H   H331      1.0  0.6796084346339392  0.4179112062965715  0.8099381991762807  1.0000
  H   H332      1.0  0.6539611102874685  0.38937369244380327  0.8383823463619147  1.0000
  H   H333      1.0  0.6925683288262863  0.4016531865122787  0.8725657557079032  1.0000
  H   H334      1.0  0.612371331815267  0.43886806357063685  0.8173901801310341  1.0000
  H   H335      1.0  0.638824772357397  0.467217094955772  0.7903913130625705  1.0000
  H   H336      1.0  0.6212719227831233  0.48536249753135147  0.8388222394776285  1.0000
  N   N21       1.0  0.10960315442342017  0.07905151646581654  0.9900158126508345  1.0000
  C   C225      1.0  0.11335665282964169  0.09738966214438749  0.03875692179996171  1.0000
  C   C226      1.0  0.12528996774018708  0.04234830854088001  0.9969725289373544  1.0000
  C   C227      1.0  0.12435392638292808  0.10233670852568899  0.9565643498843168  1.0000
  C   C228      1.0  0.07555026059502579  0.07413433752057852  0.9678223702594978  1.0000
  H   H337      1.0  0.10213114877501961  0.12534830698926536  0.034977576257583465  1.0000
  H   H338      1.0  0.13883464926986  0.10106482667008776  0.0567735901994717  1.0000
  H   H339      1.0  0.10232374842968728  0.08080000376028784  0.06488405096775551  1.0000
  H   H340      1.0  0.12251507363550695  0.027340389345289928  0.9611967881236998  1.0000
  H   H341      1.0  0.15109841217172226  0.045191352278184604  0.01274588299337065  1.0000
  H   H342      1.0  0.11534078453800856  0.024287392027323218  0.022980160019704376  1.0000
  H   H343      1.0  0.11300266953495441  0.13019589685667876  0.9502383549372733  1.0000
  H   H344      1.0  0.12248474860514502  0.08912885189086217  0.9196817815948455  1.0000
  H   H345      1.0  0.1500196242690941  0.10683885016813988  0.9725654919146873  1.0000
  H   H346      1.0  0.07182370725974607  0.061134567452918454  0.9305199069778612  1.0000
  H   H347      1.0  0.06266404190936159  0.10111297031430655  0.9635075243950696  1.0000
  H   H348      1.0  0.06390837145010031  0.055775610157637656  0.9913810362902016  1.0000
  N   N22       1.0  0.7971717483721699  0.24460735991720997  0.9777528786686597  1.0000
  C   C229      1.0  0.7678334139739715  0.2575900820541888  0.991611969095512  1.0000
  C   C230      1.0  0.7993895917834859  0.2036982852792708  0.982752625963382  1.0000
  C   C231      1.0  0.8249514348047678  0.26173918452029055  0.010612588852493055  1.0000
  C   C232      1.0  0.7965044938328937  0.25557086530406037  0.9256727303649407  1.0000
  H   H349      1.0  0.7463739188499334  0.24590792442288364  0.9665617626288978  1.0000
  H   H350      1.0  0.7655802883499218  0.2884142360868526  0.9883910578723049  1.0000
  H   H351      1.0  0.7671390876004659  0.2495001742334817  0.03050571009980319  1.0000
  H   H352      1.0  0.8211990043464736  0.1930281075035029  0.9721612469137827  1.0000
  H   H353      1.0  0.8000231411178371  0.19426205911282304  0.02161393325910477  1.0000
  H   H354      1.0  0.7788154417387545  0.18994947999762016  0.9582095997589992  1.0000
  H   H355      1.0  0.8474158841328578  0.25265671703505643  0.0006885051760603389  1.0000
  H   H356      1.0  0.8262870655284954  0.2540550204222883  0.05031329071583023  1.0000
  H   H357      1.0  0.8239731874289875  0.2926377360279417  0.007494261369980216  1.0000
  H   H358      1.0  0.794601821715874  0.2862832716061703  0.9205781851304026  1.0000
  H   H359      1.0  0.7757609201684967  0.2432847527263288  0.8998872651705003  1.0000
  H   H360      1.0  0.8181889960862563  0.24628707845250158  0.9134557290810988  1.0000
  N   N23       1.0  0.306072803769738  0.38066897768760044  0.8127322892470934  1.0000
  C   C233      1.0  0.33565515572143534  0.3943788997157602  0.8448918171181519  1.0000
  C   C234      1.0  0.29382925433781665  0.4089368232630428  0.7740241537764923  1.0000
  C   C235      1.0  0.28230792897477314  0.3736650746913929  0.8431864578231559  1.0000
  C   C236      1.0  0.31251415977373487  0.3457601204172899  0.7888944065426133  1.0000
  H   H361      1.0  0.33159789838360737  0.4204567279633764  0.8639680847607413  1.0000
  H   H362      1.0  0.3540154739466868  0.40064845104676416  0.8231052218281881  1.0000
  H   H363      1.0  0.3458476766371386  0.37368479342688005  0.8741418955625821  1.0000
  H   H364      1.0  0.31140080805546855  0.41525172751663875  0.7508448596748507  1.0000
  H   H365      1.0  0.27170426958913463  0.3994964495663758  0.7486033723175154  1.0000
  H   H366      1.0  0.288575086440101  0.43558361323790207  0.7908380913767835  1.0000
  H   H367      1.0  0.29087930085893016  0.35260594834050385  0.8728638415643044  1.0000
  H   H368      1.0  0.2597617829275686  0.3629472963726581  0.8201776407379454  1.0000
  H   H369      1.0  0.2769039474316698  0.3994475284177783  0.8617697947504749  1.0000
  H   H370      1.0  0.2906181882944241  0.33457659961623415  0.7644647529989659  1.0000
  H   H371      1.0  0.32193605987430024  0.32387276489457806  0.8171525923744984  1.0000
  H   H372      1.0  0.33033635517710375  0.35003405995983544  0.7655705546552287  1.0000
  N   N24       1.0  0.2989073601596356  0.5511819202636602  0.33204672126761936  1.0000
  C   C237      1.0  0.26772778700807437  0.5596122448124513  0.343110742926987  1.0000
  C   C238      1.0  0.30887855473694137  0.513437096930676  0.35057184324533325  1.0000
  C   C239      1.0  0.32253407044192156  0.5784854382228256  0.3569251878256687  1.0000
  C   C240      1.0  0.29646745045767087  0.5531412387616269  0.2776386913281452  1.0000
  H   H373      1.0  0.25978464297105597  0.5881969754947572  0.33040185569425135  1.0000
  H   H374      1.0  0.2685459227970477  0.5577855706232075  0.383764529469373  1.0000
  H   H375      1.0  0.24914624990826092  0.5399628646507417  0.32446698262130774  1.0000
  H   H376      1.0  0.29158235046017666  0.49211678398719033  0.3326366649252984  1.0000
  H   H377      1.0  0.3323728873979142  0.5062692133328589  0.34279431545534333  1.0000
  H   H378      1.0  0.3108701476760025  0.5110760991546658  0.3915492412577689  1.0000
  H   H379      1.0  0.3462738067404591  0.5734680228865235  0.34865137125925205  1.0000
  H   H380      1.0  0.32493401638733244  0.5780032585530536  0.398062013890377  1.0000
  H   H381      1.0  0.31577190375906977  0.6072895866211967  0.34419876846192815  1.0000
  H   H382      1.0  0.31952660591490306  0.546688743020711  0.26777549896350017  1.0000
  H   H383      1.0  0.28949527579254486  0.5814949204187636  0.2625627891218699  1.0000
  H   H384      1.0  0.2786036857791424  0.5332942075495499  0.2575129714819658  1.0000
