data_image0
_chemical_formula_structural       FeS2FeS2FeSFeS3FeS2FeS2FeSFeS3FeS2FeS2FeSFeS3FeS2FeS2FeSFeS3FeS2FeS2FeSFeS3FeS2FeS2FeSFeS3FeS2FeS2FeSFeS3FeS2FeS2FeSFeS3C6H4C6H4C6H4C6H4C6H4C6H4C6H4C6H4C6H4C6H4C6H4C6H4C6H4C6H4C6H4C6H4FeS2FeS2FeSFeS3FeS2FeS2FeSFeS3FeS2FeS2FeSFeS3FeS2FeS2FeSFeS3FeS2FeS2FeSFeS3FeS2FeS2FeSFeS3FeS2FeS2FeSFeS3FeS2FeS2FeSFeS3C6H4C6H4C6H4C6H4C6H4C6H4C6H4C6H4C6H4C6H4C6H4C6H4C6H4C6H4C6H4C6H4NC4H12NC4H12NC4H12NC4H12NC4H12NC4H12NC4H12NC4H12NC4H12NC4H12NC4H12NC4H12NC4H12NC4H12NC4H12NC4H12NC4H12NC4H12NC4H12NC4H12NC4H12NC4H12NC4H12NC4H12NC4H12NC4H12NC4H12NC4H12NC4H12NC4H12NC4H12NC4H12
_chemical_formula_sum              "Fe64 S128 C320 H512 N32"
_cell_length_a       31.54413378130808
_cell_length_b       30.842105322840986
_cell_length_c       39.85570182594428
_cell_angle_alpha    90.26858210102473
_cell_angle_beta     89.2891796972344
_cell_angle_gamma    89.91422460877745

_space_group_name_H-M_alt    "P 1"
_space_group_IT_number       1

loop_
  _space_group_symop_operation_xyz
  'x, y, z'

loop_
  _atom_site_type_symbol
  _atom_site_label
  _atom_site_symmetry_multiplicity
  _atom_site_fract_x
  _atom_site_fract_y
  _atom_site_fract_z
  _atom_site_occupancy
  Fe  Fe1       1.0  0.6861338706289741  0.06657141640170283  0.1698202664825439  1.0000
  S   S1        1.0  0.6182944879427226  0.07801163581612047  0.15636532184345028  1.0000
  S   S2        1.0  0.734940945224527  0.11666747872997313  0.15610717765960283  1.0000
  Fe  Fe2       1.0  0.66636758410358  0.9836844908175074  0.20755041478018668  1.0000
  S   S3        1.0  0.5973366454553106  0.9879074677532769  0.1961575202953105  1.0000
  S   S4        1.0  0.6854189615582991  0.9328499924535356  0.2448712352271253  1.0000
  Fe  Fe3       1.0  0.6183601812301772  0.007025753847937466  0.14462205650027743  1.0000
  S   S5        1.0  0.5798640254630765  0.9813382979920799  0.10211932187063487  1.0000
  Fe  Fe4       1.0  0.6037892390874648  0.057906514436169225  0.209032908959222  1.0000
  S   S6        1.0  0.5533649750790015  0.08602559282066656  0.24262872220025808  1.0000
  S   S7        1.0  0.6876308457868595  0.9962620055178906  0.15430795838015274  1.0000
  S   S8        1.0  0.6716393566404911  0.053090912572510744  0.22396739766000054  1.0000
  Fe  Fe5       1.0  0.7366624237841987  0.7017826274379886  0.23071044364171073  1.0000
  S   S9        1.0  0.7859509283788477  0.7192600302315922  0.2688498610803247  1.0000
  S   S10       1.0  0.7119780658057558  0.7426583868303861  0.188846677303923  1.0000
  Fe  Fe6       1.0  0.7186169372856854  0.614443524052362  0.26143493256229855  1.0000
  S   S11       1.0  0.7656368071416348  0.6231196969961  0.30236179683710473  1.0000
  S   S12       1.0  0.6749161735074607  0.5583271818224765  0.25518071971686074  1.0000
  Fe  Fe7       1.0  0.7396256118897252  0.6907073724413921  0.30585420868231644  1.0000
  S   S13       1.0  0.7216842792051764  0.7172989759324822  0.35660474611021564  1.0000
  Fe  Fe8       1.0  0.8079164063326644  0.6503693216257295  0.2618890291457039  1.0000
  S   S14       1.0  0.8746152964636121  0.6249995992711633  0.2560427205919101  1.0000
  S   S15       1.0  0.6887008360362951  0.6792068193062062  0.2683166663978643  1.0000
  S   S16       1.0  0.7627156433087995  0.6354666469479376  0.2203922960376549  1.0000
  Fe  Fe9       1.0  0.05906143218157722  0.6746692293412875  0.3485130807921354  1.0000
  S   S17       1.0  0.03255962806729085  0.6076202880485501  0.3454088421788321  1.0000
  S   S18       1.0  0.020082321749937515  0.7282215452074069  0.326411524896682  1.0000
  Fe  Fe10      1.0  0.13386815238388583  0.6452099005315984  0.39057403766813736  1.0000
  S   S19       1.0  0.11341447159206586  0.5755359954834802  0.3899710450467968  1.0000
  S   S20       1.0  0.18760634364098577  0.6660811873275008  0.42379026137291315  1.0000
  Fe  Fe11      1.0  0.09981864225693204  0.5879583443283249  0.3355052865296092  1.0000
  S   S21       1.0  0.10955772834230704  0.5389700624497269  0.29417252360818613  1.0000
  Fe  Fe12      1.0  0.04827979387408421  0.6024011853938407  0.3994831338809944  1.0000
  S   S22       1.0  0.9986260814045549  0.5822059212003077  0.43698646555519743  1.0000
  S   S23       1.0  0.12599201129235982  0.6557878917200954  0.33517670374948394  1.0000
  S   S24       1.0  0.06939625499418178  0.6712342502688601  0.4038423380623722  1.0000
  Fe  Fe13      1.0  0.4924061573681711  0.7412964755024335  0.3863395560967967  1.0000
  S   S25       1.0  0.5053003135528493  0.7350276915539224  0.44148071224466795  1.0000
  S   S26       1.0  0.5318773231235551  0.7809975298959566  0.3504663064126255  1.0000
  Fe  Fe14      1.0  0.4213762083136116  0.6746960479596718  0.3881050777063789  1.0000
  S   S27       1.0  0.42947934495673656  0.6615674692768301  0.4427102934354097  1.0000
  S   S28       1.0  0.37017127668284044  0.6411665147982312  0.3592835555301501  1.0000
  Fe  Fe15      1.0  0.4344941484566688  0.7336771626728189  0.4471266549217603  1.0000
  S   S29       1.0  0.3946677894904995  0.7646648252127898  0.4874090530117365  1.0000
  Fe  Fe16      1.0  0.499079695225925  0.663739587304294  0.43148165715978626  1.0000
  S   S30       1.0  0.5427294384855358  0.6141773587226558  0.45345558602273556  1.0000
  S   S31       1.0  0.42176055960833614  0.7469542246311017  0.39294143186781516  1.0000
  S   S32       1.0  0.4908744437338139  0.6699249293832896  0.3759807486119377  1.0000
  Fe  Fe17      1.0  0.06790040610794801  0.5679656252168922  0.1100460019033496  1.0000
  S   S33       1.0  0.09149408065480347  0.49965125613087713  0.10685411855030133  1.0000
  S   S34       1.0  0.09076817762764344  0.615379105196021  0.14847684149695636  1.0000
  Fe  Fe18      1.0  0.0652442722484019  0.4646302574235162  0.5824998066118081  1.0000
  S   S35       1.0  0.07341053915553397  0.4267814640159306  0.6296799178248554  1.0000
  S   S36       1.0  0.05795050176717487  0.4325740570187737  0.5325031364376657  1.0000
  Fe  Fe19      1.0  0.023223187160971825  0.48256811694114876  0.0998127286865275  1.0000
  S   S37       1.0  0.989978915462039  0.43248019056368525  0.1309953885074875  1.0000
  Fe  Fe20      1.0  0.12686051942093823  0.47306130405671004  0.6390759738873043  1.0000
  S   S38       1.0  0.18854578733171162  0.44597774907305676  0.6571222279741596  1.0000
  S   S39       1.0  0.9994717530058007  0.5502987387365682  0.10754689554776178  1.0000
  S   S40       1.0  0.12153220925893221  0.5074351249851591  0.5898008727246106  1.0000
  Fe  Fe21      1.0  0.701489712034867  0.3357766887658508  0.09559617426723044  1.0000
  S   S41       1.0  0.7249567681606158  0.3697387783776646  0.04938686662174763  1.0000
  S   S42       1.0  0.654680828192435  0.2817897354520728  0.08887911680179394  1.0000
  Fe  Fe22      1.0  0.7566910509787116  0.3892869033195812  0.1417135559030159  1.0000
  S   S43       1.0  0.7846130174822264  0.427411165547172  0.0993251009828044  1.0000
  S   S44       1.0  0.7829651737584049  0.4059116014582958  0.19204308374666543  1.0000
  Fe  Fe23      1.0  0.7183338719538918  0.4301473422567968  0.08057070658606437  1.0000
  S   S45       1.0  0.6940864464878611  0.492064374518953  0.05833410756805724  1.0000
  Fe  Fe24      1.0  0.7886213654061217  0.36335072085888964  0.07292694028397428  1.0000
  S   S46       1.0  0.8478820309348526  0.3443752148370495  0.04509826105878023  1.0000
  S   S47       1.0  0.6893426645247887  0.3965762994404092  0.12510555736490325  1.0000
  S   S48       1.0  0.7660767273315291  0.3247005627575509  0.11686270769628375  1.0000
  Fe  Fe25      1.0  0.4189839647038772  0.9969195778477786  0.45070974141428327  1.0000
  S   S49       1.0  0.4812578735788511  0.9634764635194673  0.45770796991451396  1.0000
  S   S50       1.0  0.3578343321253624  0.9612886392002729  0.4584896661352288  1.0000
  Fe  Fe26      1.0  0.45996199727235904  0.08411347658151791  0.4384963152060246  1.0000
  S   S51       1.0  0.5256742326643818  0.0577841795717886  0.4446868362509879  1.0000
  S   S52       1.0  0.4561244073178617  0.15419207066770185  0.42386728206540497  1.0000
  Fe  Fe27      1.0  0.5026775060731755  0.0024534405836567075  0.41341070572070227  1.0000
  S   S53       1.0  0.546498554118601  0.9737723981045373  0.3743153778862198  1.0000
  Fe  Fe28      1.0  0.4979584982941557  0.021758529788611147  0.488331353816414  1.0000
  S   S54       1.0  0.5335596035037717  0.00978385450098429  0.5359348345793913  1.0000
  S   S55       1.0  0.43865242023124146  0.03127773717647475  0.4037193221103562  1.0000
  S   S56       1.0  0.43381985606882695  0.05259333578507519  0.4848388617238484  1.0000
  Fe  Fe29      1.0  0.38773531770480335  0.3433509142360299  0.522027358598935  1.0000
  S   S57       1.0  0.39471723174805057  0.3781362263784008  0.5710308059853003  1.0000
  S   S58       1.0  0.35507329956014  0.2789043752825696  0.5223280563854  1.0000
  Fe  Fe30      1.0  0.43446520803670663  0.4125368304735024  0.48290042846349013  1.0000
  S   S59       1.0  0.4464750789236854  0.4531663843609234  0.5285790778962703  1.0000
  S   S60       1.0  0.45218011020476667  0.4353300189675424  0.43135294689304315  1.0000
  Fe  Fe31      1.0  0.4612780973139781  0.3895675167410743  0.5530705014005343  1.0000
  S   S61       1.0  0.5149475339472022  0.3739420946053984  0.5872400080718853  1.0000
  Fe  Fe32      1.0  0.37888608338466206  0.4380099287076191  0.5419397417450754  1.0000
  S   S62       1.0  0.33479608445855  0.49318786309614904  0.5546412790180963  1.0000
  S   S63       1.0  0.4557747846269728  0.35043079713862585  0.5060382060076261  1.0000
  S   S64       1.0  0.36558427950269357  0.40191144602816375  0.4943753963965729  1.0000
  C   C1        1.0  0.42643353016832175  0.1879883596749217  0.45083549447298565  1.0000
  C   C2        1.0  0.4282802976932893  0.23289088472260489  0.44623726967502597  1.0000
  C   C3        1.0  0.4056216214547156  0.26076184229430605  0.46776965573649193  1.0000
  C   C4        1.0  0.3810595664073734  0.2438662879270727  0.49403073058520014  1.0000
  C   C5        1.0  0.3785814586034064  0.1989291856473359  0.4983669752145401  1.0000
  C   C6        1.0  0.40133617364525825  0.17099437079402116  0.476802191444097  1.0000
  H   H1        1.0  0.4471816828941846  0.24622418575252256  0.42594827745120284  1.0000
  H   H2        1.0  0.40657884173900105  0.2953316259776369  0.46359240611843994  1.0000
  H   H3        1.0  0.3593114503377987  0.18573058741065032  0.5184991486766813  1.0000
  H   H4        1.0  0.3989403558874627  0.1364267651844818  0.4800529714518496  1.0000
  C   C7        1.0  0.6419793642767403  0.5023846359964417  0.07160838996118102  1.0000
  C   C8        1.0  0.601502646810264  0.4395707012009255  0.5316071918992954  1.0000
  C   C9        1.0  0.56382300243278  0.4189873807075825  0.541815711402588  1.0000
  C   C10       1.0  0.5628152695423516  0.39451474663875546  0.5712977588014613  1.0000
  C   C11       1.0  0.5851290071316996  0.49332913646680066  0.1124546015625345  1.0000
  C   C12       1.0  0.6278174700380077  0.48864589950574233  0.10316749179363861  1.0000
  H   H5        1.0  0.6018910516451624  0.4596116130401009  0.5094058888382947  1.0000
  H   H6        1.0  0.5354067483059128  0.4227917938134036  0.5273273812061079  1.0000
  H   H7        1.0  0.5740557978233782  0.4815820720733721  0.13656889269621156  1.0000
  H   H8        1.0  0.6497491016832206  0.47475256136678823  0.12060026147534741  1.0000
  C   C13       1.0  0.9529565580561612  0.40337264021700087  0.1075240281865571  1.0000
  C   C14       1.0  0.9149343899927523  0.3904960272475969  0.12281777563234679  1.0000
  C   C15       1.0  0.8831297475140129  0.3712146413608539  0.10372093957113385  1.0000
  C   C16       1.0  0.8897366483359828  0.36348898121584305  0.06946847853902183  1.0000
  C   C17       1.0  0.9287423729814248  0.37383441077738633  0.0545108347613632  1.0000
  C   C18       1.0  0.8942474558601795  0.48901080699107047  0.6849591227967631  1.0000
  H   H9        1.0  0.909468680356341  0.3964600016610715  0.14925846230395146  1.0000
  H   H10       1.0  0.85336791071404  0.36270405266679007  0.11563393959343339  1.0000
  H   H11       1.0  0.8286938046227885  0.5028483048943235  0.6748864391322511  1.0000
  H   H12       1.0  0.8873563814269688  0.4585652437868551  0.6972827405153373  1.0000
  C   C19       1.0  0.23155498365082397  0.4619093377110945  0.6317420182661455  1.0000
  C   C20       1.0  0.19266680134469513  0.5519039309158522  0.05253297825747815  1.0000
  C   C21       1.0  0.2998041257073537  0.445090303300813  0.6058770067687511  1.0000
  C   C22       1.0  0.29682375657781157  0.48213757149259173  0.585941273799411  1.0000
  C   C23       1.0  0.2619986755733852  0.5099397985054805  0.5898917080350528  1.0000
  C   C24       1.0  0.22940411771906993  0.4998152012445492  0.61274698125492  1.0000
  H   H13       1.0  0.16254789556767338  0.5628013800673992  0.06254967130870481  1.0000
  H   H14       1.0  0.22809555726182967  0.6015476328060575  0.07776772720381508  1.0000
  H   H15       1.0  0.2599397958545686  0.539065993761328  0.5749765882592217  1.0000
  H   H16       1.0  0.20289731747637615  0.5216616682798367  0.6159845112434686  1.0000
  C   C25       1.0  0.5212164964177014  0.5630338548825076  0.4451332417480124  1.0000
  C   C26       1.0  0.5322454122157255  0.5274377192742765  0.46480658004063646  1.0000
  C   C27       1.0  0.511977490498905  0.48748450678407285  0.4600358303038352  1.0000
  C   C28       1.0  0.48231343596364623  0.4826597646967098  0.4344983281307227  1.0000
  C   C29       1.0  0.4735482093393338  0.5174630999592168  0.41336002159027135  1.0000
  C   C30       1.0  0.49196321497167894  0.5579531710871076  0.41933188595898807  1.0000
  H   H17       1.0  0.5555522846746128  0.5309529816147381  0.4842299762793794  1.0000
  H   H18       1.0  0.5193433271881925  0.4603068806011191  0.47596788699214615  1.0000
  H   H19       1.0  0.45118405398515476  0.5135697661294495  0.3932297898859003  1.0000
  H   H20       1.0  0.48328133279496693  0.5851387296062626  0.40394660474026306  1.0000
  C   C31       1.0  0.3846630734177953  0.8190763918653061  0.47868136365446945  1.0000
  C   C32       1.0  0.40981561795117283  0.8415225283226198  0.45545468574041537  1.0000
  C   C33       1.0  0.40130520560288313  0.8852476866653695  0.4487443197099544  1.0000
  C   C34       1.0  0.3674326414478031  0.9062383083438746  0.4650140810446374  1.0000
  C   C35       1.0  0.34156497428822313  0.8833564347268564  0.4874456214586543  1.0000
  C   C36       1.0  0.3506257369111344  0.8399868765344872  0.49472003724969105  1.0000
  H   H21       1.0  0.43611089093195304  0.8253706253960806  0.4429365576065703  1.0000
  H   H22       1.0  0.42064308047810095  0.9025470490299206  0.43066871307408344  1.0000
  H   H23       1.0  0.31518410301360217  0.8995318619930229  0.4998525298842001  1.0000
  H   H24       1.0  0.3310363159461588  0.8224911796744384  0.5125546908280264  1.0000
  C   C37       1.0  0.013249711791739616  0.5381669695357341  0.4618245729969466  1.0000
  C   C38       1.0  0.04533370281437721  0.5095569407273477  0.4514703445234017  1.0000
  C   C39       1.0  0.05809533637377884  0.4759527013330653  0.47274233318118647  1.0000
  C   C40       1.0  0.03932839308888414  0.47162838580748456  0.5045532460772699  1.0000
  C   C41       1.0  0.006862046555932144  0.4999056187559815  0.514601766868714  1.0000
  C   C42       1.0  0.9934766662706532  0.532788945696804  0.4931074003177593  1.0000
  H   H25       1.0  0.060119873381786704  0.5130922719335607  0.42703482378708213  1.0000
  H   H26       1.0  0.08305243698045106  0.4539465370433514  0.4648085623612565  1.0000
  H   H27       1.0  0.9917463223248163  0.4962838272566316  0.5388274191951016  1.0000
  H   H28       1.0  0.9684983273678582  0.5547578753689181  0.5010973096595487  1.0000
  C   C43       1.0  0.10002769260062827  0.5609464373863947  0.2543772608915362  1.0000
  C   C44       1.0  0.08865312097244482  0.5336480583615518  0.22777831996282397  1.0000
  C   C45       1.0  0.08325433722523812  0.5506117396735527  0.19547098031116408  1.0000
  C   C46       1.0  0.09065517854371508  0.5946588969520687  0.18946523889433903  1.0000
  C   C47       1.0  0.10126142011186223  0.6220049570978378  0.21615204987647493  1.0000
  C   C48       1.0  0.1054830575936827  0.6052743261881308  0.2485831752066372  1.0000
  H   H29       1.0  0.08422371367545915  0.49933682548261027  0.23216305527051206  1.0000
  H   H30       1.0  0.07456794681180723  0.52932199565737  0.17511634452844532  1.0000
  H   H31       1.0  0.10669782292164176  0.6561570526654014  0.21171493891841303  1.0000
  H   H32       1.0  0.11419593504388037  0.6265972013331077  0.26883916307077227  1.0000
  C   C49       1.0  0.2381718737105423  0.6570056600881146  0.4062255053745811  1.0000
  C   C50       1.0  0.2740970912305134  0.669391887851476  0.4242010780210155  1.0000
  C   C51       1.0  0.31468919878481344  0.6649375194036833  0.4097987239382086  1.0000
  C   C52       1.0  0.3195848299204352  0.6469702760567176  0.3776880795884433  1.0000
  C   C53       1.0  0.28374679999343455  0.6333937977651709  0.36012065359216533  1.0000
  C   C54       1.0  0.24304526658959374  0.6386651627912621  0.3742623106888819  1.0000
  H   H33       1.0  0.27050249618097705  0.6829054629422003  0.4491774726458377  1.0000
  H   H34       1.0  0.3420917484117702  0.6756347743049045  0.4235148937076294  1.0000
  H   H35       1.0  0.2873949671192444  0.6192818033581642  0.33533233887054026  1.0000
  H   H36       1.0  0.21546980194184884  0.6286847770753778  0.36033533619744007  1.0000
  C   C55       1.0  0.7046973607857661  0.5150151495758408  0.2389521417059317  1.0000
  C   C56       1.0  0.6844082341699523  0.48073718561168316  0.22265744012997027  1.0000
  C   C57       1.0  0.7084369937954323  0.44712542387556137  0.20814217967044574  1.0000
  C   C58       1.0  0.7526419381070119  0.4472983258801423  0.210618105460086  1.0000
  C   C59       1.0  0.7728398496860491  0.48116358804590625  0.2275277714459272  1.0000
  C   C60       1.0  0.7489227010117299  0.5153714425960504  0.241267719938423  1.0000
  H   H37       1.0  0.6502062146819116  0.48034463531540456  0.22093691766736653  1.0000
  H   H38       1.0  0.6927076851291498  0.4205340046791564  0.19574239981459107  1.0000
  H   H39       1.0  0.8069835939585894  0.4812165971769358  0.2295308043717844  1.0000
  H   H40       1.0  0.7647406447028477  0.5417613971500936  0.2538994426492034  1.0000
  C   C61       1.0  0.584908515841936  0.7642321513386042  0.3525437980575565  1.0000
  C   C62       1.0  0.6013654917672105  0.7483185923951252  0.38250967087208665  1.0000
  C   C63       1.0  0.6440288515313939  0.7358060173744208  0.3841358379905701  1.0000
  C   C64       1.0  0.6700911706058249  0.7382752296824818  0.3555783943225476  1.0000
  C   C65       1.0  0.6539613287451213  0.7552735926026315  0.3258734918197225  1.0000
  C   C66       1.0  0.6114202577078859  0.7681890146150439  0.3243577785436529  1.0000
  H   H41       1.0  0.5814161035553671  0.7460057566642677  0.40458273626066826  1.0000
  H   H42       1.0  0.6565206146317976  0.7232268996496999  0.4073200601897417  1.0000
  H   H43       1.0  0.6742800394573439  0.7584303953271783  0.3040084958696816  1.0000
  H   H44       1.0  0.5988074188136565  0.7801168815395966  0.3011146090270887  1.0000
  C   C67       1.0  0.9160289885642039  0.658549248846169  0.26975386313464383  1.0000
  C   C68       1.0  0.9080959911754594  0.6996951875263901  0.28346404272196496  1.0000
  C   C69       1.0  0.9409953873782763  0.7229169100569803  0.29879204775493784  1.0000
  C   C70       1.0  0.9817806625291728  0.7049956080621584  0.30028424921600183  1.0000
  C   C71       1.0  0.9902354872189356  0.6654880353138263  0.28426924272887594  1.0000
  C   C72       1.0  0.9574344604390335  0.6421675902520745  0.2692751132873634  1.0000
  H   H45       1.0  0.8763997820160064  0.7129249898101936  0.2834912282646595  1.0000
  H   H46       1.0  0.9344144252326018  0.7537300109839457  0.31088157507381925  1.0000
  H   H47       1.0  0.022079777609209428  0.6524199591954694  0.28400595072054063  1.0000
  H   H48       1.0  0.9642219521094214  0.6108159404116574  0.2582916829553203  1.0000
  C   C73       1.0  0.5804339331838103  0.015872523637988856  0.06734086169742537  1.0000
  C   C74       1.0  0.6157236740238305  0.04181700194495597  0.05997187240813395  1.0000
  C   C75       1.0  0.4842687047848259  0.07061046946542149  0.5689617516689796  1.0000
  C   C76       1.0  0.5194069438169008  0.04297716993486822  0.5702377335898333  1.0000
  C   C77       1.0  0.5427667960197077  0.040355359342430175  0.5997924246176553  1.0000
  C   C78       1.0  0.5446425595023152  0.01793887264051275  0.047043422804580404  1.0000
  H   H49       1.0  0.6434555260929112  0.04027912940148082  0.075652529094554  1.0000
  H   H50       1.0  0.4660381150823462  0.07295186969015233  0.5464507521336989  1.0000
  H   H51       1.0  0.5697958444116821  0.018816478914845503  0.6010225287230185  1.0000
  H   H52       1.0  0.5171681939386621  0.9983358990227286  0.05299975254966017  1.0000
  C   C79       1.0  0.54926982832706  0.05201802285242917  0.27760453587991907  1.0000
  C   C80       1.0  0.5151291646446423  0.056521271350343794  0.30000656516803476  1.0000
  C   C81       1.0  0.5138143357546  0.0321335974269783  0.32958440889134266  1.0000
  C   C82       1.0  0.5461794921645754  0.0025884357780905365  0.3365176108136163  1.0000
  C   C83       1.0  0.5793333435605963  0.996652477857073  0.3133393716509882  1.0000
  C   C84       1.0  0.5810371190306461  0.0215628912133905  0.2840757033936932  1.0000
  H   H53       1.0  0.4898734860031901  0.07908790680278632  0.29460412571927114  1.0000
  H   H54       1.0  0.4876980424686029  0.03628951004226866  0.3468711911143832  1.0000
  H   H55       1.0  0.6044196131995159  0.973783981330793  0.3183220596665715  1.0000
  H   H56       1.0  0.6075278493587845  0.017727519546616666  0.26696207241289893  1.0000
  C   C85       1.0  0.7039376470128779  0.7956977051541213  0.2038815370449345  1.0000
  C   C86       1.0  0.6919683405613238  0.8289933407042871  0.18211218031118742  1.0000
  C   C87       1.0  0.6865380185867488  0.8715246035379505  0.1943323547078587  1.0000
  C   C88       1.0  0.6930274187439275  0.8806012393218176  0.22832631256282043  1.0000
  C   C89       1.0  0.7044292266948139  0.8471923995112952  0.2500441310652425  1.0000
  C   C90       1.0  0.7096601017004402  0.804860373279352  0.23789798880468438  1.0000
  H   H57       1.0  0.6875618072565093  0.8220660596191048  0.1557457400661571  1.0000
  H   H58       1.0  0.6777002929414274  0.8972516322528417  0.1774172286642209  1.0000
  H   H59       1.0  0.7098719704728783  0.8541088032042329  0.27622191848624017  1.0000
  H   H60       1.0  0.7186336329866587  0.7794000039179789  0.2548485945198567  1.0000
  C   C91       1.0  0.7101716901143706  0.1618066535579914  0.1383912699799342  1.0000
  C   C92       1.0  0.7138790167011131  0.20247698609955853  0.15377215012652765  1.0000
  C   C93       1.0  0.6964375394507685  0.2392989519538397  0.1387291425425415  1.0000
  C   C94       1.0  0.6757125497502331  0.23561778481690382  0.10804772886601689  1.0000
  C   C95       1.0  0.6725924394935979  0.19508691632512787  0.0923703883288749  1.0000
  C   C96       1.0  0.6892339946311798  0.15802623472688088  0.1077618413371266  1.0000
  H   H61       1.0  0.7300218387753465  0.20545866493095202  0.1774769275843269  1.0000
  H   H62       1.0  0.6987212781758696  0.2705175642516468  0.15107033115805624  1.0000
  H   H63       1.0  0.6583067936430241  0.19254058102009433  0.06794902475587472  1.0000
  H   H64       1.0  0.6870583210465786  0.12672739110307  0.09547468878318988  1.0000
  Fe  Fe33      1.0  0.6221076819736872  0.19952126323010996  0.6804134512499593  1.0000
  S   S65       1.0  0.5550293646849821  0.21912168772120333  0.691678892762648  1.0000
  S   S66       1.0  0.6561910040889994  0.2387660124248406  0.6410149091447876  1.0000
  Fe  Fe34      1.0  0.6177671769350347  0.12275156605583604  0.7282900457671873  1.0000
  S   S67       1.0  0.5504301949177128  0.13651810718001456  0.7436981010199682  1.0000
  S   S68       1.0  0.6567853674652866  0.06948037215727854  0.7510769467932779  1.0000
  Fe  Fe35      1.0  0.5410034517321899  0.14806531136342116  0.6887234207703431  1.0000
  S   S69       1.0  0.4833591682943081  0.12758370839273714  0.6603078640393478  1.0000
  Fe  Fe36      1.0  0.5712607393199035  0.20585281509563746  0.7451012380044993  1.0000
  S   S70       1.0  0.5571185773328314  0.2517632491996243  0.787492840289036  1.0000
  S   S71       1.0  0.606956160483452  0.12915674308597325  0.6729385402378719  1.0000
  S   S72       1.0  0.639572390618156  0.1914668761557986  0.7343558439388224  1.0000
  Fe  Fe37      1.0  0.5919986315040903  0.847529364925929  0.8084933762945322  1.0000
  S   S73       1.0  0.5934770026499931  0.7989696080463966  0.8502286188856717  1.0000
  S   S74       1.0  0.5577435426107917  0.9112126529809685  0.8137939504686915  1.0000
  Fe  Fe38      1.0  0.636133927497042  0.7877932819818484  0.7589983644593076  1.0000
  S   S75       1.0  0.6413577476577923  0.733944855480273  0.7959611253751004  1.0000
  S   S76       1.0  0.6629044382465845  0.7773144764774098  0.7071433745092173  1.0000
  Fe  Fe39      1.0  0.5748188188872156  0.751191465598677  0.8107223619994841  1.0000
  S   S77       1.0  0.5289132836177134  0.697065723572662  0.8202729019680527  1.0000
  Fe  Fe40      1.0  0.6599214813598779  0.7857099047699811  0.832157657482711  1.0000
  S   S78       1.0  0.7114027943962787  0.766455857735976  0.8674730632949064  1.0000
  S   S79       1.0  0.5674543991634401  0.8005139943876545  0.7701815321255953  1.0000
  S   S80       1.0  0.6604899845599279  0.8390526901138567  0.7938737493924651  1.0000
  Fe  Fe41      1.0  0.9409075489028054  0.7164063683640428  0.8115757899613092  1.0000
  S   S81       1.0  0.9688189662587119  0.6535655157189172  0.792787243377352  1.0000
  S   S82       1.0  0.8836422809682501  0.7436115599772842  0.7857597766299301  1.0000
  Fe  Fe42      1.0  0.00895752175180653  0.7300997613535442  0.8631763567557157  1.0000
  S   S83       1.0  0.0418352927690846  0.6683268661027867  0.8497542753166973  1.0000
  S   S84       1.0  0.03437985526109255  0.7775901524770903  0.9007508514692938  1.0000
  Fe  Fe43      1.0  0.03132369452981609  0.6874680973908991  0.7965593714169841  1.0000
  S   S85       1.0  0.09061360173317645  0.6760138711889752  0.7662291727349949  1.0000
  Fe  Fe44      1.0  0.9772169285054997  0.6394279395456722  0.8473141128617151  1.0000
  S   S86       1.0  0.9721339135304778  0.571835237620243  0.8671767294651267  1.0000
  S   S87       1.0  0.0031774393859238526  0.7519581311254817  0.809919003730636  1.0000
  S   S88       1.0  0.9445294084823698  0.6995976213084516  0.8662771074007718  1.0000
  Fe  Fe45      1.0  0.324659837801124  0.792999202454742  0.8790997724628516  1.0000
  S   S89       1.0  0.35839908173271473  0.8510581950350521  0.899883696670109  1.0000
  S   S90       1.0  0.33757556410759826  0.7547759854979128  0.8321413045037489  1.0000
  Fe  Fe46      1.0  0.2635625544646159  0.7867788058188159  0.9378177020867643  1.0000
  S   S91       1.0  0.2905728271571584  0.8444161360521691  0.964346841244305  1.0000
  S   S92       1.0  0.21597947758927055  0.7393785540163272  0.9577683857419985  1.0000
  Fe  Fe47      1.0  0.29288738558934496  0.8745739998793387  0.913180457710163  1.0000
  S   S93       1.0  0.2786244696037894  0.9445143386371924  0.9033093309543687  1.0000
  Fe  Fe48      1.0  0.3535378853861851  0.8168219079885303  0.9491584064163434  1.0000
  S   S94       1.0  0.4047064516730476  0.8110703839213612  0.9872608434318263  1.0000
  S   S95       1.0  0.25933596938739295  0.8194168126417982  0.8879442292654968  1.0000
  S   S96       1.0  0.32644568543607794  0.7563660033003111  0.9271556838962471  1.0000
  Fe  Fe49      1.0  0.07625755566153525  0.5509451563537148  0.6176247598099716  1.0000
  S   S97       1.0  0.08660205304889579  0.5206288552849138  0.6678022695038542  1.0000
  S   S98       1.0  0.07082683000481294  0.622919797534168  0.6143209081812713  1.0000
  Fe  Fe50      1.0  0.007532560265865351  0.5566415089197372  0.05201240128093665  1.0000
  S   S99       1.0  0.025643621871974664  0.4870498931823234  0.043668243631743486  1.0000
  S   S100      1.0  0.9568626268583901  0.5924116170008287  0.02427712526301562  1.0000
  Fe  Fe51      1.0  0.03235690555634663  0.4781766574497316  0.653502144579096  1.0000
  S   S101      1.0  0.9777439933425955  0.46583085629356924  0.6887602115735032  1.0000
  Fe  Fe52      1.0  0.09221853143670233  0.5109305935431446  0.05135296940469458  1.0000
  S   S102      1.0  0.14794078664169702  0.48840202642889097  0.02028894891084909  1.0000
  S   S103      1.0  0.019165730283491778  0.5117362120210267  0.605112666472379  1.0000
  S   S104      1.0  0.07412456493518249  0.5812019366049653  0.0549419044222923  1.0000
  Fe  Fe53      1.0  0.72898054761327  0.46314085148124773  0.6649218646666444  1.0000
  S   S105      1.0  0.7679300991238607  0.47217098877981173  0.6180352028710558  1.0000
  S   S106      1.0  0.738443337755661  0.40790447548892234  0.7001803544782524  1.0000
  Fe  Fe54      1.0  0.6769054571542237  0.5448012696248047  0.6538167798309166  1.0000
  S   S107      1.0  0.7117478515274076  0.5613365797533616  0.6064513891779769  1.0000
  S   S108      1.0  0.6206185542218385  0.5824466548731195  0.6724140826448533  1.0000
  Fe  Fe55      1.0  0.7059882441654192  0.4904478123011826  0.5946990000543928  1.0000
  S   S109      1.0  0.6812530322151636  0.4705520582548268  0.5442855345206927  1.0000
  Fe  Fe56      1.0  0.7696093151143484  0.5417006333524871  0.6348502350947808  1.0000
  S   S110      1.0  0.8293551682752005  0.5808055612589985  0.634811506009273  1.0000
  S   S111      1.0  0.6668296609822965  0.47528132183707733  0.6404490545910106  1.0000
  S   S112      1.0  0.7350919552300099  0.5314050980333853  0.6835404128684645  1.0000
  Fe  Fe57      1.0  0.41812142659459595  0.10307363151741455  0.9897733158596267  1.0000
  S   S113      1.0  0.45885968695113105  0.0929017628375648  0.9439730162917056  1.0000
  S   S114      1.0  0.37905906379430304  0.049753133755864765  0.011945781890766227  1.0000
  Fe  Fe58      1.0  0.44950477752890633  0.19537834838667373  0.0009239975269197398  1.0000
  S   S115      1.0  0.49222937928427574  0.19340261048271262  0.9557195652097561  1.0000
  S   S116      1.0  0.4486423247721171  0.25195203121446547  0.03659303594266694  1.0000
  Fe  Fe59      1.0  0.43746874995351337  0.16018435943763135  0.9310327373746693  1.0000
  S   S117      1.0  0.41334657487064197  0.17336671811802806  0.8794341632909236  1.0000
  Fe  Fe60      1.0  0.5090120373167536  0.1269741298290663  0.9733048861042845  1.0000
  S   S118      1.0  0.5769504423038675  0.10755353079673147  0.9780224760427042  1.0000
  S   S119      1.0  0.3928526747597266  0.16794201130989259  0.9749173273183047  1.0000
  S   S120      1.0  0.47012252327009313  0.13110789847962567  0.02039156789749086  1.0000
  Fe  Fe61      1.0  0.416608300489851  0.4876133441293299  0.9971849018916786  1.0000
  S   S121      1.0  0.39907152935626894  0.4934391767762485  0.05179128015744405  1.0000
  S   S122      1.0  0.4107723537177735  0.42893343014819507  0.9639406170072073  1.0000
  Fe  Fe62      1.0  0.45068912466348227  0.5792082841146132  0.9932205270900295  1.0000
  S   S123      1.0  0.4360238278372488  0.5936125364482737  0.04731395628109647  1.0000
  S   S124      1.0  0.47950826014119835  0.6260795742195022  0.9563303898206965  1.0000
  Fe  Fe63      1.0  0.4616675189119573  0.5271277345691583  0.0565286984189497  1.0000
  S   S125      1.0  0.5026772675279879  0.5134132737554656  0.10081360092225111  1.0000
  Fe  Fe64      1.0  0.37475495101271716  0.5591151163484779  0.03801769557632384  1.0000
  S   S126      1.0  0.3151809270835423  0.5871519641879965  0.06074496380978989  1.0000
  S   S127      1.0  0.4816187706648353  0.5152404604830014  0.0030855481307097143  1.0000
  S   S128      1.0  0.38674159970218397  0.5508517474285632  0.9827734370777079  1.0000
  C   C97       1.0  0.438541253535506  0.30107268903136314  0.016304972156820252  1.0000
  C   C98       1.0  0.44258505131646625  0.3043315687799066  0.9814274130202377  1.0000
  C   C99       1.0  0.43487442086632827  0.34402975467585317  0.9655995763877874  1.0000
  C   C100      1.0  0.42242276377422616  0.3803160336827392  0.9844930913944095  1.0000
  C   C101      1.0  0.4187879633117651  0.3771252455231368  0.019381192652379475  1.0000
  C   C102      1.0  0.42698487834527354  0.33758065676003274  0.035288063886948606  1.0000
  H   H65       1.0  0.4520535423728721  0.2764738059323524  0.9666642894164879  1.0000
  H   H66       1.0  0.43897627180446247  0.3468698155658009  0.9387421294810782  1.0000
  H   H67       1.0  0.4087542727076693  0.40479311267559637  0.03410077185610505  1.0000
  H   H68       1.0  0.4235919400097633  0.3351164016380604  0.06227054436480062  1.0000
  C   C103      1.0  0.6378445350144306  0.43614590728312724  0.5512932085154946  1.0000
  C   C104      1.0  0.6139403906098071  0.5234062723026291  0.0501572736684619  1.0000
  C   C105      1.0  0.5712339437457075  0.528444070901762  0.059555327689051474  1.0000
  C   C106      1.0  0.5566255315826288  0.5123459539260978  0.0903311724072331  1.0000
  C   C107      1.0  0.6000377495278486  0.38817136039146943  0.5892144543546259  1.0000
  C   C108      1.0  0.6374538978438249  0.40901947761760393  0.5792523969555398  1.0000
  H   H69       1.0  0.6249584789257445  0.5347630949219357  0.02592741966501544  1.0000
  H   H70       1.0  0.5496446431160712  0.5445489660024858  0.04290034613476079  1.0000
  H   H71       1.0  0.5998396518451321  0.36774242127916174  0.6110938334320979  1.0000
  H   H72       1.0  0.6659743913395182  0.4046377950867613  0.5935288159188217  1.0000
  C   C109      1.0  0.9363418961673602  0.5018816290894085  0.6798112164342343  1.0000
  C   C110      1.0  0.9449775112065087  0.5416475852022885  0.6644207553559456  1.0000
  C   C111      1.0  0.911748811072073  0.566960531455911  0.6520451593012482  1.0000
  C   C112      1.0  0.8698830107262772  0.5524499387799664  0.654915965086837  1.0000
  C   C113      1.0  0.8610238914878499  0.5140114253711053  0.6721456022696263  1.0000
  C   C114      1.0  0.9601805726826906  0.3944077869595699  0.07345899302604386  1.0000
  H   H73       1.0  0.9773249487355616  0.5525600704704915  0.6612400777901151  1.0000
  H   H74       1.0  0.9187028057345505  0.5969383318359365  0.6390794304696054  1.0000
  H   H75       1.0  0.9341878029125565  0.3671987261170594  0.028128285043658385  1.0000
  H   H76       1.0  0.990090343857698  0.4030122253100683  0.06180484538376518  1.0000
  C   C115      1.0  0.1945138672738993  0.5160731803400158  0.030946974558619944  1.0000
  C   C116      1.0  0.26724214392354084  0.43505401536568256  0.6288488474118288  1.0000
  C   C117      1.0  0.22986616573060778  0.5737333020477989  0.06126594272080421  1.0000
  C   C118      1.0  0.2691633387518703  0.559591698396306  0.048738139925729396  1.0000
  C   C119      1.0  0.27121090295680067  0.5238014603132873  0.027096023065545705  1.0000
  C   C120      1.0  0.23382540228995735  0.5021660761977988  0.018089161585753688  1.0000
  H   H77       1.0  0.26924688645820377  0.4059411248702113  0.6438048468736811  1.0000
  H   H78       1.0  0.3269078865820583  0.42391806135361143  0.6034331122824633  1.0000
  H   H79       1.0  0.3015041223994801  0.5126079104515692  0.017410402008595893  1.0000
  H   H80       1.0  0.23536695287247775  0.47437701426976464  0.0014415492916750594  1.0000
  C   C121      1.0  0.43023485020376656  0.7619041198574206  0.9789135574932841  1.0000
  C   C122      1.0  0.4350608561614737  0.7477165871536152  0.9457638051551165  1.0000
  C   C123      1.0  0.4520229919020564  0.7066662305219784  0.9389535680276331  1.0000
  C   C124      1.0  0.4626847755273382  0.6790593279343793  0.9652852452740318  1.0000
  C   C125      1.0  0.4586138727116264  0.6935775431573613  0.9984670823167041  1.0000
  C   C126      1.0  0.4430016994278204  0.7353435784292556  0.005278748327644411  1.0000
  H   H81       1.0  0.4256770769343299  0.7684414066196127  0.9253165184106397  1.0000
  H   H82       1.0  0.4559189903032605  0.6961560715533399  0.9132588314468255  1.0000
  H   H83       1.0  0.46801998471305617  0.6728967587384074  0.018865372359519572  1.0000
  H   H84       1.0  0.43980863478800203  0.7465814800856174  0.030938636665001518  1.0000
  C   C127      1.0  0.30199509966515314  0.9770851416626724  0.9341387941762497  1.0000
  C   C128      1.0  0.32227547203706347  0.015817892986990767  0.9252310046748521  1.0000
  C   C129      1.0  0.3445430000419921  0.039641561115878465  0.9494138540527842  1.0000
  C   C130      1.0  0.34609272503283306  0.024839669631893768  0.982535371403723  1.0000
  C   C131      1.0  0.32394144510802636  0.9874222609284231  0.9917185226630459  1.0000
  C   C132      1.0  0.3022691677513722  0.9633992277019531  0.9675098413929041  1.0000
  H   H85       1.0  0.32190534422645983  0.026617622019331044  0.8994391729729011  1.0000
  H   H86       1.0  0.3613351107739289  0.06876151574118472  0.9422201226110465  1.0000
  H   H87       1.0  0.32449883145991104  0.97632475173553  0.01742630034674897  1.0000
  H   H88       1.0  0.2853424509096595  0.9345356674836809  0.9747835209083979  1.0000
  C   C133      1.0  0.9661276308912926  0.5754050878647169  0.9108415950484693  1.0000
  C   C134      1.0  0.9377804143042374  0.6054155490405724  0.9250201461487456  1.0000
  C   C135      1.0  0.9342302521548372  0.6095921061746417  0.9599583095938892  1.0000
  C   C136      1.0  0.9598656587395871  0.5845945248989233  0.9807707049551735  1.0000
  C   C137      1.0  0.9881888547883624  0.5545123342521608  0.9666443470977149  1.0000
  C   C138      1.0  0.9908259246242997  0.5494373581094769  0.9316802491965245  1.0000
  H   H89       1.0  0.9182388484467551  0.6251279702643742  0.9090002294904754  1.0000
  H   H90       1.0  0.91206767455187  0.6327173115336858  0.9707517166306727  1.0000
  H   H91       1.0  0.00847048424201935  0.5354630618890551  0.982503818430698  1.0000
  H   H92       1.0  0.013045180734099437  0.5264434472449117  0.9207611451976745  1.0000
  C   C139      1.0  0.08470892278623454  0.6642296684434165  0.7235158536234441  1.0000
  C   C140      1.0  0.11855028323023031  0.6446612695761514  0.7061835796883638  1.0000
  C   C141      1.0  0.11432822731967307  0.6326813990945684  0.6724793928736467  1.0000
  C   C142      1.0  0.0766545934870051  0.6413370887398887  0.6556804962319637  1.0000
  C   C143      1.0  0.0428786559840133  0.6615228863434701  0.6728200910629013  1.0000
  C   C144      1.0  0.04676087223483738  0.672655637043074  0.7069069769225076  1.0000
  H   H93       1.0  0.1478304226877697  0.6378528325967027  0.7190205237761538  1.0000
  H   H94       1.0  0.14026667049904631  0.6165632015405063  0.6594674496476373  1.0000
  H   H95       1.0  0.013447838292497627  0.667619070802983  0.6599898084725475  1.0000
  H   H96       1.0  0.0204920229389578  0.6877146499101877  0.7202608897748294  1.0000
  C   C145      1.0  0.0854441833155216  0.7666762231794599  0.9152919493146705  1.0000
  C   C146      1.0  0.10063783638816745  0.7241593687404417  0.9169461297254244  1.0000
  C   C147      1.0  0.14051185224006116  0.7158002641559785  0.9306258169203077  1.0000
  C   C148      1.0  0.1659492326141844  0.7501259051591349  0.9413971982790128  1.0000
  C   C149      1.0  0.15121896761726256  0.7927530537680423  0.9391284269820177  1.0000
  C   C150      1.0  0.1105898282544188  0.8009225164035898  0.9267308101854237  1.0000
  H   H97       1.0  0.08124300106809212  0.6975086399423636  0.908688808860505  1.0000
  H   H98       1.0  0.1518830054041738  0.6827676278689522  0.9324514538615376  1.0000
  H   H99       1.0  0.17078878248576698  0.8193790810209172  0.9475593407380075  1.0000
  H   H100      1.0  0.09881701621608412  0.8338819378891044  0.9256830739190579  1.0000
  C   C151      1.0  0.6496806711605878  0.7241700186691392  0.6954493019282505  1.0000
  C   C152      1.0  0.6163252404453791  0.7029311346818091  0.7118791330861168  1.0000
  C   C153      1.0  0.60715599226582  0.6596477038897545  0.7041675357274757  1.0000
  C   C154      1.0  0.6319351947385955  0.6370696132781234  0.6805863429400774  1.0000
  C   C155      1.0  0.6651511095410114  0.6583127598045057  0.6638232630868112  1.0000
  C   C156      1.0  0.6734951561914416  0.7021632143259113  0.6708284511097599  1.0000
  H   H101      1.0  0.597315883710283  0.7198225492939474  0.7305290486152348  1.0000
  H   H102      1.0  0.5813169663537807  0.6434190660311893  0.717061876900498  1.0000
  H   H103      1.0  0.6840432652801779  0.641166918178011  0.645252698235415  1.0000
  H   H104      1.0  0.6987766175967999  0.7188077660005154  0.6576580916524539  1.0000
  C   C157      1.0  0.39142842276364853  0.7417077489648292  0.8272969584516322  1.0000
  C   C158      1.0  0.42213517553832886  0.7618296605840236  0.8470521885457595  1.0000
  C   C159      1.0  0.46488635393830785  0.7495244795159773  0.8439210603264209  1.0000
  C   C160      1.0  0.47667456796131563  0.7162627746193108  0.8216703468747948  1.0000
  C   C161      1.0  0.44595706498665094  0.6961202504976662  0.8019759494940293  1.0000
  C   C162      1.0  0.4034782141127493  0.7092565701111501  0.8044385762518547  1.0000
  H   H105      1.0  0.41303150362356894  0.7870944487265737  0.8645453173288246  1.0000
  H   H106      1.0  0.4885328418447575  0.7651755502518727  0.8591996625837189  1.0000
  H   H107      1.0  0.45508356511603043  0.6704791220666954  0.7847054446488042  1.0000
  H   H108      1.0  0.3798523364566737  0.6937799183550813  0.7890185437897775  1.0000
  C   C163      1.0  0.7599028188781646  0.7611483698842757  0.8454975168790999  1.0000
  C   C164      1.0  0.7639212580676711  0.7764781670436793  0.8126528879735662  1.0000
  C   C165      1.0  0.8025204608078016  0.7722892529056857  0.795136413112506  1.0000
  C   C166      1.0  0.8370618788349937  0.751534584292199  0.8098954983022909  1.0000
  C   C167      1.0  0.8330033717883072  0.7358084620259113  0.842666402630248  1.0000
  C   C168      1.0  0.794608567857277  0.7410013707187196  0.8605702490881973  1.0000
  H   H109      1.0  0.7374533158367038  0.7919839897593457  0.8007707580186881  1.0000
  H   H110      1.0  0.8055646481327472  0.7850790649251932  0.7700043371050431  1.0000
  H   H111      1.0  0.8591665043116506  0.7193829507577266  0.8541879874706503  1.0000
  H   H112      1.0  0.7916753682264505  0.7289738946204845  0.8859385802517039  1.0000
  C   C169      1.0  0.4966660996136947  0.09384267705130922  0.6262687017836892  1.0000
  C   C170      1.0  0.47252154661860224  0.09548292048558005  0.5971003087901762  1.0000
  C   C171      1.0  0.6154030188643611  0.06911909795690274  0.03182095622563841  1.0000
  C   C172      1.0  0.5792939172452989  0.07144877747689282  0.01179791232208105  1.0000
  C   C173      1.0  0.5438764709783587  0.046151015174131116  0.01963554139386825  1.0000
  C   C174      1.0  0.5315737712669893  0.06595640696127925  0.6277070826727356  1.0000
  H   H113      1.0  0.4450923629278533  0.11650151076218074  0.5961201350163987  1.0000
  H   H114      1.0  0.6427991845552968  0.0888605344415252  0.025914404706005367  1.0000
  H   H115      1.0  0.5159126703225214  0.04825794936186488  0.00437915544813694  1.0000
  H   H116      1.0  0.5495640971526464  0.06361434670850774  0.6505072212459536  1.0000
  C   C175      1.0  0.5151978079278727  0.23263002887898543  0.8123067353516948  1.0000
  C   C176      1.0  0.48439923840492427  0.2055039364504255  0.7985777622678638  1.0000
  C   C177      1.0  0.4521712449504897  0.18852455824050104  0.8191516028835543  1.0000
  C   C178      1.0  0.45148898191457176  0.19774971150428935  0.8535514218322625  1.0000
  C   C179      1.0  0.4816716952949104  0.2257505180793138  0.8670774785108085  1.0000
  C   C180      1.0  0.5133510411209332  0.24345101592905616  0.846401706938688  1.0000
  H   H117      1.0  0.48525559140614877  0.19774144805585522  0.7720836306696517  1.0000
  H   H118      1.0  0.4285336906479956  0.16723107634307974  0.8085564268076691  1.0000
  H   H119      1.0  0.4804908742507101  0.23416057633413567  0.893353389796728  1.0000
  H   H120      1.0  0.5369665921980171  0.26479647773877435  0.8569475340162677  1.0000
  C   C181      1.0  0.585404077357854  0.9558876134689198  0.7977729898827114  1.0000
  C   C182      1.0  0.5629427747752019  0.9892128849485823  0.7821981733905595  1.0000
  C   C183      1.0  0.5846346926980626  0.024314957877582533  0.7678521796042131  1.0000
  C   C184      1.0  0.6287580927469109  0.02686540615546007  0.769939338581466  1.0000
  C   C185      1.0  0.6511676093990081  0.9938905604797098  0.7860636464766193  1.0000
  C   C186      1.0  0.6295502301360612  0.9582421724845769  0.7997413149404308  1.0000
  H   H121      1.0  0.5287762338593383  0.9872417357027187  0.7803831262860149  1.0000
  H   H122      1.0  0.5671909477267777  0.04876344151669665  0.7545752154038553  1.0000
  H   H123      1.0  0.6853595957455234  0.9957006579547918  0.7876909294769397  1.0000
  H   H124      1.0  0.6469971961406665  0.9329004856339745  0.812210858332431  1.0000
  C   C187      1.0  0.6847752608899663  0.2831681978957148  0.6566228290310535  1.0000
  C   C188      1.0  0.695531702803476  0.28551751863750285  0.6905188583243899  1.0000
  C   C189      1.0  0.7137562004554424  0.32333314654844625  0.7035541678130423  1.0000
  C   C190      1.0  0.7214622591580787  0.3588368524713749  0.682675083436505  1.0000
  C   C191      1.0  0.712831753186169  0.3557866466099124  0.6484134379698748  1.0000
  C   C192      1.0  0.6945282634243682  0.31791256258210504  0.6353676724593839  1.0000
  H   H125      1.0  0.6891881432033049  0.25851656105863213  0.7068727868183062  1.0000
  H   H126      1.0  0.7208850458044403  0.32545076647898985  0.7300037042777721  1.0000
  H   H127      1.0  0.7193442534905405  0.3829667401008277  0.6321592206790646  1.0000
  H   H128      1.0  0.68654231302249  0.3161493705634983  0.6090605118913203  1.0000
  N   N1        1.0  0.4481989019861862  0.9351817003932409  0.9656936562923604  1.0000
  C   C193      1.0  0.46393510050539943  0.8950219722279907  0.9494074929721269  1.0000
  C   C194      1.0  0.43040394894281814  0.9642530771239323  0.9400450610056347  1.0000
  C   C195      1.0  0.48345548280560585  0.9573077330892735  0.9828015129459303  1.0000
  C   C196      1.0  0.4149069291865545  0.924352711831674  0.9906844597561419  1.0000
  H   H129      1.0  0.4379641741376898  0.8776670466153697  0.9363371854647904  1.0000
  H   H130      1.0  0.47710944831487173  0.8720975122376455  0.9681194984436361  1.0000
  H   H131      1.0  0.4892611040487008  0.9019314079954375  0.930489472470862  1.0000
  H   H132      1.0  0.4206716432112959  0.9958350580265876  0.9512871012888391  1.0000
  H   H133      1.0  0.45389260130289016  0.9712967510358909  0.9197550876143937  1.0000
  H   H134      1.0  0.4018232104415412  0.9498877538553187  0.9281463265551166  1.0000
  H   H135      1.0  0.4980689430390195  0.9361370428397978  0.0020578656696579323  1.0000
  H   H136      1.0  0.4720357356801901  0.9871610601297782  0.9959431684110399  1.0000
  H   H137      1.0  0.5088791639103172  0.9670758545633781  0.9647668595026477  1.0000
  H   H138      1.0  0.40364699573455576  0.9538029563536489  0.004383469595472755  1.0000
  H   H139      1.0  0.42675711244415254  0.9011661925768635  0.009732024036291698  1.0000
  H   H140      1.0  0.38690115506156225  0.9091483399985213  0.9786243507587375  1.0000
  N   N2        1.0  0.30547526704596634  0.7138891939379407  0.03244424870683882  1.0000
  C   C197      1.0  0.3204273949111805  0.6901454580576912  0.00222444206502459  1.0000
  C   C198      1.0  0.3010302133244682  0.7604130114449462  0.024647155742530513  1.0000
  C   C199      1.0  0.3365552944445409  0.7085786377911237  0.05957563504319219  1.0000
  C   C200      1.0  0.2638333431903486  0.6965923488901602  0.043225683159890727  1.0000
  H   H141      1.0  0.29727140493849  0.692990166164622  0.9814641438312699  1.0000
  H   H142      1.0  0.3245613456719901  0.6549514857288274  0.007506815002549239  1.0000
  H   H143      1.0  0.35147468797502995  0.7028634084927714  0.993023351665892  1.0000
  H   H144      1.0  0.33160660978622114  0.774507184527063  0.015921671011877248  1.0000
  H   H145      1.0  0.27751162092233217  0.7656111592628108  0.004544087642615713  1.0000
  H   H146      1.0  0.2901633373867182  0.7794250231075321  0.04692841898190081  1.0000
  H   H147      1.0  0.3261345767807487  0.7256740712281229  0.08288610708542676  1.0000
  H   H148      1.0  0.36811360204407473  0.7217170158044017  0.052088422419258595  1.0000
  H   H149      1.0  0.34117756616024025  0.6738218860488272  0.06591174513928943  1.0000
  H   H150      1.0  0.251564361719446  0.7134867720554846  0.06606120364268508  1.0000
  H   H151      1.0  0.26582918977434056  0.6614614881358895  0.04892095307532118  1.0000
  H   H152      1.0  0.2397671449653911  0.7003592577219703  0.023187408055738157  1.0000
  N   N3        1.0  0.8991956854402301  0.62655226670697  0.377337089141858  1.0000
  C   C201      1.0  0.8848328749880647  0.6100493645644305  0.41032255609262197  1.0000
  C   C202      1.0  0.918532373407758  0.5908131712541915  0.3575626747881534  1.0000
  C   C203      1.0  0.9309884596449276  0.6611094674276201  0.38228443832780534  1.0000
  C   C204      1.0  0.8624454956859009  0.6441677487124906  0.3591713656278633  1.0000
  H   H153      1.0  0.8703897249365641  0.636301125861914  0.42595720501447737  1.0000
  H   H154      1.0  0.9117164622945123  0.5963196519701273  0.42467570114415665  1.0000
  H   H155      1.0  0.8608901845066341  0.5838668554398959  0.40752006690117853  1.0000
  H   H156      1.0  0.9305106096656973  0.6024797884872635  0.33277519068666844  1.0000
  H   H157      1.0  0.945911594371815  0.5762618619787169  0.3709159392578723  1.0000
  H   H158      1.0  0.8953257036334273  0.5644951269527502  0.35265224050773125  1.0000
  H   H159      1.0  0.9589874882700417  0.6489821497074428  0.3961714064031449  1.0000
  H   H160      1.0  0.9175842966585073  0.6890708753027401  0.3965983208710583  1.0000
  H   H161      1.0  0.9430874672347864  0.6737123759057809  0.3579132514397314  1.0000
  H   H162      1.0  0.8718895301210589  0.6558300228048255  0.3338633949496373  1.0000
  H   H163      1.0  0.847639994277409  0.6720000886191211  0.3728362836939798  1.0000
  H   H164      1.0  0.8375971663309473  0.6191059865232305  0.3554640269142209  1.0000
  N   N4        1.0  0.16056370245209892  0.7710160360540717  0.8205156699338687  1.0000
  C   C205      1.0  0.15266101311044664  0.8067723335838767  0.8446288993227747  1.0000
  C   C206      1.0  0.20647306415084238  0.767911888295435  0.8128338166630693  1.0000
  C   C207      1.0  0.1371352562358642  0.7794045953586677  0.7893004153252919  1.0000
  C   C208      1.0  0.1457926489956476  0.7298475669688843  0.8353806008525759  1.0000
  H   H165      1.0  0.11821421465830129  0.8100737514942453  0.8507923812247244  1.0000
  H   H166      1.0  0.16384472880270973  0.8384269024980869  0.8345888767796603  1.0000
  H   H167      1.0  0.16935550678834044  0.8011060810454095  0.8686313911188215  1.0000
  H   H168      1.0  0.21334219856787956  0.7418859720289245  0.794078794397108  1.0000
  H   H169      1.0  0.2191206079286809  0.7988607413774977  0.8025252731661461  1.0000
  H   H170      1.0  0.22502642222062563  0.7602514770591704  0.8356470327311507  1.0000
  H   H171      1.0  0.14286165815025723  0.7533382884350796  0.7703252727750765  1.0000
  H   H172      1.0  0.14672173614845957  0.8107186299184632  0.7777575208770201  1.0000
  H   H173      1.0  0.10225913525627875  0.7805913552027749  0.7940721138244072  1.0000
  H   H174      1.0  0.16284406801660498  0.7223944157187  0.8589507923636883  1.0000
  H   H175      1.0  0.15072196609399474  0.7021111421850408  0.817774917745735  1.0000
  H   H176      1.0  0.11133211184724637  0.7313093003015346  0.8416106858070289  1.0000
  N   N5        1.0  0.5493101196205032  0.167038681795607  0.35143628346387457  1.0000
  C   C209      1.0  0.555384568228084  0.17064286869526288  0.388061232948596  1.0000
  C   C210      1.0  0.5049417323642528  0.15471617690977307  0.34468700984631195  1.0000
  C   C211      1.0  0.578275114848193  0.13361826089702278  0.3374759531588039  1.0000
  C   C212      1.0  0.5585425282376939  0.20920894260936154  0.3354863731757081  1.0000
  H   H177      1.0  0.5885733380892513  0.17940588628831208  0.39424999749524653  1.0000
  H   H178      1.0  0.5477837075184863  0.13953523658526248  0.4008882408511173  1.0000
  H   H179      1.0  0.5340739797688745  0.1957389635198409  0.3993839919256353  1.0000
  H   H180      1.0  0.49915008656981125  0.15166208098899228  0.3172915376386262  1.0000
  H   H181      1.0  0.4966977393007284  0.123152706878305  0.35657698182166875  1.0000
  H   H182      1.0  0.4821708974010333  0.1791206743535365  0.3550640688404392  1.0000
  H   H183      1.0  0.5746706364811661  0.13023654635362553  0.3098041602673329  1.0000
  H   H184      1.0  0.5718993056549954  0.10125396491201993  0.3487449803982854  1.0000
  H   H185      1.0  0.6120377416297207  0.14167832103127512  0.3422081733927352  1.0000
  H   H186      1.0  0.5542989121366312  0.2074456236192407  0.30779437334018867  1.0000
  H   H187      1.0  0.5917371331225668  0.21962849187772152  0.34011900626911495  1.0000
  H   H188      1.0  0.537054298639697  0.2351008580260825  0.34538119328595573  1.0000
  N   N6        1.0  0.19590579884132828  0.3770309862129921  0.5474131486157136  1.0000
  C   C213      1.0  0.23502475486008892  0.40260841521723956  0.5422513176037941  1.0000
  C   C214      1.0  0.17950328454541253  0.3841669452409724  0.5819070831028816  1.0000
  C   C215      1.0  0.2055475457227015  0.3304960900286933  0.5424092011188217  1.0000
  C   C216      1.0  0.16355448633751438  0.3909130471413114  0.523155164043425  1.0000
  H   H189      1.0  0.24785740894925265  0.3988431678492947  0.5162651920053491  1.0000
  H   H190      1.0  0.26041792776762773  0.3920917803573387  0.5595893317388231  1.0000
  H   H191      1.0  0.22935064300378752  0.4377874625084482  0.5468989820157618  1.0000
  H   H192      1.0  0.14995546807617613  0.3654417495359853  0.5868043365017978  1.0000
  H   H193      1.0  0.20308243117147645  0.37450276616240924  0.601072439883555  1.0000
  H   H194      1.0  0.17186370888678862  0.4189517181846996  0.5864988036761778  1.0000
  H   H195      1.0  0.22982375492740412  0.319049400008542  0.5604483572190507  1.0000
  H   H196      1.0  0.21835012753364622  0.3239776043666191  0.516698022639616  1.0000
  H   H197      1.0  0.1767502898999751  0.3101412470459871  0.5460211783423803  1.0000
  H   H198      1.0  0.17460832264947168  0.38605478996050313  0.4967880934198012  1.0000
  H   H199      1.0  0.15540647761190018  0.425866452677797  0.5264267589502447  1.0000
  H   H200      1.0  0.1334639428559487  0.37245020079151275  0.5264870469567016  1.0000
  N   N7        1.0  0.8323579010991404  0.20706245381558316  0.10091345662164317  1.0000
  C   C217      1.0  0.8222641857636318  0.20906232789380885  0.13721733825112434  1.0000
  C   C218      1.0  0.8563930120041922  0.16690288990516186  0.09346627384178396  1.0000
  C   C219      1.0  0.8581418444211887  0.24516757828805696  0.09133564761616599  1.0000
  C   C220      1.0  0.792583859128337  0.20689067946000028  0.08166487822969581  1.0000
  H   H201      1.0  0.8030008706455113  0.23828379049931342  0.14367436320083032  1.0000
  H   H202      1.0  0.8514920270934951  0.21021923646362964  0.1525292415735334  1.0000
  H   H203      1.0  0.8037234901229563  0.1801827348305295  0.14543181068726937  1.0000
  H   H204      1.0  0.8377212371545877  0.1375714803557101  0.10056330574341067  1.0000
  H   H205      1.0  0.8643868097803821  0.16419673079783087  0.06624889973594672  1.0000
  H   H206      1.0  0.886598129307617  0.16582839962814014  0.10759027961230408  1.0000
  H   H207      1.0  0.8654871242364082  0.24549890669436544  0.06392706873063392  1.0000
  H   H208      1.0  0.888750808576301  0.24607593590653085  0.10490092123318244  1.0000
  H   H209      1.0  0.841278260334121  0.2760005843464262  0.09719765245981521  1.0000
  H   H210      1.0  0.7989125250969524  0.20690965629600622  0.054136091554219945  1.0000
  H   H211      1.0  0.7726753638533086  0.23581343581580413  0.08757118650018071  1.0000
  H   H212      1.0  0.7731554827609499  0.17772989395842198  0.08750724755020611  1.0000
  N   N8        1.0  0.48766718385646024  0.230851779509525  0.5698366276542086  1.0000
  C   C221      1.0  0.5263406742615712  0.25413244272199725  0.558883277375027  1.0000
  C   C222      1.0  0.493964764589496  0.21325087886657446  0.6038354590526903  1.0000
  C   C223      1.0  0.47893548749344145  0.19495974662851184  0.5461728652914483  1.0000
  C   C224      1.0  0.45133525037526445  0.261162347330301  0.5704815349595593  1.0000
  H   H213      1.0  0.5224405702047726  0.2685812427775001  0.5335534478890661  1.0000
  H   H214      1.0  0.5543745147750577  0.2321509457235241  0.557920441957182  1.0000
  H   H215      1.0  0.534046535507068  0.2812001942790067  0.5763816278315027  1.0000
  H   H216      1.0  0.5206720775621856  0.1895684633101006  0.6043400470952499  1.0000
  H   H217      1.0  0.5011804959594538  0.23936061671125666  0.6222462696289516  1.0000
  H   H218      1.0  0.465146302218353  0.19607745497548326  0.6131427126886497  1.0000
  H   H219      1.0  0.5051136614806024  0.17068123107062932  0.545723543188822  1.0000
  H   H220      1.0  0.4748832978611449  0.20707844031167164  0.5201043889374026  1.0000
  H   H221      1.0  0.44923944150152456  0.17757169220919022  0.553175193862161  1.0000
  H   H222      1.0  0.44463761895624665  0.27354713553515936  0.5449772432863693  1.0000
  H   H223      1.0  0.45739949708804223  0.28967919238376183  0.5869853652902606  1.0000
  H   H224      1.0  0.4217545488858293  0.24511684328081093  0.5795373776134993  1.0000
  N   N9        1.0  0.019143753238390016  0.7112338408700822  0.001229391397622459  1.0000
  C   C225      1.0  0.03154279463135645  0.681532390228199  0.9736044538883966  1.0000
  C   C226      1.0  0.03930602661924021  0.753934805586735  0.9959018105784844  1.0000
  C   C227      1.0  0.0331350350182793  0.6929829574650155  0.0335013350964013  1.0000
  C   C228      1.0  0.972540238998628  0.7164094794070668  0.001802308123106  1.0000
  H   H225      1.0  0.06653596421090024  0.6772285010645505  0.9721081079448493  1.0000
  H   H226      1.0  0.020611748722341394  0.6938251099397571  0.9489129763884437  1.0000
  H   H227      1.0  0.017661174704796778  0.648802622189488  0.9771686899867243  1.0000
  H   H228      1.0  0.027971928431312243  0.769325908281092  0.9724333536466193  1.0000
  H   H229      1.0  0.031961703798768726  0.7767590796821293  0.01687609756250641  1.0000
  H   H230      1.0  0.07444082134180063  0.7510337882339798  0.993647362663961  1.0000
  H   H231      1.0  0.024463487667194084  0.7145443951156923  0.054981644506434835  1.0000
  H   H232      1.0  0.06811077907988716  0.688095115583001  0.03374469110663747  1.0000
  H   H233      1.0  0.01813949215907007  0.6609066729364156  0.038348685433212015  1.0000
  H   H234      1.0  0.9619993360099148  0.7391108687285114  0.02202412294078382  1.0000
  H   H235      1.0  0.9563953887662971  0.6848482034608055  0.006267961678645184  1.0000
  H   H236      1.0  0.9608932196694432  0.729284563834823  0.9774969946616489  1.0000
  N   N10       1.0  0.902483919455465  0.4287912352686698  0.5889633830494566  1.0000
  C   C229      1.0  0.9019997448328565  0.47669103835546045  0.5903561270779305  1.0000
  C   C230      1.0  0.9447352579928878  0.41365706097254334  0.5773426671115013  1.0000
  C   C231      1.0  0.8697328726398817  0.4136198901611699  0.5654549720019098  1.0000
  C   C232      1.0  0.8934461232049153  0.41126245120713245  0.6227755331421503  1.0000
  H   H237      1.0  0.8705635790637598  0.4893746851850238  0.5989338346565983  1.0000
  H   H238      1.0  0.9091447893897976  0.49117589838816766  0.565407132688379  1.0000
  H   H239      1.0  0.9259579832993228  0.4891746973999019  0.6081600679032821  1.0000
  H   H240      1.0  0.9463700701512394  0.37763838198125516  0.5761150483762735  1.0000
  H   H241      1.0  0.9528177585354772  0.42619183729035737  0.5518908806955555  1.0000
  H   H242      1.0  0.9701450021716203  0.4246814331894337  0.5945722714462004  1.0000
  H   H243      1.0  0.8691437115354216  0.37758436652077637  0.5637340243326908  1.0000
  H   H244      1.0  0.8754416235710487  0.42642157091435706  0.5397206238004876  1.0000
  H   H245      1.0  0.8374851232347081  0.42442190352533044  0.5736689325113458  1.0000
  H   H246      1.0  0.8920144600292447  0.375214692573154  0.622538216824466  1.0000
  H   H247      1.0  0.8625773997852002  0.4234370862948721  0.6330094015936316  1.0000
  H   H248      1.0  0.9184550558689485  0.4207338804366236  0.6408771191195533  1.0000
  N   N11       1.0  0.8716602552670004  0.4848842280604796  0.005703243111889744  1.0000
  C   C233      1.0  0.9139078590529248  0.47523195560654957  0.019464848914785282  1.0000
  C   C234      1.0  0.8434204932626497  0.4473455194768919  0.01119788648328135  1.0000
  C   C235      1.0  0.8757106127037131  0.4934675999296471  0.9693365199208543  1.0000
  C   C236      1.0  0.8536340992702731  0.5233953206804598  0.022916229775117092  1.0000
  H   H249      1.0  0.936088992494312  0.5027602301279409  0.01570048834970761  1.0000
  H   H250      1.0  0.928487714877208  0.4463012784492701  0.0071417949797403235  1.0000
  H   H251      1.0  0.9121343310804902  0.46874880290277854  0.04691830986721235  1.0000
  H   H252      1.0  0.8109237160675157  0.4534936866589893  0.001732107590626919  1.0000
  H   H253      1.0  0.8558605928102628  0.41768065908502006  0.9983917179688866  1.0000
  H   H254      1.0  0.8404024928404866  0.43953100704669673  0.0383503705163355  1.0000
  H   H255      1.0  0.8895532865095349  0.4651354490451224  0.955658001117955  1.0000
  H   H256      1.0  0.8967782028069803  0.5216769239232346  0.9643014871953121  1.0000
  H   H257      1.0  0.8443997254616421  0.5007456468350101  0.9580838611204331  1.0000
  H   H258      1.0  0.8506740705424797  0.5180815206950109  0.05046482371328875  1.0000
  H   H259      1.0  0.8214968884113489  0.531338678776238  0.01346321283285401  1.0000
  H   H260      1.0  0.8740391612065392  0.5524406232962672  0.019083013301603557  1.0000
  N   N12       1.0  0.28968043953379574  0.8008235192392871  0.3984078899653845  1.0000
  C   C237      1.0  0.2963658282706127  0.7654055297285997  0.3737535788606623  1.0000
  C   C238      1.0  0.24864736237108617  0.8222970654397844  0.39202372682808334  1.0000
  C   C239      1.0  0.324345359652703  0.8328089184981723  0.3952295401526478  1.0000
  C   C240      1.0  0.28925903805370334  0.7827978866624338  0.4327072666130672  1.0000
  H   H261      1.0  0.29712288761268296  0.7777713610272026  0.3475788291465746  1.0000
  H   H262      1.0  0.27063714401142996  0.7407568910733696  0.3753954768484359  1.0000
  H   H263      1.0  0.32688310681457594  0.7481913803417702  0.3779587764878898  1.0000
  H   H264      1.0  0.24252491426738002  0.8491184826437721  0.410277923601888  1.0000
  H   H265      1.0  0.24784357768247736  0.8364012242298353  0.36637577336780563  1.0000
  H   H266      1.0  0.22179429450946322  0.7989612631492975  0.3941874093384519  1.0000
  H   H267      1.0  0.35565655618908537  0.8178292238126658  0.4005343777489855  1.0000
  H   H268      1.0  0.3199986344896865  0.8602738016018542  0.4132136116493861  1.0000
  H   H269      1.0  0.3261324571542244  0.8467565746006982  0.36955947813599493  1.0000
  H   H270      1.0  0.2854107558662614  0.8087783683393196  0.4519713879158994  1.0000
  H   H271      1.0  0.3193587667548515  0.7653327732972207  0.43818519814434226  1.0000
  H   H272      1.0  0.2626660728467706  0.7595530018993508  0.4363176654717221  1.0000
  N   N13       1.0  0.5543372496104133  0.37618390782481403  0.05050259755427011  1.0000
  C   C241      1.0  0.5241205227019811  0.40895786538767087  0.06367601239175458  1.0000
  C   C242      1.0  0.5982086880106274  0.3910600523888174  0.056272166985507965  1.0000
  C   C243      1.0  0.5476734495317421  0.3702118593968052  0.014123944084117657  1.0000
  C   C244      1.0  0.5473533481332642  0.334511105460387  0.06790025757891494  1.0000
  H   H273      1.0  0.5288376140493317  0.41534098811744624  0.09090160303250916  1.0000
  H   H274      1.0  0.4906894684185918  0.3985088011131724  0.06050095572519987  1.0000
  H   H275      1.0  0.5277918158984316  0.4404747192436092  0.05046647801618165  1.0000
  H   H276      1.0  0.6048359044026891  0.4222378033771264  0.04324182659207154  1.0000
  H   H277      1.0  0.60411504417853  0.39639879915154874  0.08346134049656584  1.0000
  H   H278      1.0  0.6219088481788445  0.3667723073481173  0.047141135500322395  1.0000
  H   H279      1.0  0.5699202330391057  0.3456613181515131  0.0033092699155514715  1.0000
  H   H280      1.0  0.5524947719323832  0.4010909499029881  0.00022378639597198102  1.0000
  H   H281      1.0  0.5148533666670835  0.35901889681493987  0.00893575549073966  1.0000
  H   H282      1.0  0.5146216949448541  0.32210895351194474  0.06391252240487799  1.0000
  H   H283      1.0  0.5521498529079113  0.3378844364266519  0.09541456858063513  1.0000
  H   H284      1.0  0.5699007830630466  0.3091701675345828  0.05864738393364988  1.0000
  N   N14       1.0  0.7876685162385527  0.6564057802051534  0.7180792927131501  1.0000
  C   C245      1.0  0.7445257380311473  0.6494188325855557  0.7319823688150687  1.0000
  C   C246      1.0  0.8077348379319065  0.6928772892371693  0.7359500552025122  1.0000
  C   C247      1.0  0.7849850650063513  0.6667333137669371  0.6820048396393522  1.0000
  C   C248      1.0  0.8135496116376104  0.6168716874495738  0.7224331118228932  1.0000
  H   H285      1.0  0.7280099841402303  0.6225022280077182  0.7188113196860288  1.0000
  H   H286      1.0  0.7244762070429043  0.6789939056128663  0.7294461608861281  1.0000
  H   H287      1.0  0.7453663643154678  0.6413502933826752  0.7591551129769782  1.0000
  H   H288      1.0  0.8403806521809659  0.6993819129178135  0.7262628339224204  1.0000
  H   H289      1.0  0.7890794727011927  0.7233016943043307  0.7333580194463455  1.0000
  H   H290      1.0  0.8104304251702446  0.6861328086316565  0.7632648441315947  1.0000
  H   H291      1.0  0.8170766378338904  0.6701778764246732  0.6703427591510249  1.0000
  H   H292      1.0  0.7675129009214188  0.697560142101618  0.6779620978760775  1.0000
  H   H293      1.0  0.7683264093710468  0.6406628714522197  0.6679590395973125  1.0000
  H   H294      1.0  0.8161737765974899  0.6080172783291079  0.7493633657533761  1.0000
  H   H295      1.0  0.8463007398600177  0.6213162398011972  0.7122343463266165  1.0000
  H   H296      1.0  0.7997872280070226  0.5887632593071856  0.708890605522299  1.0000
  N   N15       1.0  0.09885060096703549  0.6279644462035301  0.5107173673115235  1.0000
  C   C249      1.0  0.098465766749208  0.6723830304889513  0.4969617591805576  1.0000
  C   C250      1.0  0.13132728473086436  0.6249483551747862  0.5370245807327928  1.0000
  C   C251      1.0  0.10886686544802458  0.5967239280931851  0.4835200189834435  1.0000
  C   C252      1.0  0.05669849434952878  0.617881427450089  0.5253003067076658  1.0000
  H   H297      1.0  0.07328938368842741  0.6761407063006802  0.47788594254243466  1.0000
  H   H298      1.0  0.129290846002699  0.6804896318707169  0.4845439334284723  1.0000
  H   H299      1.0  0.09233167593174531  0.6969246806552482  0.517017283663533  1.0000
  H   H300      1.0  0.13193163720430967  0.5920821599617477  0.5484141434467662  1.0000
  H   H301      1.0  0.16356919603302864  0.6319743772167782  0.5268004847308201  1.0000
  H   H302      1.0  0.12482353235759903  0.6483583014394789  0.5578501662849945  1.0000
  H   H303      1.0  0.10864537983115191  0.5627473427001756  0.49284438542357123  1.0000
  H   H304      1.0  0.14056299198040598  0.6032027695625797  0.47196325952587437  1.0000
  H   H305      1.0  0.08523959324344266  0.5987335996140769  0.46310097110221277  1.0000
  H   H306      1.0  0.04777118541306491  0.6412976431317755  0.5455490389324044  1.0000
  H   H307      1.0  0.05605784721886264  0.5849286578718369  0.5366150749047571  1.0000
  H   H308      1.0  0.03154949031637133  0.6190596167913941  0.505958085483019  1.0000
  N   N16       1.0  0.4315580636254047  0.9294288974709315  0.5627561817581643  1.0000
  C   C253      1.0  0.39471894053911494  0.9030378668024133  0.5733123671537533  1.0000
  C   C254      1.0  0.45691585090246695  0.9052773276553833  0.5374066919348771  1.0000
  C   C255      1.0  0.45810731002634963  0.9390618451412286  0.5921810030398488  1.0000
  C   C256      1.0  0.41652164727531393  0.970464702522989  0.5480356248705797  1.0000
  H   H309      1.0  0.3751530389879977  0.9201650188024988  0.5926835559044155  1.0000
  H   H310      1.0  0.40483005516664666  0.8714032708386157  0.5839448363491774  1.0000
  H   H311      1.0  0.3737928219894854  0.8958456313191671  0.5517409677178015  1.0000
  H   H312      1.0  0.48523516671251576  0.9242242980810101  0.5291780614778892  1.0000
  H   H313      1.0  0.4683509349480959  0.8737662276947177  0.5473437499167011  1.0000
  H   H314      1.0  0.43803418305457714  0.8981430433502051  0.5146287965619789  1.0000
  H   H315      1.0  0.4867046854224528  0.9580926785539869  0.5848718203501252  1.0000
  H   H316      1.0  0.4693140341507249  0.9088386791379218  0.6043648771702131  1.0000
  H   H317      1.0  0.4404512322254925  0.9585806090221508  0.611350104142457  1.0000
  H   H318      1.0  0.4436261471727244  0.9910280548012275  0.5399494238872762  1.0000
  H   H319      1.0  0.3972971287640793  0.9897865572411372  0.5663239916132826  1.0000
  H   H320      1.0  0.3966350651491383  0.9645591788174858  0.5255614031103581  1.0000
  N   N17       1.0  0.6199342982689351  0.6019981414743005  0.3605681035420856  1.0000
  C   C257      1.0  0.6551748178384457  0.5731115089179969  0.3500956008326863  1.0000
  C   C258      1.0  0.6302980117410454  0.6232303368660905  0.3927649012399758  1.0000
  C   C259      1.0  0.5807335816236913  0.5762897844315296  0.36473129273535737  1.0000
  C   C260      1.0  0.6135631288034197  0.6354503563157523  0.3346665043298375  1.0000
  H   H321      1.0  0.6481383895407757  0.5561870754168569  0.32603012962387556  1.0000
  H   H322      1.0  0.6612867673983476  0.5477816107590258  0.3692401062880003  1.0000
  H   H323      1.0  0.6850811553661462  0.5916310458597436  0.3461049235890123  1.0000
  H   H324      1.0  0.6048163045301319  0.6462099670358569  0.4008663985596427  1.0000
  H   H325      1.0  0.6337678234199576  0.5991241512296845  0.4132662655075227  1.0000
  H   H326      1.0  0.6604024807717103  0.6419411012475186  0.39079046928758  1.0000
  H   H327      1.0  0.5843268422107787  0.5508332079589352  0.38424181674772606  1.0000
  H   H328      1.0  0.5717837581126294  0.5598927890636741  0.3409098552464158  1.0000
  H   H329      1.0  0.5536682672285153  0.5971458265654559  0.3728108806923782  1.0000
  H   H330      1.0  0.6065321231903421  0.6206030497889317  0.30981658200780576  1.0000
  H   H331      1.0  0.6424090754948637  0.6557742383989026  0.33142853951106577  1.0000
  H   H332      1.0  0.5869285419756224  0.6576836318986021  0.34152202713506696  1.0000
  N   N18       1.0  0.37998219814445344  0.6154452759548237  0.8818496353097478  1.0000
  C   C261      1.0  0.3698415840062232  0.6378226090347511  0.9138334983047717  1.0000
  C   C262      1.0  0.34806795778028743  0.6272755625520448  0.8566049577158752  1.0000
  C   C263      1.0  0.37964124343779915  0.5680333524415612  0.8871291652388179  1.0000
  C   C264      1.0  0.42247492401002795  0.6288705576588607  0.86986933113586  1.0000
  H   H333      1.0  0.3928463675935122  0.6291176338701633  0.9336302061768483  1.0000
  H   H334      1.0  0.3376188609189342  0.629208031762286  0.9233016531072754  1.0000
  H   H335      1.0  0.37102959866539104  0.673670502170206  0.9108356788497513  1.0000
  H   H336      1.0  0.35538176200051785  0.6122096385415294  0.8317649338046331  1.0000
  H   H337      1.0  0.31567859632634043  0.6168772805908891  0.8644392686937875  1.0000
  H   H338      1.0  0.3469528879792695  0.6630400013858504  0.8527866360954491  1.0000
  H   H339      1.0  0.3866441366174909  0.5501341739100807  0.8633826605550284  1.0000
  H   H340      1.0  0.3483314216165942  0.5567506892909553  0.896867181407378  1.0000
  H   H341      1.0  0.4039844217811075  0.5581849813030809  0.9056810052449918  1.0000
  H   H342      1.0  0.43098303959782513  0.6135184581744152  0.845365770259192  1.0000
  H   H343      1.0  0.44752356078788863  0.6200542955547608  0.8880608992735683  1.0000
  H   H344      1.0  0.4239831148613252  0.6645379500798634  0.866281035834079  1.0000
  N   N19       1.0  0.21724837625351598  0.5531781233779478  0.1678067360005211  1.0000
  C   C265      1.0  0.26052570848578016  0.5417008193019409  0.15610196441006086  1.0000
  C   C266      1.0  0.21016188820933313  0.6001830886282588  0.16334896659026563  1.0000
  C   C267      1.0  0.2120716022861772  0.5421823606635169  0.20371044861377352  1.0000
  C   C268      1.0  0.1859935723052511  0.5286763959589053  0.148004648940044  1.0000
  H   H345      1.0  0.2667229195348144  0.506336658515313  0.15871210849396555  1.0000
  H   H346      1.0  0.2850857017544118  0.5593233114878271  0.17058697921233  1.0000
  H   H347      1.0  0.2654287641762635  0.5499135866256222  0.12909227798868536  1.0000
  H   H348      1.0  0.17809691000194153  0.610061513304177  0.17256594827954472  1.0000
  H   H349      1.0  0.23372432687247682  0.6197336668299698  0.17737068324514407  1.0000
  H   H350      1.0  0.21223783849695524  0.609450719654285  0.13646020765635217  1.0000
  H   H351      1.0  0.1796525516266196  0.5505564204582502  0.213178240259347  1.0000
  H   H352      1.0  0.23502125389839149  0.560127131337637  0.21955209530032632  1.0000
  H   H353      1.0  0.21678415604296586  0.5068980653669201  0.2081053179291962  1.0000
  H   H354      1.0  0.15306714428803458  0.5377329373978278  0.15531097244564865  1.0000
  H   H355      1.0  0.1893441380177628  0.493060437835937  0.15148879786584937  1.0000
  H   H356      1.0  0.18949459069069594  0.5352634234734238  0.120731920437862  1.0000
  N   N20       1.0  0.5744324295034022  0.10834311441497624  0.8536712661945064  1.0000
  C   C269      1.0  0.5968162556748319  0.06777044957679457  0.8621742527761781  1.0000
  C   C270      1.0  0.6003128395107988  0.13342027563927528  0.82941740880575  1.0000
  C   C271      1.0  0.567388461602142  0.134382903044848  0.8844988972265834  1.0000
  C   C272      1.0  0.5331231086462426  0.09778411250825925  0.8385730683953323  1.0000
  H   H357      1.0  0.5782353194540634  0.04812322910488609  0.8805149015011298  1.0000
  H   H358      1.0  0.6282396147706668  0.07452250235942315  0.8734736410301238  1.0000
  H   H359      1.0  0.6024819223702549  0.047201668726364776  0.8395194128181387  1.0000
  H   H360      1.0  0.6066575763322504  0.11448776653069004  0.8060117985863805  1.0000
  H   H361      1.0  0.5841376258005953  0.16404952144449148  0.8220737484448385  1.0000
  H   H362      1.0  0.6316124892826267  0.1423415225427116  0.8399844676164998  1.0000
  H   H363      1.0  0.5507841424568949  0.16535085854657217  0.8789685933086352  1.0000
  H   H364      1.0  0.5978363269789626  0.1425824673160303  0.896856538478391  1.0000
  H   H365      1.0  0.5477544751017106  0.11654124356998952  0.9032851636827388  1.0000
  H   H366      1.0  0.5371793529665089  0.07797153280525815  0.8153397809127714  1.0000
  H   H367      1.0  0.515632766180425  0.12766880539646475  0.8316011988215654  1.0000
  H   H368      1.0  0.5124746591989665  0.07927128961452778  0.8562314007883082  1.0000
  N   N21       1.0  0.558635573185518  0.8719222630319888  0.2516364494958248  1.0000
  C   C273      1.0  0.5320945180041017  0.8328164862717906  0.25594456469683313  1.0000
  C   C274      1.0  0.5919801725013614  0.8723671829764953  0.2773053491703392  1.0000
  C   C275      1.0  0.5320302540984353  0.911208252348845  0.2555661830060661  1.0000
  C   C276      1.0  0.5786614005761866  0.8713613426509977  0.21789174039341871  1.0000
  H   H369      1.0  0.5065487771008783  0.8314488072318024  0.2369666985466396  1.0000
  H   H370      1.0  0.5167257644663932  0.8320161653396307  0.28130244067076243  1.0000
  H   H371      1.0  0.5513244890648912  0.8026599120013475  0.25330515708188817  1.0000
  H   H372      1.0  0.6154350982341134  0.8458814247022299  0.27296237154745084  1.0000
  H   H373      1.0  0.609886330803996  0.9034318806190315  0.2767635259379766  1.0000
  H   H374      1.0  0.5781464442634071  0.868409187784752  0.3028891407488158  1.0000
  H   H375      1.0  0.5510876573554274  0.9412750399381913  0.2520976596212901  1.0000
  H   H376      1.0  0.5172033333690806  0.9131259291193259  0.28105958195043934  1.0000
  H   H377      1.0  0.506222927695028  0.9120439268539616  0.23679600162184195  1.0000
  H   H378      1.0  0.600854491576123  0.899049048196435  0.21466297187580072  1.0000
  H   H379      1.0  0.5547316892907096  0.8734755733135845  0.19767853505905916  1.0000
  H   H380      1.0  0.5977276397546715  0.8413574260228425  0.21358976708704777  1.0000
  N   N22       1.0  0.6436295518615129  0.910714748493031  0.6973252915180395  1.0000
  C   C277      1.0  0.6354124205868186  0.957454058937172  0.6924618045715277  1.0000
  C   C278      1.0  0.6814663681096348  0.905041255909566  0.71840513162363  1.0000
  C   C279      1.0  0.6510890623607549  0.8897175799482733  0.6643609765397871  1.0000
  C   C280      1.0  0.6065758107338508  0.8905440438161182  0.7140933965954884  1.0000
  H   H381      1.0  0.6631797062775581  0.974182617959421  0.6808844949077856  1.0000
  H   H382      1.0  0.6286600447552104  0.973932245766888  0.716739710100757  1.0000
  H   H383      1.0  0.6075427157631486  0.9630649818010719  0.676187184035215  1.0000
  H   H384      1.0  0.6887011377560062  0.870044847715133  0.7223179313957935  1.0000
  H   H385      1.0  0.7100298544800938  0.9202125711606961  0.7067944613917069  1.0000
  H   H386      1.0  0.6767841420340318  0.9200970827480848  0.7436176527779458  1.0000
  H   H387      1.0  0.678833240778813  0.904192336943061  0.6510492367597719  1.0000
  H   H388      1.0  0.6230385594132987  0.8929964869540171  0.6479124675267529  1.0000
  H   H389      1.0  0.6575899585223176  0.8544011038673545  0.6671673241128355  1.0000
  H   H390      1.0  0.611397020807774  0.8550832275529265  0.7174028700430807  1.0000
  H   H391      1.0  0.577145728497882  0.8949952952716779  0.6994269251929814  1.0000
  H   H392      1.0  0.6006974794032697  0.9047303934696044  0.7394785157548497  1.0000
  N   N23       1.0  0.5963643068345664  0.682938034368175  0.9098894113170548  1.0000
  C   C281      1.0  0.6103454789739919  0.6674122397126635  0.8764043039575539  1.0000
  C   C282      1.0  0.5939835923313509  0.6459729366894115  0.9333118496394718  1.0000
  C   C283      1.0  0.5539757069831351  0.7030128504443546  0.9073697072220157  1.0000
  C   C284      1.0  0.6269677355336444  0.7153260849040128  0.9223829727880268  1.0000
  H   H393      1.0  0.642269689785986  0.6521000469732656  0.8771841647297964  1.0000
  H   H394      1.0  0.6123229409505249  0.6946422459250161  0.8582778357085903  1.0000
  H   H395      1.0  0.5876841730514608  0.6434483686709394  0.8658269996521448  1.0000
  H   H396      1.0  0.5711366952128433  0.6210058075365328  0.924445967913522  1.0000
  H   H397      1.0  0.6254017900731238  0.6300332514761071  0.936089408079997  1.0000
  H   H398      1.0  0.5827434551188343  0.65650286356162  0.9586783186806619  1.0000
  H   H399      1.0  0.5424379362361877  0.7153345020946037  0.9321268040305928  1.0000
  H   H400      1.0  0.5302509768186673  0.6793310103500622  0.8979524299613586  1.0000
  H   H401      1.0  0.5541357587313805  0.7306360559642225  0.8895820466868151  1.0000
  H   H402      1.0  0.6176592136657322  0.7277573934575177  0.9476640808881792  1.0000
  H   H403      1.0  0.6293410849411513  0.7437118879643237  0.9052837258647425  1.0000
  H   H404      1.0  0.6595258166824548  0.701519870113087  0.9239957106375333  1.0000
  N   N24       1.0  0.6626192809813459  0.606948782535772  0.15169477342410007  1.0000
  C   C285      1.0  0.6933171047995059  0.6384086366241115  0.1376362440254616  1.0000
  C   C286      1.0  0.6837751364338217  0.564617605453666  0.15646172223680296  1.0000
  C   C287      1.0  0.6269273746144955  0.6016443990764991  0.12834703750655113  1.0000
  C   C288      1.0  0.6463556187576317  0.6231650135416582  0.18435641302578182  1.0000
  H   H405      1.0  0.6786355190623229  0.6709769524316093  0.13431468161445642  1.0000
  H   H406      1.0  0.7060032019149312  0.6274377248116906  0.11282917895112718  1.0000
  H   H407      1.0  0.7207609332543492  0.6431385126621273  0.1545344588057601  1.0000
  H   H408      1.0  0.6614609698370175  0.5401930817918043  0.1671207041681886  1.0000
  H   H409      1.0  0.6964121170252205  0.5512460644272874  0.13230276732010413  1.0000
  H   H410      1.0  0.710710978920904  0.5672758693052458  0.17416301368952233  1.0000
  H   H411      1.0  0.6029410720679631  0.5784211800231082  0.13833605636561666  1.0000
  H   H412      1.0  0.6379799517583253  0.5889541077611891  0.10353547893867068  1.0000
  H   H413      1.0  0.6104180594598014  0.6329713995380719  0.12393025691530092  1.0000
  H   H414      1.0  0.6234550767580486  0.6000198984409125  0.19594440219851764  1.0000
  H   H415      1.0  0.6303485435812789  0.6551498687282318  0.18180598390414396  1.0000
  H   H416      1.0  0.6724598838146869  0.6275911642719525  0.20249928041236648  1.0000
  N   N25       1.0  0.35180501962350275  0.5432695643990693  0.4550304589929644  1.0000
  C   C289      1.0  0.3242746528318623  0.5046508687438788  0.45745132259521404  1.0000
  C   C290      1.0  0.32920353532500274  0.5813204684095885  0.4691419539441441  1.0000
  C   C291      1.0  0.362742792561227  0.5511492385153053  0.41940414324077413  1.0000
  C   C292      1.0  0.3909681605146524  0.5357493350046869  0.474150855013469  1.0000
  H   H417      1.0  0.3157321393749051  0.49743167580846814  0.48402788290986826  1.0000
  H   H418      1.0  0.3404787508218945  0.47539391568300804  0.44688401949009104  1.0000
  H   H419      1.0  0.29434144697770787  0.5092832080810442  0.44342024191679275  1.0000
  H   H420      1.0  0.3491630017953738  0.6109990648817902  0.46769776939092755  1.0000
  H   H421      1.0  0.2994557295640117  0.587954128525054  0.45531425446939056  1.0000
  H   H422      1.0  0.3205349068250667  0.5762222660555715  0.4960390065670981  1.0000
  H   H423      1.0  0.334092398130435  0.5583966407308442  0.40437010087083936  1.0000
  H   H424      1.0  0.37856376165800387  0.5223961840055676  0.4078012951275284  1.0000
  H   H425      1.0  0.38466778998704637  0.5791592721627504  0.4164933900695069  1.0000
  H   H426      1.0  0.40723639571549897  0.505615134744123  0.4656659935037335  1.0000
  H   H427      1.0  0.3841021131365463  0.5320172127956494  0.5014368297014817  1.0000
  H   H428      1.0  0.41382846883348  0.5629669108266306  0.4711679972024696  1.0000
  N   N26       1.0  0.5779604679100788  0.3604089263593983  0.7008024802091007  1.0000
  C   C293      1.0  0.555876771133049  0.38734543614663647  0.7263216541808424  1.0000
  C   C294      1.0  0.547516088947002  0.34604925414348825  0.6751117740534135  1.0000
  C   C295      1.0  0.596537313435949  0.32203216580685456  0.7170990715872815  1.0000
  C   C296      1.0  0.6120061129722316  0.3860326396077733  0.6846793208409002  1.0000
  H   H429      1.0  0.5301984988119164  0.36877200623478945  0.7391995796980438  1.0000
  H   H430      1.0  0.5413443740495683  0.4165697443707637  0.7148522862253762  1.0000
  H   H431      1.0  0.5781943937829036  0.3985913383364363  0.7459724968162064  1.0000
  H   H432      1.0  0.5632680114114917  0.32525976369424164  0.65566838627629  1.0000
  H   H433      1.0  0.5212830392232545  0.3267132308613725  0.6864328593055764  1.0000
  H   H434      1.0  0.5332199168251945  0.37408975711361686  0.661813913095865  1.0000
  H   H435      1.0  0.5719927128196464  0.30309412341095876  0.7308249879146936  1.0000
  H   H436      1.0  0.6213597437556792  0.33119357401731875  0.7354423638460033  1.0000
  H   H437      1.0  0.6114174271730547  0.2998085576079321  0.69832976755638  1.0000
  H   H438      1.0  0.6292128042355146  0.36646698405288813  0.6654423045185837  1.0000
  H   H439      1.0  0.6359799804834696  0.39709625960673756  0.7031595857340716  1.0000
  H   H440      1.0  0.599206215517872  0.41517133247511784  0.6719201653776592  1.0000
  N   N27       1.0  0.9278444952544376  0.5201367623257241  0.20186891888877803  1.0000
  C   C297      1.0  0.9210199612842465  0.5640843218999287  0.18826886950462904  1.0000
  C   C298      1.0  0.9057172664313803  0.48796800505847154  0.18078584725218352  1.0000
  C   C299      1.0  0.9108341414884954  0.5181089327396422  0.23654904839813654  1.0000
  C   C300      1.0  0.9737644800699385  0.5103550188802546  0.20191476295424088  1.0000
  H   H441      1.0  0.8868066914466856  0.5730761259163918  0.18879150294313138  1.0000
  H   H442      1.0  0.9326873399671711  0.566588480131309  0.16190887583154884  1.0000
  H   H443      1.0  0.9379339064709942  0.5891115881474753  0.20320886190057352  1.0000
  H   H444      1.0  0.9178261695470858  0.4884579269130085  0.1544146801252046  1.0000
  H   H445      1.0  0.9104916610195843  0.4544382592114005  0.19025954322061914  1.0000
  H   H446      1.0  0.8709114878797176  0.4940474351515269  0.180325452234559  1.0000
  H   H447      1.0  0.9147912938062679  0.4851889883717006  0.24739518280312597  1.0000
  H   H448      1.0  0.876427739641827  0.5263152388900094  0.23750124152885357  1.0000
  H   H449      1.0  0.927137386508791  0.5416324796435202  0.2532359892686051  1.0000
  H   H450      1.0  0.9801367246121635  0.47721653422063864  0.21162078721820474  1.0000
  H   H451      1.0  0.9915137426751219  0.5339190579687028  0.21766707880429764  1.0000
  H   H452      1.0  0.9876506531320264  0.5116013986985941  0.1761399624639321  1.0000
  N   N28       1.0  0.5448240203583277  0.16610366213632125  0.09916852232263852  1.0000
  C   C301      1.0  0.5673867144169845  0.17267314258848693  0.06685212765050919  1.0000
  C   C302      1.0  0.5338763616530093  0.11972660446706339  0.10282889855132388  1.0000
  C   C303      1.0  0.5056914563536555  0.19251941800987624  0.10012356684202618  1.0000
  C   C304      1.0  0.5725217314011767  0.1795695403248126  0.12697780427976912  1.0000
  H   H453      1.0  0.5780742829892349  0.20684958562467615  0.06389017119539075  1.0000
  H   H454      1.0  0.5470954309428925  0.1647047362311204  0.04512578777700682  1.0000
  H   H455      1.0  0.5957836662989395  0.15135190284614705  0.06469144316460729  1.0000
  H   H456      1.0  0.5124300775202643  0.10852159084603101  0.08264324289620495  1.0000
  H   H457      1.0  0.5625869462482036  0.09881878111949655  0.101239947730468  1.0000
  H   H458      1.0  0.5179349219722392  0.1131199225593091  0.12734370498306283  1.0000
  H   H459      1.0  0.4883983342362105  0.1890049326699682  0.124458812260045  1.0000
  H   H460      1.0  0.4834767719626456  0.18275402652587347  0.08002720379580497  1.0000
  H   H461      1.0  0.5126612437292881  0.22754434246986607  0.09637679378039965  1.0000
  H   H462      1.0  0.6025387315623464  0.16073096442159948  0.12678066806955168  1.0000
  H   H463      1.0  0.5569846093244859  0.17438088181385428  0.15186982061497725  1.0000
  H   H464      1.0  0.5813826950105379  0.21443742375561523  0.12508114532819367  1.0000
  N   N29       1.0  0.5702190129599041  0.561995279698041  0.5714113250281052  1.0000
  C   C305      1.0  0.6031774283811201  0.5649333309213571  0.5448081432535679  1.0000
  C   C306      1.0  0.5644433456734538  0.6049858722416669  0.5874167279301539  1.0000
  C   C307      1.0  0.5836014024718541  0.53047036988133  0.5969826124170742  1.0000
  C   C308      1.0  0.5298554275537127  0.5475823105526403  0.556574700581647  1.0000
  H   H465      1.0  0.6090818690455677  0.5328804870769398  0.5327257364292768  1.0000
  H   H466      1.0  0.6340404021588341  0.5758927439168059  0.5550910052443142  1.0000
  H   H467      1.0  0.5938609114340901  0.5879629415367842  0.5247252569318887  1.0000
  H   H468      1.0  0.5398670137071293  0.6039645771274231  0.6077044438500124  1.0000
  H   H469      1.0  0.5943013147797122  0.6163091791170711  0.5993171078541574  1.0000
  H   H470      1.0  0.554678734190223  0.6298359275924077  0.5688669070211879  1.0000
  H   H471      1.0  0.5604643514969679  0.5286917118567561  0.6182457806366279  1.0000
  H   H472      1.0  0.6146540117566083  0.5397188274176155  0.6076776216104096  1.0000
  H   H473      1.0  0.5871289398866913  0.49730887081000896  0.586280978127995  1.0000
  H   H474      1.0  0.5042292284115953  0.5452181467777657  0.5759326055701106  1.0000
  H   H475      1.0  0.5332250041969814  0.5149485508314864  0.5446957610566826  1.0000
  H   H476      1.0  0.5190413243122216  0.5703935112712964  0.5368229593688915  1.0000
  N   N30       1.0  0.3369734284808097  0.27354046292724377  0.9156450698829168  1.0000
  C   C309      1.0  0.30856704635493937  0.30437934855677673  0.8986534061022654  1.0000
  C   C310      1.0  0.3214307904262576  0.22883000206855475  0.9104127060154065  1.0000
  C   C311      1.0  0.33761366271650656  0.28352339698126183  0.9519801621464304  1.0000
  C   C312      1.0  0.3802981977431181  0.2774980988160205  0.9014334412833092  1.0000
  H   H477      1.0  0.27550848155685487  0.30205672422062024  0.9086018754652974  1.0000
  H   H478      1.0  0.3077091193029101  0.2979763615186919  0.8711431717736156  1.0000
  H   H479      1.0  0.31923422219966036  0.33849226577619995  0.9023207138966989  1.0000
  H   H480      1.0  0.34229972280707377  0.20468263887980553  0.9226301874755288  1.0000
  H   H481      1.0  0.288856665029111  0.22438718225736753  0.9208419378725777  1.0000
  H   H482      1.0  0.3210143802000606  0.2200308144531029  0.8832681959058937  1.0000
  H   H483      1.0  0.3592570010355301  0.26129841098422246  0.9655792814719765  1.0000
  H   H484      1.0  0.3055627113421487  0.28030222934619164  0.9636796360737537  1.0000
  H   H485      1.0  0.3487401904793682  0.31723730532011896  0.9567911658610206  1.0000
  H   H486      1.0  0.39206691297171853  0.3113741697443302  0.9029732897262964  1.0000
  H   H487      1.0  0.3816065270841676  0.26745599403543907  0.8745445194715784  1.0000
  H   H488      1.0  0.4030717805142417  0.2564404691294371  0.9149589531232538  1.0000
  N   N31       1.0  0.6553471113334268  0.891401673931622  0.3751766529173893  1.0000
  C   C313      1.0  0.6096352244991452  0.8815220875140435  0.37323347378981986  1.0000
  C   C314      1.0  0.6607932854904646  0.9366073996754001  0.386857633403292  1.0000
  C   C315      1.0  0.6753116300122981  0.8860589376765169  0.3416295606355097  1.0000
  C   C316      1.0  0.6754748277362842  0.8613435784154557  0.39899975510352914  1.0000
  H   H489      1.0  0.5937642249053484  0.90235875092642  0.35454280568186114  1.0000
  H   H490      1.0  0.5930229929360608  0.8871348722976186  0.3977067270410537  1.0000
  H   H491      1.0  0.6040210743131359  0.8473171589471779  0.3659011395227395  1.0000
  H   H492      1.0  0.645987881968501  0.9417715801978435  0.41208879301818707  1.0000
  H   H493      1.0  0.6948823876736924  0.9455380604134734  0.38838068109516405  1.0000
  H   H494      1.0  0.6453013853975469  0.9599772122961268  0.369628104631604  1.0000
  H   H495      1.0  0.6620475479742728  0.9092718191625943  0.3231637662102746  1.0000
  H   H496      1.0  0.6706162451620584  0.8526335983610339  0.33165435346729855  1.0000
  H   H497      1.0  0.7101003633090239  0.8920196809771084  0.34233709100726856  1.0000
  H   H498      1.0  0.7099639021534525  0.8680842585165081  0.401427069760341  1.0000
  H   H499      1.0  0.6722701727279298  0.8269970131276925  0.39058463207039784  1.0000
  H   H500      1.0  0.6606782011949796  0.8639540332642379  0.4244400911216913  1.0000
  N   N32       1.0  0.03262940977652562  0.53804155907697  0.7680551484492788  1.0000
  C   C317      1.0  0.057069848586241534  0.4985489081279692  0.7593433155215281  1.0000
  C   C318      1.0  0.9899752925609582  0.5256783395307123  0.7804573225991571  1.0000
  C   C319      1.0  0.028523438416957037  0.5653738575072547  0.7379132055038177  1.0000
  C   C320      1.0  0.055021137870572945  0.5625192098364892  0.7944159104230669  1.0000
  H   H501      1.0  0.08931882851840989  0.506727489035504  0.7496266830224412  1.0000
  H   H502      1.0  0.04101981999987281  0.4792764959508627  0.7395176989485315  1.0000
  H   H503      1.0  0.060792845170071885  0.4771259480807542  0.7814969866775436  1.0000
  H   H504      1.0  0.9917964901911523  0.5054640439627522  0.8034735885135008  1.0000
  H   H505      1.0  0.9706181772302724  0.5547112287360536  0.7872067567566797  1.0000
  H   H506      1.0  0.9723192642437163  0.5069344099097143  0.7611607738104148  1.0000
  H   H507      1.0  0.010500438422468061  0.5956103860453276  0.7434338333636838  1.0000
  H   H508      1.0  0.011703732612319495  0.5479538594578238  0.7175565018945119  1.0000
  H   H509      1.0  0.06008753161478908  0.5751966146348252  0.7278301639204549  1.0000
  H   H510      1.0  0.08709760969798674  0.5729539452268537  0.7857231052134841  1.0000
  H   H511      1.0  0.05853596704452668  0.5429975962716382  0.817648283984641  1.0000
  H   H512      1.0  0.03736866702118968  0.5923332628257774  0.8016730264980302  1.0000
