data_image0
_chemical_formula_structural       FeS2FeS2C2FeH4CH4CSNC2SC4H4CH4CH2FeCH2SCH2SH3FeSNCHSFeSHC2Fe2NSFeSHCH2C4H2C3H2CHC2NCSHCH7SCSHCH2CH3CH8CH3CH2SHCHCHCHCHSCSHC2HNFe2HC3HSC3HCS2CHNH2SHSCHC3H2C2H2FeSH2SC2HC2H2FeSFeS2H2CHSCNCH2C4H2FeSHCH3FeCSH2C2H5C2H3FeS3FeSFeS2NH3C3H2CHC6H2CH8C2NH2CH3CHC2H5CH3SH2CH4CHCH2SHNFeHC3HC2HC2SH2CHCSHCH3SNHSFeSFeHS2H2S3C6H4FeH2C3H3Fe3CNC5H12CHCH2CH4CSHSHSC2H2C3HC2HFeS2FeS2CH4CH2CH5NHSCFeHC3H7CHNCHCH2C3SFeSFeS2FeNH7CH3C4HCHCH2SHSH2CSH3FeCHS2CHCFeCHC2H4CH5FeHSCSC2H6CSHSCHFeHCNHC2H4NSH2SHC3HC3H2FeS2H2FeSFeSHCHSCHC3HSH4CH2SH3C2HCH2CH6CHCHSNCH2NH5CSC3HC2SH3CHCHFeSHFeHSFeHCFeSHSC5H2C3FeHCHSHSC2HFeC2H2C2NFeHCFeCH3C2HSH3SH3CSHSHC2HCHC2HCFeS2H5SHFe2CSH2CSFeSNC2S2HC2NC4HCHCH2NC4H12SFeH3CHCHSH2CH2CHSCHCHNCH2CHCSHFeSHC2H2CNH2C3SHC3H4SHFeS2FeSHFeSCSC5H3CHSC3HFeH4NFeH2C2FeHFeH4C2SH3SHCH2FeHSH4SNCHC2H2CHSHSC4H2CH2NCHC2HC3HCH2CHC2H4CHCH4N2H2CH5CSHCH2SCHCH2SH4FeHCH3C2H2CH2SC2NCSHCH3C3HCH2C3H2SC3HCH3CHCH3FeS2FeHFeSFeS2FeHSHS3H2CHC2H3NHCHC6H6CSHC3H2CH5CH3S2C3H2CH3NH2NHFeH2CH5C2H2FeH2CHFeHCH2C2H3SHFeCSC2H2CSCH2NC5HSCH2CH8S2Fe3S2FeSHSHSCSFeHFeS2FeS2CHFeSFeS3C6H5CNHC8H4C2H4NC4H11NSHCH2FeCH2CFeH7CSHCHCH2CHCHSH6CHC2SH6CHNCHCHCNCH11CHCHCH3S2FeSHC6H5C3H2FeSFeS2FeS3C3HC2H4C3HCH11CSC3NCH10CHCH2NH3N2H3CHCHCH2CH3CHCH4C2H3FeSHSC2H2CHCHSHS2HCFeSHFeS2FeS2FeSFeS3C6H4C2H3C6H7NC5H4CHFeH4CH2CNC3H2CHFeHSHC2HSCHCHCH7NHSH4CH5C2HFeHCHNH5FeC2NH2SH2CH2CSHSHCFeCSHS2HFeS2FeSFeSFeS3CHNSFeSFeCSHCFeC6H4C6H4C2SC4SHCHCNC4H15SHFeH2CHCHCH3SH3CHFeHCH2CH3C2H4C2FeC3HNSCH3CNCH2FeCH10CH6CSC2H2NSH2SFeSCHC6HNH9SFeSFeS2FeS3C2HCH3C7H2C2HNC4H12CHCH2CHCNHC2SH6C2H7C2H4C4H7FeH2NCHC3SFeS2FeS2FeSFeS3HSHFeSFeSFeCSH3C6H4C6H4CH5CH4CHCHCH2CHCH2FeHSH2CNCH4FeH3CFeHNHNH6CHCH3CH3C3SCH2C2H2CHC3HSHSC2NH3SH2CH3C2SH2CHS3HFeS2HSFeSHCH4CHC2S2CHC6H5FeCFeH3FeCH4CSHCNC4H2SH3CFeH2CH4CHCHSHSH2NH3CSHCNH3CHSH3CHCH5FeH2C2HSHSFeSC3H5CH2CH2FeCHNC4HNCSCH6CH3SFeSH2S2HC6H3CNH4C3H5CHCHCHC2HCH4CH3CH4SH2CHCFeH2FeS2H4C2H4NHSCHCSHC2FeS2FeSCFeS2FeSCSC7H4C2NH3CHFeHCH2C2HNH2CHC2SHCHCNH3CHSH2C3S2Fe2SC2SFeS2HC2HC6H4CHSCH4CHCHSH2NHNCH3C2HNC4H16C2HCHSHFeH2CH2S2HS2H3FeC2H2CFeSFeCFeC2HSHCNH2FeH2FeH2FeS2HFeSC5NCH2SHC2S2H5SCH4CHC2SH2CH3CH2CHC3HCH5CHCSCHCHFeC2SH3S2H6C2H3C2HCNC2H2CS2H5NH2CHC2H4FeS2C6H5FeS2FeS2C2HCHCSH2C3HC2H3NCH2CH2CH2CHFeH2FeHCFeHSC2HCSH3CSH2C3FeCH2NH2CS2H5CHSH2CSCHSHCH2FeS2H5CHCH3C2HFeC2HCH3CNH3CH2CHSH2SH2C2H4FeS2HCHC2H4SNHFeHSC3H2SCFeSFeCS2FeS2HSCHS2C6H4SH3C6H2CH3FeCSCHCHNH2FeCH4CH3CNH2CH2CH2CSH2CH2FeHFeS2CH2FeHCHCHCHC2HS2FeHSFeSH2CH2C2H3SH2CH4CHNCNC4H3FeCHCHS2CH2CHNFeS2H2C2H9SFeS2FeSFeHSNHSHC2HCHC6H2C3S2CHCH3CHNH4C2HC2HCSHCH4CH3CHNH2CH2CHCH5CH5C3H2FeCS2C5SCH3FeS2FeHFeHSC3HCH2CH2CNH2CH4C2H2CHC2HC2HSHS2FeSHNSFeS2C6H5FeCHC3HSCH3SH2C2NC2H2NHCH6C2H3FeH2SH5CHSC3H2FeHC2H3NH4FeH2CH3SHFeCH3FeHC3H2S2HSCHCHCH3C2H3CHCHCHCHCSCFeC
_chemical_formula_sum              "Fe192 S384 C960 H1536 N96"
_cell_length_a       82.4311
_cell_length_b       82.1055
_cell_length_c       44.943
_cell_angle_alpha    91.1973
_cell_angle_beta     92.1992
_cell_angle_gamma    115.072

_space_group_name_H-M_alt    "P 1"
_space_group_IT_number       1

loop_
  _space_group_symop_operation_xyz
  'x, y, z'

loop_
  _atom_site_type_symbol
  _atom_site_label
  _atom_site_symmetry_multiplicity
  _atom_site_fract_x
  _atom_site_fract_y
  _atom_site_fract_z
  _atom_site_occupancy
  Fe  Fe1       1.0  0.07459  0.46805  0.05163  1.0000
  S   S1        1.0  0.10178  0.46757  0.05802  1.0000
  S   S2        1.0  0.17206  0.50951  0.31318  1.0000
  Fe  Fe2       1.0  0.10406  0.48203  0.10237  1.0000
  S   S3        1.0  0.11143  0.47462  0.14787  1.0000
  S   S4        1.0  0.07607  0.47997  0.09739  1.0000
  C   C1        1.0  0.12823  0.48734  0.20324  1.0000
  C   C2        1.0  0.12713  0.49125  0.17310  1.0000
  Fe  Fe3       1.0  0.11266  0.49512  0.03854  1.0000
  H   H1        1.0  0.11960  0.47416  0.21070  1.0000
  H   H2        1.0  0.15093  0.60583  0.28914  1.0000
  H   H3        1.0  0.08934  0.42517  0.11931  1.0000
  H   H4        1.0  0.19094  0.52153  0.19950  1.0000
  C   C3        1.0  0.13843  0.50831  0.16376  1.0000
  H   H5        1.0  0.16961  0.60958  0.31444  1.0000
  H   H6        1.0  0.03620  0.45935  0.07974  1.0000
  H   H7        1.0  0.14089  0.49732  0.24713  1.0000
  H   H8        1.0  0.09490  0.49939  0.16867  1.0000
  C   C4        1.0  0.07916  0.43070  0.12033  1.0000
  S   S5        1.0  0.06032  0.64092  0.02242  1.0000
  N   N1        1.0  0.06222  0.41893  0.10371  1.0000
  C   C5        1.0  0.02500  0.44809  0.06889  1.0000
  C   C6        1.0  0.14033  0.50043  0.22393  1.0000
  S   S6        1.0  0.15427  0.66940  0.34700  1.0000
  C   C7        1.0  0.02784  0.43853  0.04510  1.0000
  C   C8        1.0  0.05458  0.40101  0.11672  1.0000
  C   C9        1.0  0.06583  0.41705  0.07214  1.0000
  C   C10       1.0  0.19904  0.60283  0.34180  1.0000
  H   H9        1.0  0.14263  0.57663  0.09804  1.0000
  H   H10       1.0  0.14582  0.63905  0.30497  1.0000
  H   H11       1.0  0.13188  0.63058  0.33563  1.0000
  H   H12       1.0  0.05471  0.44059  0.09617  1.0000
  C   C11       1.0  0.04930  0.42700  0.10560  1.0000
  H   H13       1.0  0.07705  0.43261  0.14424  1.0000
  H   H14       1.0  0.14938  0.59304  0.12862  1.0000
  H   H15       1.0  0.21295  0.52611  0.18744  1.0000
  H   H16       1.0  0.07231  0.43039  0.06199  1.0000
  C   C12       1.0  0.09400  0.51125  0.15846  1.0000
  H   H17       1.0  0.20453  0.54055  0.24489  1.0000
  H   H18       1.0  0.21979  0.53592  0.26921  1.0000
  Fe  Fe4       1.0  0.08887  0.50635  0.07576  1.0000
  C   C13       1.0  0.25339  0.54576  0.34634  1.0000
  H   H19       1.0  0.04610  0.42853  0.12902  1.0000
  H   H20       1.0  0.08060  0.50658  0.14659  1.0000
  S   S7        1.0  0.11689  0.50935  0.08368  1.0000
  C   C14       1.0  0.20190  0.51695  0.20085  1.0000
  H   H21       1.0  0.08418  0.50728  0.21506  1.0000
  H   H22       1.0  0.13971  0.58571  0.04682  1.0000
  S   S8        1.0  0.09264  0.61790  0.05699  1.0000
  H   H23       1.0  0.18730  0.49075  0.23935  1.0000
  H   H24       1.0  0.09778  0.55233  0.18225  1.0000
  H   H25       1.0  0.07494  0.41033  0.06966  1.0000
  Fe  Fe5       1.0  0.11838  0.64182  0.07122  1.0000
  S   S9        1.0  0.12844  0.64005  0.11844  1.0000
  N   N2        1.0  0.14587  0.60301  0.08623  1.0000
  C   C15       1.0  0.21507  0.53543  0.24550  1.0000
  H   H26       1.0  0.06400  0.39452  0.11575  1.0000
  S   S10       1.0  0.08137  0.52818  0.09105  1.0000
  Fe  Fe6       1.0  0.17235  0.53326  0.28915  1.0000
  S   S11       1.0  0.20044  0.55182  0.30588  1.0000
  H   H27       1.0  0.12477  0.60215  0.11389  1.0000
  C   C16       1.0  0.15734  0.62199  0.09543  1.0000
  C   C17       1.0  0.12689  0.59902  0.09053  1.0000
  Fe  Fe7       1.0  0.16175  0.51949  0.35209  1.0000
  Fe  Fe8       1.0  0.19987  0.52844  0.33155  1.0000
  N   N3        1.0  0.20816  0.51698  0.23214  1.0000
  S   S12       1.0  0.15979  0.54179  0.32623  1.0000
  Fe  Fe9       1.0  0.18769  0.55809  0.34505  1.0000
  S   S13       1.0  0.21157  0.64829  0.27683  1.0000
  H   H28       1.0  0.05163  0.40194  0.14051  1.0000
  C   C18       1.0  0.22262  0.51083  0.23340  1.0000
  H   H29       1.0  0.03930  0.60132  0.02973  1.0000
  H   H30       1.0  0.13128  0.59287  0.33229  1.0000
  C   C19       1.0  0.20725  0.63118  0.30238  1.0000
  C   C20       1.0  0.20417  0.61388  0.29175  1.0000
  C   C21       1.0  0.19988  0.59971  0.31132  1.0000
  C   C22       1.0  0.16064  0.61561  0.30588  1.0000
  H   H31       1.0  0.20482  0.61138  0.26818  1.0000
  H   H32       1.0  0.19716  0.58636  0.30275  1.0000
  C   C23       1.0  0.24494  0.52908  0.33090  1.0000
  C   C24       1.0  0.08214  0.55830  0.06531  1.0000
  C   C25       1.0  0.08845  0.54495  0.06492  1.0000
  H   H33       1.0  0.08519  0.44433  0.11103  1.0000
  H   H34       1.0  0.15934  0.53445  0.17679  1.0000
  C   C26       1.0  0.15063  0.52131  0.18432  1.0000
  H   H35       1.0  0.12562  0.53719  0.17912  1.0000
  C   C27       1.0  0.10059  0.54517  0.04385  1.0000
  C   C28       1.0  0.15153  0.51752  0.21452  1.0000
  N   N4        1.0  0.09692  0.52572  0.18096  1.0000
  C   C29       1.0  0.14285  0.65756  0.14367  1.0000
  S   S14       1.0  0.13374  0.63852  0.03314  1.0000
  H   H36       1.0  0.23434  0.51977  0.22102  1.0000
  C   C30       1.0  0.14816  0.65287  0.17104  1.0000
  H   H37       1.0  0.16335  0.66234  0.21302  1.0000
  H   H38       1.0  0.14344  0.63883  0.17612  1.0000
  H   H39       1.0  0.19726  0.50432  0.27264  1.0000
  H   H40       1.0  0.19652  0.50324  0.19004  1.0000
  H   H41       1.0  0.08288  0.58196  0.04469  1.0000
  H   H42       1.0  0.16913  0.62786  0.29395  1.0000
  H   H43       1.0  0.11773  0.54269  0.21287  1.0000
  S   S15       1.0  0.22121  0.51787  0.32456  1.0000
  C   C31       1.0  0.15104  0.59105  0.10453  1.0000
  S   S16       1.0  0.16661  0.53478  0.23941  1.0000
  H   H44       1.0  0.24921  0.50779  0.30866  1.0000
  C   C32       1.0  0.14901  0.67578  0.13741  1.0000
  H   H45       1.0  0.08502  0.52936  0.22082  1.0000
  H   H46       1.0  0.18195  0.50916  0.24892  1.0000
  C   C33       1.0  0.08329  0.51878  0.20352  1.0000
  H   H47       1.0  0.10548  0.53486  0.04337  1.0000
  H   H48       1.0  0.17177  0.62556  0.09244  1.0000
  H   H49       1.0  0.11671  0.52061  0.20664  1.0000
  C   C34       1.0  0.25558  0.52071  0.32058  1.0000
  H   H50       1.0  0.03646  0.41872  0.09275  1.0000
  H   H51       1.0  0.16530  0.59370  0.10186  1.0000
  H   H52       1.0  0.15368  0.63138  0.08228  1.0000
  H   H53       1.0  0.12226  0.60717  0.07596  1.0000
  H   H54       1.0  0.22754  0.51083  0.25691  1.0000
  H   H55       1.0  0.12832  0.61660  0.30242  1.0000
  H   H56       1.0  0.06947  0.51392  0.19313  1.0000
  H   H57       1.0  0.07250  0.55798  0.08123  1.0000
  C   C35       1.0  0.09532  0.54094  0.16618  1.0000
  H   H58       1.0  0.20910  0.64772  0.34130  1.0000
  H   H59       1.0  0.15582  0.62486  0.11926  1.0000
  H   H60       1.0  0.04180  0.39186  0.10453  1.0000
  C   C36       1.0  0.20254  0.62022  0.35259  1.0000
  H   H61       1.0  0.08171  0.53679  0.15523  1.0000
  H   H62       1.0  0.11795  0.58463  0.08512  1.0000
  S   S17       1.0  0.11029  0.66105  0.04681  1.0000
  H   H63       1.0  0.21790  0.49690  0.22373  1.0000
  C   C37       1.0  0.08814  0.57199  0.04481  1.0000
  H   H64       1.0  0.13794  0.51145  0.14060  1.0000
  C   C38       1.0  0.19300  0.50476  0.24898  1.0000
  H   H65       1.0  0.05322  0.40917  0.05844  1.0000
  C   C39       1.0  0.11502  0.53185  0.19555  1.0000
  H   H66       1.0  0.10502  0.54608  0.14827  1.0000
  C   C40       1.0  0.20647  0.63435  0.33289  1.0000
  H   H67       1.0  0.10416  0.51595  0.14125  1.0000
  S   S18       1.0  0.17672  0.66731  0.27723  1.0000
  C   C41       1.0  0.13878  0.62676  0.31776  1.0000
  S   S19       1.0  0.04970  0.44382  0.03303  1.0000
  H   H68       1.0  0.22659  0.54502  0.23350  1.0000
  C   C42       1.0  0.14816  0.59990  0.05445  1.0000
  C   C43       1.0  0.15943  0.66618  0.19207  1.0000
  H   H69       1.0  0.16233  0.60294  0.05019  1.0000
  N   N5        1.0  0.15147  0.61999  0.33033  1.0000
  Fe  Fe10      1.0  0.20500  0.67164  0.28821  1.0000
  Fe  Fe11      1.0  0.08576  0.63666  0.02910  1.0000
  H   H70       1.0  0.17308  0.64626  0.33889  1.0000
  C   C44       1.0  0.16490  0.63391  0.35082  1.0000
  C   C45       1.0  0.03022  0.60728  0.02386  1.0000
  C   C46       1.0  0.14158  0.60366  0.34698  1.0000
  H   H71       1.0  0.14406  0.60846  0.03990  1.0000
  S   S20       1.0  0.08539  0.49460  0.02917  1.0000
  C   C47       1.0  0.01305  0.42398  0.03120  1.0000
  C   C48       1.0  0.10069  0.57254  0.02432  1.0000
  C   C49       1.0  0.10665  0.55893  0.02349  1.0000
  H   H72       1.0  0.02797  0.42458  0.57650  1.0000
  C   C50       1.0  0.16997  0.66269  0.68507  1.0000
  S   S21       1.0  0.03395  0.44678  0.52462  1.0000
  S   S22       1.0  0.06930  0.52621  0.56794  1.0000
  C   C51       1.0  0.01513  0.42336  0.56740  1.0000
  H   H73       1.0  0.13247  0.53448  0.45419  1.0000
  N   N6        1.0  0.01463  0.49858  0.54080  1.0000
  H   H74       1.0  0.14785  0.59815  0.60782  1.0000
  H   H75       1.0  0.03831  0.49574  0.52838  1.0000
  S   S23       1.0  0.18932  0.53620  0.37277  1.0000
  H   H76       1.0  0.01697  0.50097  0.49347  1.0000
  S   S24       1.0  0.19282  0.58506  0.36650  1.0000
  C   C52       1.0  0.02247  0.60131  0.49147  1.0000
  H   H77       1.0  0.05121  0.61752  0.49384  1.0000
  C   C53       1.0  0.03979  0.60869  0.50567  1.0000
  C   C54       1.0  0.13602  0.51930  0.68354  1.0000
  C   C55       1.0  0.04213  0.60534  0.53556  1.0000
  H   H78       1.0  0.02875  0.59143  0.57385  1.0000
  H   H79       1.0  0.18145  0.67237  0.60350  1.0000
  C   C56       1.0  0.13766  0.65757  0.39893  1.0000
  C   C57       1.0  0.02707  0.59404  0.55070  1.0000
  H   H80       1.0  0.01535  0.52506  0.54483  1.0000
  H   H81       1.0  0.20212  0.62276  0.37620  1.0000
  Fe  Fe12      1.0  0.10091  0.48792  0.53809  1.0000
  S   S25       1.0  0.07532  0.48935  0.52295  1.0000
  H   H82       1.0  0.15934  0.48716  0.64373  1.0000
  H   H83       1.0  0.13587  0.47277  0.64390  1.0000
  S   S26       1.0  0.12722  0.49494  0.51558  1.0000
  C   C58       1.0  0.11457  0.49269  0.45682  1.0000
  C   C59       1.0  0.11688  0.49442  0.42596  1.0000
  H   H84       1.0  0.10124  0.48746  0.46517  1.0000
  C   C60       1.0  0.13005  0.46549  0.58527  1.0000
  C   C61       1.0  0.01448  0.43360  0.54330  1.0000
  H   H85       1.0  0.15102  0.46382  0.63178  1.0000
  H   H86       1.0  0.14078  0.50111  0.57795  1.0000
  Fe  Fe13      1.0  0.06077  0.46442  0.54854  1.0000
  S   S27       1.0  0.08637  0.46149  0.55985  1.0000
  Fe  Fe14      1.0  0.08888  0.47867  0.60127  1.0000
  S   S28       1.0  0.09874  0.47198  0.64536  1.0000
  S   S29       1.0  0.06195  0.47899  0.59188  1.0000
  H   H87       1.0  0.13217  0.45300  0.58391  1.0000
  H   H88       1.0  0.11762  0.46233  0.59750  1.0000
  C   C62       1.0  0.12947  0.49740  0.47667  1.0000
  H   H89       1.0  0.12742  0.46877  0.56214  1.0000
  S   S30       1.0  0.13620  0.50341  0.37571  1.0000
  C   C63       1.0  0.14224  0.49685  0.60088  1.0000
  N   N7        1.0  0.14559  0.48055  0.60033  1.0000
  C   C64       1.0  0.14813  0.47587  0.63124  1.0000
  H   H90       1.0  0.12966  0.49433  0.61197  1.0000
  H   H91       1.0  0.15325  0.50834  0.61328  1.0000
  C   C65       1.0  0.13409  0.50112  0.41468  1.0000
  C   C66       1.0  0.12224  0.50677  0.66444  1.0000
  C   C67       1.0  0.14669  0.50409  0.46541  1.0000
  C   C68       1.0  0.14901  0.50600  0.43456  1.0000
  H   H92       1.0  0.15829  0.50768  0.48059  1.0000
  H   H93       1.0  0.10524  0.49054  0.41073  1.0000
  Fe  Fe15      1.0  0.07742  0.50354  0.56680  1.0000
  S   S31       1.0  0.10436  0.50480  0.57999  1.0000
  H   H94       1.0  0.16017  0.48755  0.56045  1.0000
  C   C69       1.0  0.16184  0.48404  0.58388  1.0000
  H   H95       1.0  0.16481  0.47203  0.58299  1.0000
  H   H96       1.0  0.17378  0.49545  0.59456  1.0000
  H   H97       1.0  0.16231  0.51099  0.42614  1.0000
  Fe  Fe16      1.0  0.12512  0.65019  0.50844  1.0000
  C   C70       1.0  0.16382  0.64978  0.66129  1.0000
  S   S32       1.0  0.10040  0.62592  0.49100  1.0000
  H   H98       1.0  0.15858  0.57843  0.39793  1.0000
  H   H99       1.0  0.12031  0.54649  0.43954  1.0000
  C   C71       1.0  0.11479  0.48846  0.67048  1.0000
  C   C72       1.0  0.14605  0.66415  0.64017  1.0000
  H   H100      1.0  0.10767  0.55532  0.58882  1.0000
  H   H101      1.0  0.13662  0.66465  0.62321  1.0000
  H   H102      1.0  0.03544  0.52447  0.53163  1.0000
  H   H103      1.0  0.14187  0.53339  0.67849  1.0000
  H   H104      1.0  0.12351  0.64833  0.43912  1.0000
  C   C73       1.0  0.10625  0.55357  0.50958  1.0000
  C   C74       1.0  0.09552  0.54005  0.52805  1.0000
  H   H105      1.0  0.11810  0.55314  0.50083  1.0000
  H   H106      1.0  0.09912  0.52919  0.53330  1.0000
  H   H107      1.0  0.12623  0.53242  0.41516  1.0000
  Fe  Fe17      1.0  0.09090  0.62517  0.53774  1.0000
  S   S33       1.0  0.10416  0.60803  0.55481  1.0000
  S   S34       1.0  0.06309  0.61639  0.55582  1.0000
  S   S35       1.0  0.14015  0.63444  0.52359  1.0000
  Fe  Fe18      1.0  0.11507  0.61043  0.50943  1.0000
  S   S36       1.0  0.11747  0.58694  0.48674  1.0000
  Fe  Fe19      1.0  0.12807  0.63367  0.56758  1.0000
  S   S37       1.0  0.14546  0.63445  0.60855  1.0000
  S   S38       1.0  0.11442  0.65105  0.55383  1.0000
  N   N8        1.0  0.14816  0.55756  0.42931  1.0000
  H   H108      1.0  0.16453  0.54436  0.44393  1.0000
  H   H109      1.0  0.17513  0.56239  0.41920  1.0000
  H   H110      1.0  0.11751  0.51128  0.64496  1.0000
  C   C75       1.0  0.10505  0.56572  0.60135  1.0000
  C   C76       1.0  0.14581  0.56677  0.40272  1.0000
  C   C77       1.0  0.15195  0.65051  0.63866  1.0000
  H   H111      1.0  0.17544  0.66050  0.55183  1.0000
  H   H112      1.0  0.15542  0.56367  0.47602  1.0000
  C   C78       1.0  0.15254  0.67083  0.38603  1.0000
  H   H113      1.0  0.16847  0.63928  0.66035  1.0000
  C   C79       1.0  0.02723  0.49010  0.54393  1.0000
  C   C80       1.0  0.13516  0.65850  0.42959  1.0000
  C   C81       1.0  0.10221  0.56818  0.50412  1.0000
  C   C82       1.0  0.08084  0.54123  0.54098  1.0000
  C   C83       1.0  0.07630  0.55534  0.53421  1.0000
  C   C84       1.0  0.08693  0.56875  0.51561  1.0000
  H   H114      1.0  0.06495  0.55630  0.54411  1.0000
  H   H115      1.0  0.08353  0.57982  0.51075  1.0000
  C   C85       1.0  0.16212  0.55112  0.42417  1.0000
  H   H116      1.0  0.13539  0.57183  0.40582  1.0000
  H   H117      1.0  0.11791  0.56217  0.65548  1.0000
  H   H118      1.0  0.09415  0.55851  0.61657  1.0000
  H   H119      1.0  0.13132  0.55899  0.62743  1.0000
  H   H120      1.0  0.12784  0.64666  0.38509  1.0000
  H   H121      1.0  0.09973  0.57244  0.58492  1.0000
  H   H122      1.0  0.03075  0.52124  0.57011  1.0000
  H   H123      1.0  0.13876  0.57825  0.58345  1.0000
  C   C86       1.0  0.02442  0.51820  0.54711  1.0000
  C   C87       1.0  0.13533  0.58798  0.59631  1.0000
  N   N9        1.0  0.12144  0.57881  0.61772  1.0000
  H   H124      1.0  0.11230  0.59976  0.61860  1.0000
  H   H125      1.0  0.16665  0.58206  0.45223  1.0000
  C   C88       1.0  0.13104  0.54208  0.43478  1.0000
  H   H126      1.0  0.02073  0.60446  0.46866  1.0000
  H   H127      1.0  0.14351  0.57550  0.45984  1.0000
  H   H128      1.0  0.14170  0.55751  0.38257  1.0000
  C   C89       1.0  0.15371  0.57027  0.45550  1.0000
  H   H129      1.0  0.15813  0.54123  0.40487  1.0000
  C   C90       1.0  0.11728  0.59227  0.63409  1.0000
  C   C91       1.0  0.12809  0.56928  0.63905  1.0000
  H   H130      1.0  0.14048  0.57879  0.65182  1.0000
  H   H131      1.0  0.13072  0.59529  0.57988  1.0000
  H   H132      1.0  0.10680  0.58584  0.65035  1.0000
  H   H133      1.0  0.12940  0.60247  0.64654  1.0000
  H   H134      1.0  0.03362  0.49243  0.56685  1.0000
  C   C92       1.0  0.14725  0.67300  0.44754  1.0000
  H   H135      1.0  0.15843  0.63806  0.36894  1.0000
  H   H136      1.0  0.02039  0.47529  0.53927  1.0000
  H   H137      1.0  0.15256  0.66697  0.57625  1.0000
  S   S39       1.0  0.14353  0.67526  0.48566  1.0000
  H   H138      1.0  0.13464  0.60663  0.36572  1.0000
  H   H139      1.0  0.17429  0.62906  0.36158  1.0000
  C   C93       1.0  0.18101  0.67454  0.54408  1.0000
  H   H140      1.0  0.24544  0.55238  0.35444  1.0000
  H   H141      1.0  0.17411  0.67422  0.52207  1.0000
  H   H142      1.0  0.15085  0.59822  0.35660  1.0000
  H   H143      1.0  0.16914  0.51801  0.91759  1.0000
  C   C94       1.0  0.14228  0.51378  0.70922  1.0000
  H   H144      1.0  0.10336  0.65175  0.78355  1.0000
  C   C95       1.0  0.14632  0.67404  0.94278  1.0000
  H   H145      1.0  0.24011  0.56406  0.78733  1.0000
  H   H146      1.0  0.24932  0.58099  0.84973  1.0000
  S   S40       1.0  0.09884  0.63233  0.98856  1.0000
  H   H147      1.0  0.26223  0.57297  0.80473  1.0000
  N   N10       1.0  0.24958  0.59114  0.80587  1.0000
  Fe  Fe20      1.0  0.16542  0.51396  0.84208  1.0000
  H   H148      1.0  0.12405  0.64462  0.75300  1.0000
  C   C96       1.0  0.09034  0.66476  0.95416  1.0000
  C   C97       1.0  0.15634  0.51107  0.92738  1.0000
  C   C98       1.0  0.24084  0.58485  0.83417  1.0000
  H   H149      1.0  0.25494  0.50990  0.78932  1.0000
  C   C99       1.0  0.13514  0.65707  0.76287  1.0000
  C   C100      1.0  0.14146  0.49952  0.90950  1.0000
  H   H150      1.0  0.11340  0.48134  0.90906  1.0000
  C   C101      1.0  0.13457  0.49553  0.71566  1.0000
  C   C102      1.0  0.12332  0.49269  0.95345  1.0000
  S   S41       1.0  0.17345  0.50414  0.80009  1.0000
  H   H151      1.0  0.11057  0.48552  0.96330  1.0000
  H   H152      1.0  0.13925  0.49110  0.73536  1.0000
  C   C103      1.0  0.12498  0.49034  0.92271  1.0000
  H   H153      1.0  0.22778  0.57287  0.83037  1.0000
  C   C104      1.0  0.13822  0.50419  0.97136  1.0000
  S   S42       1.0  0.14276  0.49638  0.87062  1.0000
  H   H154      1.0  0.08540  0.66169  0.93042  1.0000
  C   C105      1.0  0.25536  0.54240  0.83772  1.0000
  H   H155      1.0  0.06444  0.67268  0.97500  1.0000
  H   H156      1.0  0.23793  0.59539  0.84571  1.0000
  H   H157      1.0  0.11621  0.55919  0.00745  1.0000
  S   S43       1.0  0.19963  0.54648  0.78945  1.0000
  N   N11       1.0  0.12895  0.67105  0.77026  1.0000
  H   H158      1.0  0.24640  0.54726  0.84762  1.0000
  S   S44       1.0  0.19383  0.53176  0.85796  1.0000
  Fe  Fe21      1.0  0.18956  0.55277  0.83178  1.0000
  S   S45       1.0  0.19773  0.58018  0.85384  1.0000
  Fe  Fe22      1.0  0.20180  0.52400  0.81433  1.0000
  H   H159      1.0  0.16633  0.52219  0.97184  1.0000
  S   S46       1.0  0.16078  0.53564  0.81870  1.0000
  S   S47       1.0  0.16021  0.53015  0.73158  1.0000
  H   H160      1.0  0.24404  0.60124  0.76466  1.0000
  H   H161      1.0  0.23504  0.60709  0.79678  1.0000
  S   S48       1.0  0.21175  0.64341  0.76610  1.0000
  S   S49       1.0  0.17811  0.66304  0.77561  1.0000
  S   S50       1.0  0.13703  0.50763  0.01022  1.0000
  C   C106      1.0  0.19976  0.59736  0.82949  1.0000
  C   C107      1.0  0.20521  0.61500  0.84096  1.0000
  C   C108      1.0  0.20816  0.62913  0.82168  1.0000
  C   C109      1.0  0.20605  0.62571  0.79082  1.0000
  C   C110      1.0  0.20033  0.60801  0.77940  1.0000
  C   C111      1.0  0.19686  0.59380  0.79871  1.0000
  H   H162      1.0  0.20738  0.61782  0.86477  1.0000
  H   H163      1.0  0.21262  0.64276  0.83063  1.0000
  H   H164      1.0  0.19856  0.60529  0.75555  1.0000
  H   H165      1.0  0.19231  0.58019  0.78969  1.0000
  Fe  Fe23      1.0  0.10778  0.61563  0.01781  1.0000
  H   H166      1.0  0.08915  0.67562  0.01043  1.0000
  H   H167      1.0  0.01511  0.41647  0.01279  1.0000
  C   C112      1.0  0.12094  0.48294  0.69628  1.0000
  C   C113      1.0  0.13638  0.65749  0.92765  1.0000
  C   C114      1.0  0.14018  0.65460  0.89826  1.0000
  H   H168      1.0  0.12041  0.66069  0.81321  1.0000
  H   H169      1.0  0.12565  0.64695  0.93845  1.0000
  H   H170      1.0  0.13227  0.64182  0.88664  1.0000
  Fe  Fe24      1.0  0.20656  0.66714  0.78098  1.0000
  Fe  Fe25      1.0  0.17083  0.52731  0.77797  1.0000
  Fe  Fe26      1.0  0.12358  0.65561  0.00723  1.0000
  C   C115      1.0  0.15421  0.66803  0.88388  1.0000
  N   N12       1.0  0.15009  0.55735  0.90113  1.0000
  C   C116      1.0  0.15223  0.56854  0.87492  1.0000
  C   C117      1.0  0.13589  0.53903  0.89425  1.0000
  C   C118      1.0  0.14508  0.56555  0.92672  1.0000
  C   C119      1.0  0.16720  0.55625  0.90871  1.0000
  C   C120      1.0  0.15470  0.51338  0.95813  1.0000
  H   H171      1.0  0.25859  0.58052  0.76900  1.0000
  H   H172      1.0  0.14578  0.66184  0.74638  1.0000
  H   H173      1.0  0.12286  0.53930  0.88764  1.0000
  H   H174      1.0  0.13944  0.53214  0.87568  1.0000
  H   H175      1.0  0.13366  0.53039  0.91385  1.0000
  H   H176      1.0  0.14334  0.55741  0.94688  1.0000
  H   H177      1.0  0.13221  0.56658  0.92179  1.0000
  H   H178      1.0  0.15553  0.57937  0.93256  1.0000
  H   H179      1.0  0.16633  0.54855  0.92911  1.0000
  H   H180      1.0  0.17844  0.56987  0.91263  1.0000
  H   H181      1.0  0.17098  0.54945  0.89032  1.0000
  H   H182      1.0  0.17924  0.66205  0.70224  1.0000
  C   C121      1.0  0.25277  0.57657  0.79108  1.0000
  H   H183      1.0  0.22473  0.58460  0.78078  1.0000
  C   C122      1.0  0.24841  0.52770  0.81726  1.0000
  H   H184      1.0  0.11017  0.66368  0.73236  1.0000
  H   H185      1.0  0.15611  0.56279  0.85527  1.0000
  C   C123      1.0  0.23787  0.59624  0.78615  1.0000
  H   H186      1.0  0.03028  0.64762  0.00810  1.0000
  H   H187      1.0  0.16302  0.58239  0.87924  1.0000
  H   H188      1.0  0.13962  0.56972  0.86846  1.0000
  H   H189      1.0  0.14074  0.65323  0.78311  1.0000
  C   C124      1.0  0.02519  0.63335  0.01170  1.0000
  S   S51       1.0  0.22520  0.51666  0.80633  1.0000
  H   H190      1.0  0.10348  0.66394  0.95605  1.0000
  S   S52       1.0  0.11005  0.59074  0.00108  1.0000
  H   H191      1.0  0.08071  0.65392  0.96751  1.0000
  S   S53       1.0  0.15752  0.66392  0.84621  1.0000
  C   C125      1.0  0.11499  0.66415  0.79230  1.0000
  C   C126      1.0  0.26020  0.52130  0.80510  1.0000
  H   H192      1.0  0.11524  0.46882  0.70125  1.0000
  H   H193      1.0  0.10998  0.67431  0.79848  1.0000
  C   C127      1.0  0.12161  0.67564  0.74282  1.0000
  C   C128      1.0  0.16440  0.67656  0.68626  1.0000
  C   C129      1.0  0.03714  0.62587  0.01919  1.0000
  H   H194      1.0  0.20234  0.74709  0.28381  1.0000
  C   C130      1.0  0.22275  0.74037  0.24396  1.0000
  C   C131      1.0  0.23177  0.77117  0.26079  1.0000
  H   H195      1.0  0.23403  0.76799  0.28418  1.0000
  Fe  Fe27      1.0  0.18870  0.69401  0.25627  1.0000
  S   S54       1.0  0.21714  0.69745  0.26389  1.0000
  S   S55       1.0  0.17935  0.70152  0.21244  1.0000
  Fe  Fe28      1.0  0.21681  0.71086  0.30782  1.0000
  S   S56       1.0  0.23841  0.73737  0.32793  1.0000
  S   S57       1.0  0.18901  0.70917  0.29878  1.0000
  C   C132      1.0  0.20057  0.75002  0.26013  1.0000
  H   H196      1.0  0.19574  0.76079  0.26013  1.0000
  H   H197      1.0  0.16482  0.70319  0.15371  1.0000
  H   H198      1.0  0.24482  0.77544  0.25001  1.0000
  H   H199      1.0  0.22834  0.78288  0.26177  1.0000
  C   C133      1.0  0.21478  0.76001  0.21378  1.0000
  H   H200      1.0  0.23566  0.74404  0.23307  1.0000
  H   H201      1.0  0.22429  0.73620  0.26688  1.0000
  C   C134      1.0  0.16023  0.68914  0.15859  1.0000
  H   H202      1.0  0.21253  0.72838  0.23140  1.0000
  H   H203      1.0  0.20403  0.74826  0.20125  1.0000
  H   H204      1.0  0.22724  0.76398  0.20140  1.0000
  H   H205      1.0  0.21077  0.77135  0.21333  1.0000
  H   H206      1.0  0.18971  0.73762  0.24932  1.0000
  N   N13       1.0  0.21747  0.75544  0.24465  1.0000
  H   H207      1.0  0.25496  0.73829  0.27089  1.0000
  S   S58       1.0  0.20691  0.68509  0.33308  1.0000
  C   C135      1.0  0.25770  0.75352  0.31178  1.0000
  Fe  Fe29      1.0  0.17925  0.68258  0.32066  1.0000
  H   H208      1.0  0.14502  0.67957  0.11643  1.0000
  C   C136      1.0  0.16545  0.68440  0.18606  1.0000
  C   C137      1.0  0.26248  0.75093  0.28314  1.0000
  C   C138      1.0  0.16223  0.68621  0.43473  1.0000
  H   H209      1.0  0.19546  0.67867  0.54033  1.0000
  H   H210      1.0  0.15212  0.68184  0.54795  1.0000
  H   H211      1.0  0.17162  0.69751  0.44842  1.0000
  H   H212      1.0  0.18450  0.71495  0.57099  1.0000
  H   H213      1.0  0.20100  0.71017  0.55229  1.0000
  H   H214      1.0  0.17999  0.70605  0.53313  1.0000
  H   H215      1.0  0.14795  0.68787  0.66467  1.0000
  C   C139      1.0  0.18637  0.70535  0.55515  1.0000
  H   H216      1.0  0.20180  0.69070  0.59355  1.0000
  N   N14       1.0  0.17842  0.68684  0.56591  1.0000
  C   C140      1.0  0.15905  0.68110  0.56928  1.0000
  H   H217      1.0  0.17645  0.69536  0.39440  1.0000
  C   C141      1.0  0.16501  0.68501  0.40413  1.0000
  H   H218      1.0  0.15650  0.68966  0.58630  1.0000
  H   H219      1.0  0.18506  0.69506  0.61232  1.0000
  C   C142      1.0  0.18710  0.68626  0.59505  1.0000
  C   C143      1.0  0.15238  0.67722  0.66378  1.0000
  C   C144      1.0  0.16435  0.68450  0.89914  1.0000
  S   S59       1.0  0.17224  0.69326  0.71542  1.0000
  Fe  Fe30      1.0  0.18852  0.68972  0.75483  1.0000
  S   S60       1.0  0.21708  0.69304  0.75666  1.0000
  Fe  Fe31      1.0  0.21932  0.70621  0.80210  1.0000
  S   S61       1.0  0.24479  0.72977  0.82134  1.0000
  S   S62       1.0  0.19139  0.70500  0.79854  1.0000
  Fe  Fe32      1.0  0.18246  0.67812  0.81964  1.0000
  N   N15       1.0  0.09212  0.68266  0.96453  1.0000
  H   H220      1.0  0.25746  0.77844  0.75058  1.0000
  H   H221      1.0  0.06903  0.68057  0.93790  1.0000
  H   H222      1.0  0.07519  0.69644  0.96921  1.0000
  H   H223      1.0  0.10081  0.69446  0.92242  1.0000
  H   H224      1.0  0.17512  0.69498  0.88828  1.0000
  H   H225      1.0  0.16802  0.70040  0.93989  1.0000
  H   H226      1.0  0.23803  0.74921  0.77186  1.0000
  C   C145      1.0  0.25188  0.75637  0.77989  1.0000
  H   H227      1.0  0.13999  0.69813  0.78914  1.0000
  H   H228      1.0  0.11860  0.69634  0.94857  1.0000
  H   H229      1.0  0.11689  0.68624  0.74743  1.0000
  C   C146      1.0  0.16027  0.68755  0.92836  1.0000
  C   C147      1.0  0.09858  0.68600  0.99616  1.0000
  C   C148      1.0  0.25864  0.74938  0.80287  1.0000
  C   C149      1.0  0.07442  0.68316  0.96145  1.0000
  H   H230      1.0  0.10699  0.71032  0.95378  1.0000
  C   C150      1.0  0.10516  0.69659  0.94648  1.0000
  H   H231      1.0  0.11192  0.68574  0.99933  1.0000
  C   C151      1.0  0.14416  0.68732  0.78312  1.0000
  H   H232      1.0  0.10002  0.69935  0.00485  1.0000
  H   H233      1.0  0.25866  0.79954  0.85697  1.0000
  S   S63       1.0  0.21048  0.68018  0.82668  1.0000
  H   H234      1.0  0.15498  0.69293  0.76720  1.0000
  S   S64       1.0  0.14099  0.67858  0.97897  1.0000
  H   H235      1.0  0.13203  0.68087  0.72596  1.0000
  H   H236      1.0  0.15024  0.68435  0.80361  1.0000
  C   C152      1.0  0.43715  0.01327  0.02176  1.0000
  S   S65       1.0  0.47349  0.10454  0.03620  1.0000
  H   H237      1.0  0.43870  0.33548  0.30888  1.0000
  H   H238      1.0  0.50139  0.20270  0.25622  1.0000
  H   H239      1.0  0.48561  0.18886  0.22740  1.0000
  Fe  Fe33      1.0  0.48344  0.10898  0.08481  1.0000
  C   C153      1.0  0.44701  0.34358  0.32861  1.0000
  H   H240      1.0  0.48412  0.07788  0.15285  1.0000
  S   S66       1.0  0.47994  0.08042  0.08906  1.0000
  S   S67       1.0  0.47463  0.12094  0.12393  1.0000
  C   C154      1.0  0.49532  0.10306  0.19651  1.0000
  H   H241      1.0  0.50517  0.23495  0.19770  1.0000
  C   C155      1.0  0.43334  0.01426  0.08305  1.0000
  Fe  Fe34      1.0  0.47277  0.07670  0.04009  1.0000
  C   C156      1.0  0.49060  0.13677  0.14982  1.0000
  H   H242      1.0  0.50677  0.18777  0.23307  1.0000
  C   C157      1.0  0.44213  0.03041  0.06828  1.0000
  C   C158      1.0  0.49835  0.15068  0.20025  1.0000
  H   H243      1.0  0.50127  0.25521  0.29698  1.0000
  H   H244      1.0  0.44702  0.04319  0.08058  1.0000
  H   H245      1.0  0.47176  0.13173  0.18431  1.0000
  H   H246      1.0  0.49441  0.15209  0.22251  1.0000
  C   C159      1.0  0.48555  0.13916  0.17858  1.0000
  H   H247      1.0  0.43162  0.01476  0.10675  1.0000
  H   H248      1.0  0.47429  0.34131  0.06463  1.0000
  H   H249      1.0  0.45925  0.32793  0.20402  1.0000
  H   H250      1.0  0.46288  0.32602  0.29863  1.0000
  H   H251      1.0  0.48491  0.33874  0.31474  1.0000
  Fe  Fe35      1.0  0.50260  0.11350  0.02609  1.0000
  H   H252      1.0  0.44770  0.31844  0.03630  1.0000
  S   S68       1.0  0.51218  0.32582  0.30953  1.0000
  C   C160      1.0  0.49938  0.22382  0.21331  1.0000
  S   S69       1.0  0.50120  0.08556  0.02688  1.0000
  C   C161      1.0  0.50838  0.14659  0.14257  1.0000
  C   C162      1.0  0.50591  0.20341  0.18143  1.0000
  H   H253      1.0  0.49149  0.19547  0.17463  1.0000
  H   H254      1.0  0.50311  0.11698  0.20610  1.0000
  H   H255      1.0  0.50379  0.07373  0.15229  1.0000
  H   H256      1.0  0.50104  0.23009  0.23619  1.0000
  H   H257      1.0  0.50359  0.10917  0.13921  1.0000
  H   H258      1.0  0.48473  0.21659  0.20760  1.0000
  C   C163      1.0  0.44379  0.03002  0.03746  1.0000
  S   S70       1.0  0.51086  0.18015  0.29734  1.0000
  H   H259      1.0  0.51191  0.21388  0.16478  1.0000
  S   S71       1.0  0.48819  0.33974  0.24682  1.0000
  C   C164      1.0  0.49583  0.07846  0.16677  1.0000
  H   H260      1.0  0.44447  0.33990  0.07330  1.0000
  Fe  Fe36      1.0  0.50823  0.09106  0.07565  1.0000
  H   H261      1.0  0.49049  0.06865  0.18459  1.0000
  C   C165      1.0  0.50013  0.19707  0.23305  1.0000
  N   N16       1.0  0.50823  0.21151  0.21188  1.0000
  H   H262      1.0  0.48409  0.10324  0.18208  1.0000
  C   C166      1.0  0.47048  0.33433  0.31872  1.0000
  C   C167      1.0  0.46977  0.33974  0.19541  1.0000
  H   H263      1.0  0.46744  0.32556  0.33820  1.0000
  H   H264      1.0  0.48931  0.09415  0.21521  1.0000
  H   H265      1.0  0.44308  0.33498  0.34828  1.0000
  H   H266      1.0  0.45418  0.33873  0.15540  1.0000
  N   N17       1.0  0.50675  0.09686  0.17934  1.0000
  S   S72       1.0  0.51236  0.11973  0.07436  1.0000
  H   H267      1.0  0.51238  0.14526  0.12038  1.0000
  H   H268      1.0  0.51252  0.19406  0.17994  1.0000
  S   S73       1.0  0.48791  0.14330  0.49698  1.0000
  H   H269      1.0  0.45131  0.04955  0.58177  1.0000
  C   C168      1.0  0.49521  0.14494  0.45999  1.0000
  C   C169      1.0  0.49722  0.13947  0.66769  1.0000
  C   C170      1.0  0.50807  0.14885  0.40166  1.0000
  H   H270      1.0  0.49590  0.11904  0.45785  1.0000
  C   C171      1.0  0.46046  0.03679  0.54824  1.0000
  C   C172      1.0  0.43742  0.02048  0.58251  1.0000
  C   C173      1.0  0.44996  0.03687  0.57191  1.0000
  H   H271      1.0  0.42566  0.32947  0.64317  1.0000
  H   H272      1.0  0.42921  0.02072  0.60055  1.0000
  Fe  Fe37      1.0  0.48462  0.08608  0.55013  1.0000
  S   S74       1.0  0.46981  0.10341  0.55802  1.0000
  S   S75       1.0  0.47613  0.05697  0.53336  1.0000
  H   H273      1.0  0.50054  0.04009  0.55575  1.0000
  H   H274      1.0  0.50828  0.30536  0.38202  1.0000
  Fe  Fe38      1.0  0.48982  0.11578  0.59733  1.0000
  S   S76       1.0  0.48367  0.12010  0.64511  1.0000
  Fe  Fe39      1.0  0.49081  0.12410  0.53070  1.0000
  S   S77       1.0  0.50301  0.09703  0.59099  1.0000
  H   H275      1.0  0.49571  0.17118  0.45463  1.0000
  C   C174      1.0  0.49829  0.16055  0.44428  1.0000
  H   H276      1.0  0.51105  0.15551  0.63161  1.0000
  S   S78       1.0  0.50399  0.10601  0.52007  1.0000
  C   C175      1.0  0.50955  0.15513  0.65540  1.0000
  H   H277      1.0  0.49655  0.34099  0.44766  1.0000
  C   C176      1.0  0.49845  0.13124  0.44625  1.0000
  C   C177      1.0  0.50486  0.16260  0.41536  1.0000
  C   C178      1.0  0.45848  0.02016  0.53567  1.0000
  H   H278      1.0  0.46646  0.01995  0.51724  1.0000
  S   S79       1.0  0.50928  0.13762  0.57082  1.0000
  H   H279      1.0  0.51247  0.26957  0.38699  1.0000
  H   H280      1.0  0.50725  0.17470  0.40358  1.0000
  H   H281      1.0  0.45346  0.33684  0.61599  1.0000
  H   H282      1.0  0.50718  0.29339  0.41548  1.0000
  C   C179      1.0  0.50468  0.13314  0.41720  1.0000
  H   H283      1.0  0.42646  0.33794  0.59032  1.0000
  H   H284      1.0  0.50691  0.12234  0.40667  1.0000
  S   S80       1.0  0.50936  0.34276  0.38861  1.0000
  H   H285      1.0  0.50844  0.05422  0.50780  1.0000
  H   H286      1.0  0.50759  0.06179  0.57365  1.0000
  H   H287      1.0  0.51234  0.28139  0.35394  1.0000
  C   C180      1.0  0.51240  0.05161  0.56641  1.0000
  C   C181      1.0  0.50773  0.19206  0.92704  1.0000
  H   H288      1.0  0.50643  0.23007  0.90052  1.0000
  C   C182      1.0  0.49395  0.13834  0.91890  1.0000
  H   H289      1.0  0.43843  0.01288  0.99792  1.0000
  H   H290      1.0  0.48894  0.20738  0.95412  1.0000
  C   C183      1.0  0.51240  0.22168  0.91146  1.0000
  H   H291      1.0  0.48567  0.20307  0.87112  1.0000
  H   H292      1.0  0.48213  0.18093  0.88282  1.0000
  H   H293      1.0  0.48706  0.12288  0.95872  1.0000
  H   H294      1.0  0.48030  0.13262  0.90955  1.0000
  H   H295      1.0  0.45815  0.32655  0.00190  1.0000
  H   H296      1.0  0.47734  0.20984  0.92100  1.0000
  C   C184      1.0  0.49774  0.13279  0.94681  1.0000
  H   H297      1.0  0.48471  0.21262  0.73365  1.0000
  C   C185      1.0  0.51244  0.23616  0.70532  1.0000
  H   H298      1.0  0.47388  0.18779  0.93243  1.0000
  S   S81       1.0  0.50210  0.15833  0.86862  1.0000
  N   N18       1.0  0.51153  0.23374  0.73780  1.0000
  C   C186      1.0  0.49530  0.13930  0.69867  1.0000
  H   H299      1.0  0.49693  0.21323  0.76790  1.0000
  H   H300      1.0  0.43620  0.32524  0.00781  1.0000
  N   N19       1.0  0.49911  0.20275  0.91303  1.0000
  H   H301      1.0  0.49924  0.23426  0.69498  1.0000
  H   H302      1.0  0.50521  0.24533  0.77654  1.0000
  H   H303      1.0  0.49303  0.24575  0.74278  1.0000
  H   H304      1.0  0.51064  0.26811  0.84801  1.0000
  H   H305      1.0  0.49803  0.17772  0.92865  1.0000
  C   C187      1.0  0.50557  0.15460  0.71720  1.0000
  S   S82       1.0  0.45304  0.05011  0.01765  1.0000
  C   C188      1.0  0.50767  0.15116  0.90303  1.0000
  C   C189      1.0  0.49822  0.21533  0.74356  1.0000
  C   C190      1.0  0.48415  0.20193  0.93096  1.0000
  H   H306      1.0  0.50393  0.15426  0.74098  1.0000
  C   C191      1.0  0.49210  0.19527  0.88261  1.0000
  C   C192      1.0  0.50625  0.24705  0.75205  1.0000
  S   S83       1.0  0.51166  0.19302  0.80653  1.0000
  H   H307      1.0  0.50217  0.20495  0.73402  1.0000
  H   H308      1.0  0.48575  0.12725  0.70835  1.0000
  H   H309      1.0  0.50303  0.19555  0.86865  1.0000
  C   C193      1.0  0.44957  0.32847  0.01893  1.0000
  H   H310      1.0  0.37074  0.42266  0.16202  1.0000
  C   C194      1.0  0.40691  0.59982  0.32431  1.0000
  H   H311      1.0  0.36870  0.48610  0.22059  1.0000
  Fe  Fe40      1.0  0.38861  0.49728  0.11518  1.0000
  S   S84       1.0  0.41588  0.49732  0.11649  1.0000
  H   H312      1.0  0.41034  0.43910  0.11503  1.0000
  Fe  Fe41      1.0  0.40818  0.48461  0.07060  1.0000
  H   H313      1.0  0.38168  0.45497  0.17821  1.0000
  S   S85       1.0  0.38012  0.48299  0.06991  1.0000
  Fe  Fe42      1.0  0.49103  0.39380  0.09838  1.0000
  H   H314      1.0  0.44446  0.58982  0.07916  1.0000
  C   C195      1.0  0.27220  0.55378  0.35178  1.0000
  Fe  Fe43      1.0  0.49205  0.43055  0.08375  1.0000
  S   S86       1.0  0.48543  0.45437  0.09280  1.0000
  H   H315      1.0  0.41992  0.44630  0.15227  1.0000
  S   S87       1.0  0.47558  0.40259  0.06463  1.0000
  C   C196      1.0  0.42554  0.60891  0.32200  1.0000
  C   C197      1.0  0.43274  0.45850  0.06705  1.0000
  C   C198      1.0  0.46494  0.45547  0.08258  1.0000
  C   C199      1.0  0.46299  0.47126  0.08988  1.0000
  C   C200      1.0  0.44699  0.47279  0.08217  1.0000
  H   H316      1.0  0.47394  0.48240  0.10156  1.0000
  H   H317      1.0  0.44571  0.48504  0.08792  1.0000
  C   C201      1.0  0.48015  0.36116  0.15603  1.0000
  C   C202      1.0  0.43465  0.44267  0.05980  1.0000
  C   C203      1.0  0.39502  0.45698  0.17030  1.0000
  Fe  Fe44      1.0  0.39223  0.51067  0.05098  1.0000
  H   H318      1.0  0.50699  0.38207  0.16356  1.0000
  C   C204      1.0  0.45774  0.62451  0.09876  1.0000
  H   H319      1.0  0.38273  0.41610  0.13521  1.0000
  S   S88       1.0  0.30637  0.55571  0.35053  1.0000
  H   H320      1.0  0.36869  0.44495  0.12726  1.0000
  S   S89       1.0  0.39806  0.52473  0.09655  1.0000
  C   C205      1.0  0.47097  0.36130  0.29752  1.0000
  C   C206      1.0  0.47690  0.36061  0.35051  1.0000
  H   H321      1.0  0.44341  0.35505  0.33254  1.0000
  Fe  Fe45      1.0  0.32794  0.54673  0.33708  1.0000
  C   C207      1.0  0.36769  0.49990  0.18074  1.0000
  C   C208      1.0  0.38434  0.42578  0.15407  1.0000
  H   H322      1.0  0.44165  0.59385  0.04065  1.0000
  H   H323      1.0  0.47695  0.60751  0.07771  1.0000
  C   C209      1.0  0.36542  0.49642  0.21117  1.0000
  C   C210      1.0  0.35862  0.50600  0.22942  1.0000
  N   N20       1.0  0.39322  0.44456  0.14478  1.0000
  Fe  Fe46      1.0  0.48256  0.65793  0.21135  1.0000
  H   H324      1.0  0.48532  0.57167  0.09460  1.0000
  C   C211      1.0  0.45068  0.44115  0.06749  1.0000
  Fe  Fe47      1.0  0.49790  0.66701  0.27556  1.0000
  C   C212      1.0  0.36332  0.51319  0.16875  1.0000
  H   H325      1.0  0.40180  0.47129  0.16409  1.0000
  H   H326      1.0  0.46910  0.63802  0.10310  1.0000
  H   H327      1.0  0.45203  0.42895  0.06172  1.0000
  C   C213      1.0  0.48281  0.57891  0.04935  1.0000
  C   C214      1.0  0.41120  0.44816  0.13443  1.0000
  H   H328      1.0  0.42929  0.59938  0.06810  1.0000
  S   S90       1.0  0.41954  0.51096  0.04805  1.0000
  H   H329      1.0  0.39225  0.42319  0.17249  1.0000
  H   H330      1.0  0.38862  0.46131  0.11277  1.0000
  H   H331      1.0  0.35198  0.53208  0.17698  1.0000
  S   S91       1.0  0.41215  0.45966  0.05796  1.0000
  H   H332      1.0  0.45941  0.61540  0.11540  1.0000
  H   H333      1.0  0.41822  0.46218  0.12698  1.0000
  H   H334      1.0  0.40301  0.45519  0.18941  1.0000
  C   C215      1.0  0.38229  0.44731  0.12026  1.0000
  S   S92       1.0  0.37489  0.48663  0.15800  1.0000
  H   H335      1.0  0.38082  0.43836  0.10038  1.0000
  S   S93       1.0  0.47519  0.36757  0.12052  1.0000
  H   H336      1.0  0.35668  0.50303  0.25271  1.0000
  C   C216      1.0  0.27441  0.52886  0.32563  1.0000
  C   C217      1.0  0.47110  0.57673  0.02471  1.0000
  H   H337      1.0  0.48546  0.36629  0.29312  1.0000
  C   C218      1.0  0.47446  0.61680  0.06243  1.0000
  H   H338      1.0  0.45419  0.62504  0.02323  1.0000
  C   C219      1.0  0.35354  0.51873  0.21709  1.0000
  C   C220      1.0  0.35602  0.52236  0.18676  1.0000
  H   H339      1.0  0.43182  0.54989  0.05464  1.0000
  C   C221      1.0  0.44249  0.59939  0.06376  1.0000
  Fe  Fe48      1.0  0.45962  0.66149  0.26124  1.0000
  S   S94       1.0  0.47385  0.64398  0.25413  1.0000
  S   S95       1.0  0.43073  0.65173  0.27305  1.0000
  H   H340      1.0  0.49698  0.58691  0.04804  1.0000
  H   H341      1.0  0.51190  0.67138  0.15907  1.0000
  H   H342      1.0  0.43423  0.60362  0.33243  1.0000
  H   H343      1.0  0.46541  0.64366  0.04945  1.0000
  H   H344      1.0  0.42368  0.43155  0.04812  1.0000
  S   S96       1.0  0.36660  0.53296  0.31997  1.0000
  H   H345      1.0  0.44153  0.63071  0.05003  1.0000
  Fe  Fe49      1.0  0.34469  0.53291  0.28878  1.0000
  Fe  Fe50      1.0  0.49854  0.40701  0.03537  1.0000
  C   C222      1.0  0.49962  0.36388  0.20027  1.0000
  S   S97       1.0  0.34840  0.56072  0.30340  1.0000
  H   H346      1.0  0.45183  0.36296  0.06474  1.0000
  H   H347      1.0  0.38134  0.59984  0.31259  1.0000
  C   C223      1.0  0.45789  0.55944  0.07735  1.0000
  S   S98       1.0  0.47986  0.63917  0.17165  1.0000
  Fe  Fe51      1.0  0.36916  0.55999  0.33635  1.0000
  S   S99       1.0  0.50559  0.42140  0.12004  1.0000
  N   N21       1.0  0.45727  0.61762  0.06793  1.0000
  C   C224      1.0  0.49780  0.64296  0.14836  1.0000
  C   C225      1.0  0.49660  0.37027  0.17242  1.0000
  S   S100      1.0  0.32286  0.51891  0.32050  1.0000
  S   S101      1.0  0.34356  0.53010  0.23826  1.0000
  H   H348      1.0  0.48172  0.36446  0.05697  1.0000
  C   C226      1.0  0.45270  0.56655  0.02687  1.0000
  C   C227      1.0  0.44608  0.55781  0.05310  1.0000
  N   N22       1.0  0.46634  0.34997  0.32385  1.0000
  C   C228      1.0  0.42178  0.63175  0.29278  1.0000
  C   C229      1.0  0.40315  0.62269  0.29518  1.0000
  C   C230      1.0  0.39571  0.60667  0.31067  1.0000
  C   C231      1.0  0.28283  0.54540  0.34155  1.0000
  H   H349      1.0  0.44518  0.62578  0.10353  1.0000
  C   C232      1.0  0.43296  0.62475  0.30608  1.0000
  H   H350      1.0  0.39444  0.62807  0.28503  1.0000
  C   C233      1.0  0.45443  0.62980  0.04671  1.0000
  H   H351      1.0  0.36484  0.51585  0.14530  1.0000
  H   H352      1.0  0.44732  0.63168  0.30444  1.0000
  N   N23       1.0  0.39749  0.57124  0.23661  1.0000
  C   C234      1.0  0.38324  0.57350  0.21862  1.0000
  C   C235      1.0  0.40310  0.55873  0.22055  1.0000
  C   C236      1.0  0.39053  0.56378  0.26549  1.0000
  C   C237      1.0  0.41300  0.58892  0.24186  1.0000
  H   H353      1.0  0.37840  0.58254  0.23040  1.0000
  H   H354      1.0  0.37138  0.56039  0.21408  1.0000
  H   H355      1.0  0.38801  0.57924  0.19674  1.0000
  H   H356      1.0  0.40830  0.56380  0.19848  1.0000
  H   H357      1.0  0.41381  0.55668  0.23353  1.0000
  H   H358      1.0  0.39166  0.54524  0.21640  1.0000
  H   H359      1.0  0.40102  0.56250  0.28031  1.0000
  H   H360      1.0  0.37920  0.55020  0.26234  1.0000
  H   H361      1.0  0.38547  0.57247  0.27771  1.0000
  H   H362      1.0  0.40905  0.59871  0.25338  1.0000
  H   H363      1.0  0.41887  0.59483  0.22060  1.0000
  H   H364      1.0  0.42381  0.58784  0.25616  1.0000
  S   S102      1.0  0.44979  0.54727  0.10902  1.0000
  Fe  Fe52      1.0  0.42449  0.52347  0.09431  1.0000
  H   H365      1.0  0.28237  0.52226  0.31746  1.0000
  H   H366      1.0  0.48737  0.61505  0.13364  1.0000
  H   H367      1.0  0.49153  0.36565  0.34763  1.0000
  C   C238      1.0  0.49776  0.62846  0.13119  1.0000
  H   H368      1.0  0.48599  0.63028  0.06572  1.0000
  C   C239      1.0  0.47620  0.57034  0.07577  1.0000
  H   H369      1.0  0.46346  0.35358  0.27690  1.0000
  S   S103      1.0  0.39820  0.58007  0.34462  1.0000
  H   H370      1.0  0.46804  0.37325  0.30043  1.0000
  H   H371      1.0  0.47466  0.61188  0.03924  1.0000
  C   C240      1.0  0.44605  0.34905  0.05456  1.0000
  H   H372      1.0  0.50941  0.62597  0.21507  1.0000
  H   H373      1.0  0.51230  0.37085  0.21279  1.0000
  C   C241      1.0  0.51107  0.63116  0.11075  1.0000
  H   H374      1.0  0.51196  0.64808  0.20648  1.0000
  S   S104      1.0  0.46612  0.67354  0.21656  1.0000
  C   C242      1.0  0.48611  0.34854  0.21181  1.0000
  H   H375      1.0  0.43249  0.34621  0.04472  1.0000
  C   C243      1.0  0.47544  0.35070  0.04645  1.0000
  H   H376      1.0  0.48483  0.34966  0.03019  1.0000
  N   N24       1.0  0.45775  0.34702  0.03203  1.0000
  C   C244      1.0  0.46688  0.34588  0.16776  1.0000
  H   H377      1.0  0.51083  0.64178  0.24435  1.0000
  H   H378      1.0  0.51090  0.61990  0.09755  1.0000
  C   C245      1.0  0.51172  0.66010  0.14593  1.0000
  H   H379      1.0  0.46988  0.56922  0.57904  1.0000
  C   C246      1.0  0.40238  0.46088  0.67784  1.0000
  S   S105      1.0  0.40711  0.48912  0.53033  1.0000
  H   H380      1.0  0.41038  0.53298  0.48675  1.0000
  Fe  Fe53      1.0  0.49499  0.40236  0.52318  1.0000
  S   S106      1.0  0.48516  0.42340  0.53510  1.0000
  H   H381      1.0  0.40276  0.53756  0.45135  1.0000
  C   C247      1.0  0.39677  0.40991  0.56834  1.0000
  C   C248      1.0  0.40737  0.40039  0.57086  1.0000
  H   H382      1.0  0.38232  0.40265  0.56798  1.0000
  H   H383      1.0  0.40095  0.38592  0.57245  1.0000
  C   C249      1.0  0.36707  0.50745  0.66765  1.0000
  N   N25       1.0  0.39002  0.44484  0.65978  1.0000
  H   H384      1.0  0.44640  0.62072  0.43395  1.0000
  H   H385      1.0  0.47398  0.35240  0.37072  1.0000
  C   C250      1.0  0.50084  0.35470  0.44087  1.0000
  C   C251      1.0  0.50803  0.35948  0.41277  1.0000
  C   C252      1.0  0.50545  0.37545  0.65781  1.0000
  S   S107      1.0  0.50513  0.37507  0.61835  1.0000
  H   H386      1.0  0.48583  0.64810  0.43359  1.0000
  C   C253      1.0  0.35500  0.51172  0.68390  1.0000
  C   C254      1.0  0.36086  0.49298  0.46744  1.0000
  C   C255      1.0  0.35380  0.48981  0.43768  1.0000
  H   H387      1.0  0.48781  0.62124  0.62194  1.0000
  H   H388      1.0  0.36120  0.48204  0.48008  1.0000
  H   H389      1.0  0.34873  0.47637  0.42756  1.0000
  H   H390      1.0  0.49478  0.63197  0.42815  1.0000
  S   S108      1.0  0.41784  0.48636  0.60102  1.0000
  H   H391      1.0  0.39209  0.50571  0.43360  1.0000
  Fe  Fe54      1.0  0.39709  0.46926  0.56656  1.0000
  S   S109      1.0  0.38987  0.43937  0.56406  1.0000
  S   S110      1.0  0.37628  0.47882  0.58022  1.0000
  Fe  Fe55      1.0  0.49708  0.39309  0.58922  1.0000
  S   S111      1.0  0.48792  0.41355  0.60589  1.0000
  H   H392      1.0  0.27910  0.49290  0.43474  1.0000
  Fe  Fe56      1.0  0.46764  0.40382  0.56707  1.0000
  S   S112      1.0  0.43821  0.39591  0.57477  1.0000
  C   C256      1.0  0.38145  0.50575  0.68253  1.0000
  S   S113      1.0  0.47554  0.38179  0.55216  1.0000
  C   C257      1.0  0.50430  0.38521  0.45155  1.0000
  C   C258      1.0  0.40460  0.42863  0.56626  1.0000
  C   C259      1.0  0.42608  0.40930  0.57088  1.0000
  C   C260      1.0  0.43417  0.42814  0.56877  1.0000
  C   C261      1.0  0.42342  0.43782  0.56669  1.0000
  H   H393      1.0  0.44862  0.43521  0.56890  1.0000
  H   H394      1.0  0.42966  0.45230  0.56514  1.0000
  H   H395      1.0  0.40670  0.49464  0.43732  1.0000
  C   C262      1.0  0.35332  0.50390  0.42095  1.0000
  H   H396      1.0  0.46443  0.57138  0.61664  1.0000
  S   S114      1.0  0.39674  0.49990  0.66345  1.0000
  C   C263      1.0  0.47705  0.60726  0.61968  1.0000
  C   C264      1.0  0.49910  0.66063  0.60905  1.0000
  C   C265      1.0  0.31313  0.51160  0.41952  1.0000
  H   H397      1.0  0.44154  0.61992  0.39445  1.0000
  Fe  Fe57      1.0  0.42627  0.50700  0.56638  1.0000
  H   H398      1.0  0.50785  0.65357  0.56802  1.0000
  H   H399      1.0  0.42568  0.55016  0.46442  1.0000
  H   H400      1.0  0.42032  0.35595  0.60001  1.0000
  H   H401      1.0  0.39858  0.50116  0.46992  1.0000
  N   N26       1.0  0.44225  0.35547  0.62707  1.0000
  Fe  Fe58      1.0  0.39789  0.49714  0.61317  1.0000
  H   H402      1.0  0.47731  0.62757  0.45353  1.0000
  H   H403      1.0  0.47940  0.64722  0.37930  1.0000
  C   C266      1.0  0.49769  0.38483  0.67393  1.0000
  C   C267      1.0  0.48305  0.60471  0.56808  1.0000
  Fe  Fe59      1.0  0.50004  0.60879  0.49199  1.0000
  H   H404      1.0  0.45722  0.38350  0.61994  1.0000
  Fe  Fe60      1.0  0.38853  0.50049  0.54707  1.0000
  H   H405      1.0  0.27329  0.51168  0.43617  1.0000
  H   H406      1.0  0.47072  0.60620  0.56072  1.0000
  H   H407      1.0  0.49358  0.36370  0.48186  1.0000
  H   H408      1.0  0.44619  0.53492  0.46785  1.0000
  C   C268      1.0  0.28469  0.50780  0.43808  1.0000
  C   C269      1.0  0.49911  0.36753  0.46030  1.0000
  S   S115      1.0  0.34431  0.49943  0.38365  1.0000
  H   H409      1.0  0.46432  0.60826  0.61342  1.0000
  H   H410      1.0  0.34383  0.51288  0.67226  1.0000
  H   H411      1.0  0.39157  0.42610  0.62706  1.0000
  S   S116      1.0  0.37637  0.51529  0.51794  1.0000
  H   H412      1.0  0.32343  0.51816  0.40306  1.0000
  C   C270      1.0  0.40347  0.50535  0.44731  1.0000
  H   H413      1.0  0.49183  0.39259  0.66231  1.0000
  H   H414      1.0  0.40883  0.44844  0.62584  1.0000
  Fe  Fe61      1.0  0.34547  0.52183  0.35352  1.0000
  H   H415      1.0  0.45898  0.59851  0.42656  1.0000
  S   S117      1.0  0.34935  0.54886  0.37195  1.0000
  H   H416      1.0  0.38598  0.46031  0.62501  1.0000
  H   H417      1.0  0.36512  0.50529  0.64369  1.0000
  H   H418      1.0  0.46673  0.35959  0.60647  1.0000
  H   H419      1.0  0.38084  0.56820  0.67633  1.0000
  S   S118      1.0  0.50880  0.63731  0.50769  1.0000
  N   N27       1.0  0.29818  0.51696  0.41612  1.0000
  C   C271      1.0  0.36725  0.51026  0.48080  1.0000
  H   H420      1.0  0.41351  0.52974  0.40477  1.0000
  C   C272      1.0  0.47875  0.56527  0.50679  1.0000
  C   C273      1.0  0.47545  0.54994  0.52309  1.0000
  H   H421      1.0  0.49146  0.57204  0.49665  1.0000
  H   H422      1.0  0.48572  0.54511  0.52598  1.0000
  C   C274      1.0  0.45775  0.35114  0.62339  1.0000
  H   H423      1.0  0.51172  0.46128  0.52507  1.0000
  S   S119      1.0  0.45523  0.52220  0.55687  1.0000
  H   H424      1.0  0.50225  0.58803  0.58940  1.0000
  S   S120      1.0  0.47041  0.59187  0.48598  1.0000
  C   C275      1.0  0.45887  0.54087  0.53562  1.0000
  C   C276      1.0  0.44554  0.54704  0.53157  1.0000
  C   C277      1.0  0.44897  0.56258  0.51576  1.0000
  C   C278      1.0  0.46562  0.57173  0.50354  1.0000
  H   H425      1.0  0.43268  0.54005  0.54096  1.0000
  H   H426      1.0  0.43886  0.56768  0.51353  1.0000
  C   C279      1.0  0.41431  0.53654  0.46347  1.0000
  H   H427      1.0  0.42811  0.51855  0.40641  1.0000
  H   H428      1.0  0.28486  0.49711  0.38067  1.0000
  N   N28       1.0  0.46861  0.62440  0.40706  1.0000
  C   C280      1.0  0.43415  0.52176  0.46605  1.0000
  H   H429      1.0  0.27854  0.56659  0.36406  1.0000
  C   C281      1.0  0.45209  0.62664  0.41257  1.0000
  C   C282      1.0  0.47575  0.63251  0.37861  1.0000
  H   H430      1.0  0.35951  0.53213  0.42186  1.0000
  C   C283      1.0  0.30513  0.53668  0.42108  1.0000
  C   C284      1.0  0.50117  0.66204  0.64031  1.0000
  C   C285      1.0  0.36643  0.52423  0.46422  1.0000
  H   H431      1.0  0.44020  0.36062  0.58067  1.0000
  C   C286      1.0  0.37905  0.43067  0.67966  1.0000
  H   H432      1.0  0.27819  0.51533  0.38251  1.0000
  H   H433      1.0  0.48808  0.63082  0.37359  1.0000
  C   C287      1.0  0.49826  0.59547  0.60648  1.0000
  H   H434      1.0  0.46582  0.62628  0.35955  1.0000
  C   C288      1.0  0.42456  0.52854  0.41827  1.0000
  C   C289      1.0  0.28976  0.51180  0.38570  1.0000
  H   H435      1.0  0.31099  0.54107  0.44415  1.0000
  H   H436      1.0  0.40970  0.43424  0.65508  1.0000
  H   H437      1.0  0.47576  0.60147  0.64210  1.0000
  H   H438      1.0  0.43642  0.54182  0.41861  1.0000
  C   C290      1.0  0.35976  0.52115  0.43436  1.0000
  H   H439      1.0  0.43744  0.37845  0.63961  1.0000
  C   C291      1.0  0.48215  0.63339  0.43167  1.0000
  H   H440      1.0  0.41894  0.34696  0.65309  1.0000
  H   H441      1.0  0.43817  0.51170  0.45567  1.0000
  H   H442      1.0  0.36955  0.41843  0.66662  1.0000
  H   H443      1.0  0.29063  0.51129  0.46130  1.0000
  N   N29       1.0  0.41914  0.52305  0.44878  1.0000
  N   N30       1.0  0.48124  0.59635  0.59729  1.0000
  H   H444      1.0  0.36868  0.43806  0.62594  1.0000
  H   H445      1.0  0.43044  0.51757  0.48915  1.0000
  C   C292      1.0  0.43181  0.35226  0.59832  1.0000
  H   H446      1.0  0.37120  0.53761  0.47446  1.0000
  H   H447      1.0  0.31583  0.54398  0.40558  1.0000
  H   H448      1.0  0.29943  0.51896  0.36864  1.0000
  H   H449      1.0  0.45377  0.57792  0.58645  1.0000
  H   H450      1.0  0.46608  0.35359  0.64454  1.0000
  C   C293      1.0  0.46666  0.57793  0.59481  1.0000
  S   S121      1.0  0.50217  0.40197  0.47452  1.0000
  H   H451      1.0  0.29440  0.54137  0.41704  1.0000
  C   C294      1.0  0.40049  0.43808  0.64127  1.0000
  H   H452      1.0  0.50946  0.60917  0.60957  1.0000
  H   H453      1.0  0.45476  0.64112  0.41385  1.0000
  S   S122      1.0  0.40856  0.51960  0.58161  1.0000
  C   C295      1.0  0.46447  0.60503  0.40543  1.0000
  H   H454      1.0  0.41085  0.47183  0.66345  1.0000
  C   C296      1.0  0.44873  0.37458  0.63682  1.0000
  H   H455      1.0  0.47673  0.60290  0.40176  1.0000
  H   H456      1.0  0.45438  0.59780  0.38697  1.0000
  S   S123      1.0  0.48761  0.66980  0.66046  1.0000
  H   H457      1.0  0.48552  0.59646  0.55049  1.0000
  H   H458      1.0  0.49724  0.58869  0.62794  1.0000
  H   H459      1.0  0.49448  0.61829  0.56873  1.0000
  H   H460      1.0  0.30851  0.49682  0.41580  1.0000
  Fe  Fe62      1.0  0.50600  0.43144  0.57270  1.0000
  H   H461      1.0  0.31999  0.51541  0.44208  1.0000
  C   C297      1.0  0.51146  0.38996  0.42342  1.0000
  H   H462      1.0  0.45690  0.37768  0.65823  1.0000
  H   H463      1.0  0.37014  0.45520  0.65329  1.0000
  H   H464      1.0  0.48944  0.66444  0.59787  1.0000
  C   C298      1.0  0.37810  0.44974  0.64025  1.0000
  C   C299      1.0  0.50948  0.65440  0.59206  1.0000
  H   H465      1.0  0.43830  0.34620  0.67172  1.0000
  H   H466      1.0  0.47412  0.37251  0.35529  1.0000
  C   C300      1.0  0.43076  0.34400  0.64977  1.0000
  H   H467      1.0  0.46043  0.65059  0.81628  1.0000
  H   H468      1.0  0.38760  0.42661  0.69473  1.0000
  S   S124      1.0  0.34676  0.50245  0.88460  1.0000
  C   C301      1.0  0.35761  0.49565  0.93991  1.0000
  C   C302      1.0  0.29651  0.49875  0.92608  1.0000
  N   N31       1.0  0.29836  0.51285  0.90482  1.0000
  C   C303      1.0  0.43120  0.52919  0.92240  1.0000
  S   S125      1.0  0.49394  0.40188  0.98525  1.0000
  H   H469      1.0  0.36591  0.49007  0.98343  1.0000
  C   C304      1.0  0.31651  0.52771  0.90902  1.0000
  H   H470      1.0  0.28604  0.53057  0.89415  1.0000
  H   H471      1.0  0.31915  0.53369  0.93211  1.0000
  H   H472      1.0  0.48087  0.67583  0.86890  1.0000
  C   C305      1.0  0.50044  0.38920  0.93228  1.0000
  C   C306      1.0  0.50142  0.38848  0.96348  1.0000
  C   C307      1.0  0.36567  0.50036  0.96899  1.0000
  H   H473      1.0  0.35164  0.48168  0.93215  1.0000
  C   C308      1.0  0.44098  0.63869  0.86410  1.0000
  H   H474      1.0  0.49550  0.39818  0.92213  1.0000
  H   H475      1.0  0.37889  0.59066  0.71383  1.0000
  C   C309      1.0  0.35724  0.50888  0.92084  1.0000
  C   C310      1.0  0.29570  0.50513  0.87407  1.0000
  C   C311      1.0  0.26687  0.60699  0.81213  1.0000
  H   H476      1.0  0.28209  0.49397  0.86994  1.0000
  H   H477      1.0  0.27093  0.50906  0.90658  1.0000
  S   S126      1.0  0.50412  0.37335  0.75999  1.0000
  C   C312      1.0  0.50503  0.37405  0.72071  1.0000
  C   C313      1.0  0.28482  0.51985  0.90994  1.0000
  C   C314      1.0  0.38936  0.55936  0.74731  1.0000
  H   H478      1.0  0.37553  0.54988  0.75243  1.0000
  C   C315      1.0  0.46929  0.64191  0.88702  1.0000
  H   H479      1.0  0.46184  0.67079  0.89131  1.0000
  H   H480      1.0  0.43571  0.51844  0.91768  1.0000
  H   H481      1.0  0.46567  0.62731  0.88330  1.0000
  C   C316      1.0  0.40779  0.58376  0.71745  1.0000
  H   H482      1.0  0.41447  0.59246  0.73767  1.0000
  C   C317      1.0  0.38374  0.50852  0.71367  1.0000
  H   H483      1.0  0.39479  0.50718  0.72537  1.0000
  H   H484      1.0  0.27604  0.60368  0.82709  1.0000
  H   H485      1.0  0.44236  0.54231  0.91751  1.0000
  Fe  Fe63      1.0  0.46317  0.66875  0.76165  1.0000
  S   S127      1.0  0.47643  0.65204  0.74408  1.0000
  S   S128      1.0  0.43405  0.65644  0.77359  1.0000
  Fe  Fe64      1.0  0.34874  0.52310  0.85015  1.0000
  H   H486      1.0  0.37361  0.51491  0.75385  1.0000
  Fe  Fe65      1.0  0.33065  0.54670  0.82922  1.0000
  S   S129      1.0  0.30897  0.55518  0.84393  1.0000
  Fe  Fe66      1.0  0.37153  0.55969  0.82562  1.0000
  S   S130      1.0  0.36882  0.53181  0.81454  1.0000
  S   S131      1.0  0.40066  0.57984  0.82901  1.0000
  Fe  Fe67      1.0  0.34618  0.52983  0.78326  1.0000
  H   H487      1.0  0.43826  0.53203  0.99770  1.0000
  S   S132      1.0  0.47908  0.58685  0.99121  1.0000
  H   H488      1.0  0.44617  0.62791  0.77638  1.0000
  S   S133      1.0  0.34981  0.55828  0.79259  1.0000
  S   S134      1.0  0.35307  0.55110  0.86347  1.0000
  S   S135      1.0  0.34220  0.52056  0.73436  1.0000
  H   H489      1.0  0.43314  0.59833  0.79969  1.0000
  H   H490      1.0  0.37844  0.54548  0.96816  1.0000
  C   C318      1.0  0.36491  0.52686  0.93119  1.0000
  H   H491      1.0  0.49111  0.39108  0.71749  1.0000
  C   C319      1.0  0.27393  0.55071  0.84554  1.0000
  C   C320      1.0  0.28573  0.54439  0.83310  1.0000
  H   H492      1.0  0.41577  0.54348  0.98192  1.0000
  H   H493      1.0  0.27919  0.56206  0.86139  1.0000
  H   H494      1.0  0.29843  0.50408  0.94955  1.0000
  N   N32       1.0  0.46071  0.64855  0.86374  1.0000
  H   H495      1.0  0.41970  0.52695  0.90643  1.0000
  C   C321      1.0  0.42007  0.54342  0.95872  1.0000
  H   H496      1.0  0.31831  0.53871  0.89360  1.0000
  C   C322      1.0  0.42371  0.63394  0.78447  1.0000
  C   C323      1.0  0.40631  0.62720  0.79487  1.0000
  C   C324      1.0  0.39859  0.61010  0.80710  1.0000
  C   C325      1.0  0.40840  0.59982  0.80940  1.0000
  C   C326      1.0  0.42551  0.60627  0.79802  1.0000
  C   C327      1.0  0.43297  0.62308  0.78499  1.0000
  H   H497      1.0  0.39901  0.63549  0.79439  1.0000
  H   H498      1.0  0.38542  0.60527  0.81603  1.0000
  H   H499      1.0  0.43095  0.55696  0.95517  1.0000
  H   H500      1.0  0.28760  0.52457  0.80306  1.0000
  H   H501      1.0  0.39590  0.56733  0.76819  1.0000
  H   H502      1.0  0.43645  0.62399  0.85935  1.0000
  C   C328      1.0  0.37176  0.51293  0.72988  1.0000
  S   S136      1.0  0.32546  0.51817  0.81753  1.0000
  H   H503      1.0  0.28637  0.52579  0.93292  1.0000
  C   C329      1.0  0.27874  0.52959  0.81290  1.0000
  C   C330      1.0  0.37884  0.58125  0.73132  1.0000
  C   C331      1.0  0.49732  0.38396  0.70520  1.0000
  H   H504      1.0  0.32706  0.52297  0.90469  1.0000
  H   H505      1.0  0.36458  0.57204  0.73467  1.0000
  C   C332      1.0  0.46604  0.66801  0.86926  1.0000
  H   H506      1.0  0.44356  0.56548  0.00831  1.0000
  H   H507      1.0  0.43417  0.64353  0.84685  1.0000
  H   H508      1.0  0.36475  0.53720  0.91686  1.0000
  H   H509      1.0  0.29709  0.51547  0.85747  1.0000
  H   H510      1.0  0.46523  0.64391  0.90963  1.0000
  C   C333      1.0  0.41131  0.51142  0.95918  1.0000
  H   H511      1.0  0.46303  0.63119  0.82923  1.0000
  H   H512      1.0  0.27384  0.61209  0.79126  1.0000
  H   H513      1.0  0.39667  0.55112  0.74153  1.0000
  S   S137      1.0  0.38390  0.52541  0.01527  1.0000
  S   S138      1.0  0.51109  0.63556  0.00940  1.0000
  C   C334      1.0  0.46660  0.64566  0.83430  1.0000
  C   C335      1.0  0.50767  0.37672  0.97639  1.0000
  C   C336      1.0  0.37269  0.53153  0.96033  1.0000
  H   H514      1.0  0.36641  0.55060  0.69872  1.0000
  H   H515      1.0  0.45309  0.54550  0.97071  1.0000
  C   C337      1.0  0.50574  0.37836  0.91405  1.0000
  H   H516      1.0  0.48133  0.65307  0.83303  1.0000
  H   H517      1.0  0.48418  0.64911  0.88716  1.0000
  H   H518      1.0  0.43599  0.64039  0.88605  1.0000
  N   N33       1.0  0.42608  0.52905  0.95358  1.0000
  H   H519      1.0  0.30569  0.49969  0.86941  1.0000
  H   H520      1.0  0.38446  0.58934  0.75248  1.0000
  N   N34       1.0  0.38918  0.57106  0.72288  1.0000
  H   H521      1.0  0.41542  0.50023  0.95628  1.0000
  Fe  Fe68      1.0  0.49954  0.66963  0.77545  1.0000
  H   H522      1.0  0.45986  0.67343  0.85188  1.0000
  H   H523      1.0  0.39940  0.50850  0.94378  1.0000
  C   C338      1.0  0.44172  0.53218  0.97400  1.0000
  H   H524      1.0  0.30672  0.49338  0.92268  1.0000
  H   H525      1.0  0.50493  0.37905  0.89004  1.0000
  H   H526      1.0  0.40678  0.51105  0.98231  1.0000
  H   H527      1.0  0.28303  0.48723  0.92339  1.0000
  H   H528      1.0  0.40840  0.54155  0.94346  1.0000
  C   C339      1.0  0.37324  0.51836  0.97931  1.0000
  C   C340      1.0  0.35729  0.51449  0.71506  1.0000
  H   H529      1.0  0.44668  0.52164  0.97072  1.0000
  H   H530      1.0  0.26486  0.61823  0.82319  1.0000
  Fe  Fe69      1.0  0.50760  0.60772  0.99675  1.0000
  H   H531      1.0  0.44698  0.35763  0.99688  1.0000
  H   H532      1.0  0.40821  0.59283  0.69913  1.0000
  C   C341      1.0  0.46003  0.35989  0.00827  1.0000
  H   H533      1.0  0.38758  0.55126  0.68926  1.0000
  Fe  Fe70      1.0  0.48846  0.67343  0.71090  1.0000
  H   H534      1.0  0.41598  0.57648  0.71127  1.0000
  C   C342      1.0  0.38070  0.55984  0.69555  1.0000
  H   H535      1.0  0.46893  0.35890  0.99097  1.0000
  H   H536      1.0  0.50850  0.37607  0.00037  1.0000
  C   C343      1.0  0.51175  0.36642  0.92691  1.0000
  C   C344      1.0  0.51255  0.36555  0.95813  1.0000
  H   H537      1.0  0.41155  0.45773  0.69300  1.0000
  H   H538      1.0  0.37097  0.43540  0.69384  1.0000
  H   H539      1.0  0.39491  0.46655  0.69167  1.0000
  S   S139      1.0  0.51147  0.65379  0.80217  1.0000
  H   H540      1.0  0.46624  0.37404  0.01734  1.0000
  Fe  Fe71      1.0  0.49040  0.69498  0.24084  1.0000
  C   C345      1.0  0.47584  0.99952  0.06770  1.0000
  S   S140      1.0  0.49734  0.72312  0.22419  1.0000
  C   C346      1.0  0.33228  0.74997  0.29005  1.0000
  C   C347      1.0  0.45816  0.96834  0.07806  1.0000
  H   H541      1.0  0.33991  0.79377  0.28512  1.0000
  H   H542      1.0  0.48570  0.00923  0.05312  1.0000
  C   C348      1.0  0.49652  0.74236  0.24161  1.0000
  S   S141      1.0  0.41774  0.94077  0.03224  1.0000
  C   C349      1.0  0.26822  0.76971  0.32793  1.0000
  H   H543      1.0  0.50963  0.68077  0.34617  1.0000
  H   H544      1.0  0.42369  0.98429  0.02452  1.0000
  N   N35       1.0  0.44056  0.70766  0.24970  1.0000
  C   C350      1.0  0.43499  0.69451  0.22412  1.0000
  C   C351      1.0  0.42479  0.70509  0.26690  1.0000
  C   C352      1.0  0.44861  0.72613  0.23868  1.0000
  C   C353      1.0  0.45391  0.70482  0.26914  1.0000
  C   C354      1.0  0.49297  0.75885  0.28465  1.0000
  H   H545      1.0  0.46781  0.86930  0.29258  1.0000
  S   S142      1.0  0.49935  0.87070  0.32535  1.0000
  C   C355      1.0  0.36160  0.92545  0.33514  1.0000
  H   H546      1.0  0.42946  0.68041  0.23167  1.0000
  H   H547      1.0  0.36322  0.88514  0.32619  1.0000
  C   C356      1.0  0.48782  0.97758  0.05987  1.0000
  H   H548      1.0  0.46019  0.96313  0.01942  1.0000
  H   H549      1.0  0.45137  0.97943  0.02515  1.0000
  H   H550      1.0  0.49397  0.97998  0.08295  1.0000
  H   H551      1.0  0.49788  0.78314  0.22256  1.0000
  H   H552      1.0  0.50576  0.79882  0.34898  1.0000
  H   H553      1.0  0.50193  0.93407  0.03515  1.0000
  H   H554      1.0  0.46020  0.72822  0.22481  1.0000
  H   H555      1.0  0.43879  0.72898  0.22464  1.0000
  S   S143      1.0  0.39165  0.89847  0.04585  1.0000
  S   S144      1.0  0.48292  0.68375  0.28632  1.0000
  Fe  Fe72      1.0  0.41841  0.91962  0.06236  1.0000
  Fe  Fe73      1.0  0.35071  0.84986  0.34105  1.0000
  Fe  Fe74      1.0  0.38127  0.90952  0.08331  1.0000
  S   S145      1.0  0.37701  0.92982  0.05473  1.0000
  S   S146      1.0  0.36028  0.88949  0.11160  1.0000
  Fe  Fe75      1.0  0.40529  0.94880  0.06971  1.0000
  S   S147      1.0  0.41459  0.97777  0.08667  1.0000
  H   H556      1.0  0.41852  0.69125  0.27550  1.0000
  S   S148      1.0  0.40834  0.92928  0.10130  1.0000
  H   H557      1.0  0.46344  0.97049  0.10166  1.0000
  S   S149      1.0  0.48708  0.82199  0.21347  1.0000
  C   C357      1.0  0.45787  0.92201  0.04423  1.0000
  S   S150      1.0  0.47598  0.82849  0.28020  1.0000
  Fe  Fe76      1.0  0.49403  0.81729  0.26057  1.0000
  H   H558      1.0  0.37303  0.93346  0.32136  1.0000
  Fe  Fe77      1.0  0.47120  0.83543  0.23391  1.0000
  S   S151      1.0  0.44518  0.83460  0.21465  1.0000
  S   S152      1.0  0.49380  0.86299  0.23809  1.0000
  Fe  Fe78      1.0  0.35987  0.85869  0.27680  1.0000
  S   S153      1.0  0.35419  0.83026  0.26327  1.0000
  S   S154      1.0  0.37206  0.88447  0.25163  1.0000
  C   C358      1.0  0.50942  0.83263  0.34312  1.0000
  H   H559      1.0  0.45870  0.71467  0.28846  1.0000
  Fe  Fe79      1.0  0.36848  0.83010  0.30651  1.0000
  S   S155      1.0  0.38677  0.81617  0.31101  1.0000
  Fe  Fe80      1.0  0.32971  0.82183  0.29063  1.0000
  S   S156      1.0  0.30568  0.79778  0.26907  1.0000
  S   S157      1.0  0.37657  0.85924  0.31806  1.0000
  S   S158      1.0  0.33414  0.85055  0.30031  1.0000
  C   C359      1.0  0.42794  0.82803  0.23982  1.0000
  C   C360      1.0  0.42767  0.81702  0.26331  1.0000
  C   C361      1.0  0.41454  0.81290  0.28445  1.0000
  C   C362      1.0  0.40183  0.82002  0.28250  1.0000
  C   C363      1.0  0.40195  0.83086  0.25883  1.0000
  C   C364      1.0  0.41488  0.83470  0.23735  1.0000
  H   H560      1.0  0.43750  0.81157  0.26505  1.0000
  H   H561      1.0  0.41448  0.80447  0.30267  1.0000
  H   H562      1.0  0.39228  0.83652  0.25722  1.0000
  H   H563      1.0  0.41504  0.84325  0.21925  1.0000
  H   H564      1.0  0.35879  0.91047  0.28011  1.0000
  C   C365      1.0  0.28745  0.78098  0.28638  1.0000
  N   N36       1.0  0.33463  0.76782  0.30179  1.0000
  H   H565      1.0  0.35121  0.93065  0.33198  1.0000
  C   C366      1.0  0.49433  0.77327  0.26692  1.0000
  C   C367      1.0  0.34779  0.90307  0.29511  1.0000
  C   C368      1.0  0.36439  0.88787  0.15024  1.0000
  C   C369      1.0  0.35331  0.87235  0.16478  1.0000
  C   C370      1.0  0.35581  0.87088  0.19567  1.0000
  C   C371      1.0  0.36921  0.88511  0.21241  1.0000
  C   C372      1.0  0.38028  0.90062  0.19790  1.0000
  C   C373      1.0  0.37801  0.90194  0.16694  1.0000
  H   H566      1.0  0.34271  0.86143  0.15208  1.0000
  H   H567      1.0  0.34714  0.85889  0.20655  1.0000
  H   H568      1.0  0.39064  0.91172  0.21066  1.0000
  H   H569      1.0  0.38651  0.91402  0.15614  1.0000
  C   C374      1.0  0.49790  0.75679  0.22395  1.0000
  C   C375      1.0  0.47555  0.92484  0.05082  1.0000
  H   H570      1.0  0.49811  0.98659  0.04507  1.0000
  H   H571      1.0  0.32940  0.74020  0.30811  1.0000
  H   H572      1.0  0.47950  0.92191  0.07256  1.0000
  H   H573      1.0  0.46941  0.88874  0.07990  1.0000
  N   N37       1.0  0.46226  0.87994  0.12424  1.0000
  C   C376      1.0  0.46749  0.89836  0.13684  1.0000
  C   C377      1.0  0.44283  0.87161  0.11602  1.0000
  C   C378      1.0  0.46633  0.86904  0.14664  1.0000
  C   C379      1.0  0.47240  0.88084  0.09740  1.0000
  H   H574      1.0  0.46027  0.89821  0.15733  1.0000
  H   H575      1.0  0.46428  0.90679  0.12062  1.0000
  H   H576      1.0  0.48214  0.90522  0.14270  1.0000
  H   H577      1.0  0.43837  0.85772  0.10632  1.0000
  H   H578      1.0  0.43477  0.87075  0.13577  1.0000
  H   H579      1.0  0.43928  0.87958  0.09927  1.0000
  H   H580      1.0  0.46255  0.85505  0.13791  1.0000
  H   H581      1.0  0.45888  0.86800  0.16723  1.0000
  H   H582      1.0  0.48088  0.87492  0.15335  1.0000
  H   H583      1.0  0.46908  0.86719  0.08753  1.0000
  H   H584      1.0  0.48715  0.88743  0.10264  1.0000
  N   N38       1.0  0.35430  0.90606  0.32678  1.0000
  S   S159      1.0  0.44241  0.91404  0.07187  1.0000
  H   H585      1.0  0.49985  0.75611  0.20036  1.0000
  C   C380      1.0  0.28313  0.78331  0.31545  1.0000
  H   H586      1.0  0.49121  0.75964  0.30827  1.0000
  H   H587      1.0  0.45373  0.73646  0.25736  1.0000
  Fe  Fe81      1.0  0.51021  0.84942  0.22040  1.0000
  C   C381      1.0  0.49675  0.77214  0.23647  1.0000
  H   H588      1.0  0.30622  0.76018  0.29993  1.0000
  H   H589      1.0  0.44560  0.97031  0.07745  1.0000
  C   C382      1.0  0.42645  0.99756  0.06731  1.0000
  Fe  Fe82      1.0  0.49996  0.85516  0.28331  1.0000
  H   H590      1.0  0.44655  0.69645  0.21029  1.0000
  H   H591      1.0  0.45443  0.95398  0.07152  1.0000
  H   H592      1.0  0.46370  0.00225  0.06681  1.0000
  H   H593      1.0  0.37975  0.90652  0.31613  1.0000
  H   H594      1.0  0.26471  0.77180  0.35020  1.0000
  H   H595      1.0  0.44507  0.85623  0.27950  1.0000
  H   H596      1.0  0.42454  0.69588  0.20934  1.0000
  C   C383      1.0  0.33934  0.89586  0.34580  1.0000
  S   S160      1.0  0.34395  0.82043  0.33339  1.0000
  H   H597      1.0  0.31906  0.77946  0.32384  1.0000
  C   C384      1.0  0.44871  0.85053  0.33739  1.0000
  H   H598      1.0  0.29103  0.79572  0.32810  1.0000
  C   C385      1.0  0.49407  0.74347  0.27210  1.0000
  H   H599      1.0  0.35076  0.78216  0.26606  1.0000
  H   H600      1.0  0.34245  0.88860  0.28794  1.0000
  C   C386      1.0  0.42875  0.99709  0.03670  1.0000
  H   H601      1.0  0.33691  0.90748  0.29088  1.0000
  C   C387      1.0  0.27706  0.76472  0.27032  1.0000
  H   H602      1.0  0.35199  0.78840  0.33349  1.0000
  S   S161      1.0  0.49296  0.79235  0.28391  1.0000
  H   H603      1.0  0.42864  0.87718  0.31501  1.0000
  H   H604      1.0  0.34454  0.75080  0.27930  1.0000
  H   H605      1.0  0.46246  0.85114  0.33747  1.0000
  H   H606      1.0  0.41437  0.70707  0.25296  1.0000
  H   H607      1.0  0.46585  0.70636  0.25672  1.0000
  H   H608      1.0  0.48487  0.96349  0.05278  1.0000
  C   C388      1.0  0.31810  0.76611  0.31591  1.0000
  H   H609      1.0  0.42859  0.71480  0.28641  1.0000
  C   C389      1.0  0.46376  0.97724  0.02723  1.0000
  C   C390      1.0  0.34989  0.77496  0.32410  1.0000
  S   S162      1.0  0.50751  0.68011  0.23208  1.0000
  H   H610      1.0  0.49331  0.73263  0.28607  1.0000
  H   H611      1.0  0.36955  0.97594  0.02920  1.0000
  H   H612      1.0  0.32838  0.90033  0.34357  1.0000
  H   H613      1.0  0.44826  0.69107  0.27807  1.0000
  H   H614      1.0  0.32090  0.74429  0.27303  1.0000
  H   H615      1.0  0.28045  0.76270  0.24794  1.0000
  C   C391      1.0  0.33823  0.78026  0.27704  1.0000
  H   H616      1.0  0.32695  0.77542  0.25979  1.0000
  N   N39       1.0  0.47140  0.98068  0.05824  1.0000
  C   C392      1.0  0.36856  0.89982  0.33114  1.0000
  H   H617      1.0  0.31523  0.75735  0.33538  1.0000
  C   C393      1.0  0.48835  0.93183  0.02952  1.0000
  H   H618      1.0  0.48166  0.00262  0.09100  1.0000
  C   C394      1.0  0.42966  0.86528  0.32476  1.0000
  N   N40       1.0  0.44816  0.86674  0.32457  1.0000
  C   C395      1.0  0.45391  0.86822  0.29359  1.0000
  H   H619      1.0  0.45360  0.88023  0.28306  1.0000
  H   H620      1.0  0.43967  0.83812  0.32433  1.0000
  H   H621      1.0  0.46022  0.89536  0.33358  1.0000
  H   H622      1.0  0.42010  0.85320  0.31152  1.0000
  H   H623      1.0  0.38573  0.96692  0.03481  1.0000
  H   H624      1.0  0.36267  0.77676  0.31407  1.0000
  H   H625      1.0  0.50050  0.82285  0.32555  1.0000
  H   H626      1.0  0.34776  0.76590  0.34306  1.0000
  H   H627      1.0  0.47449  0.88449  0.34255  1.0000
  H   H628      1.0  0.42482  0.86405  0.34777  1.0000
  H   H629      1.0  0.33344  0.88117  0.33992  1.0000
  C   C396      1.0  0.46038  0.88289  0.34253  1.0000
  H   H630      1.0  0.39263  0.98924  0.02199  1.0000
  C   C397      1.0  0.38164  0.97537  0.01999  1.0000
  H   H631      1.0  0.47823  0.71640  0.63378  1.0000
  C   C398      1.0  0.49470  0.73659  0.68343  1.0000
  H   H632      1.0  0.38504  0.95092  0.60164  1.0000
  H   H633      1.0  0.45663  0.88211  0.36617  1.0000
  H   H634      1.0  0.40817  0.84574  0.66381  1.0000
  S   S163      1.0  0.48162  0.89727  0.49436  1.0000
  S   S164      1.0  0.43148  0.94435  0.54571  1.0000
  Fe  Fe83      1.0  0.40542  0.92318  0.52503  1.0000
  S   S165      1.0  0.40800  0.91738  0.47584  1.0000
  H   H635      1.0  0.36071  0.93182  0.65147  1.0000
  C   C399      1.0  0.39097  0.90129  0.45150  1.0000
  C   C400      1.0  0.37294  0.89359  0.45851  1.0000
  C   C401      1.0  0.35974  0.88157  0.43790  1.0000
  C   C402      1.0  0.36441  0.87685  0.41031  1.0000
  C   C403      1.0  0.38249  0.88432  0.40348  1.0000
  C   C404      1.0  0.39565  0.89661  0.42386  1.0000
  H   H636      1.0  0.36912  0.89709  0.47963  1.0000
  H   H637      1.0  0.34580  0.87587  0.44343  1.0000
  H   H638      1.0  0.38630  0.88077  0.38243  1.0000
  H   H639      1.0  0.40956  0.90247  0.41825  1.0000
  H   H640      1.0  0.48278  0.91749  0.59747  1.0000
  C   C405      1.0  0.47148  0.89932  0.52680  1.0000
  C   C406      1.0  0.44650  0.90241  0.54858  1.0000
  C   C407      1.0  0.45360  0.89673  0.52487  1.0000
  H   H641      1.0  0.43296  0.90112  0.54629  1.0000
  H   H642      1.0  0.44548  0.89119  0.50449  1.0000
  Fe  Fe84      1.0  0.42678  0.92514  0.58257  1.0000
  S   S166      1.0  0.44882  0.91903  0.60293  1.0000
  Fe  Fe85      1.0  0.38775  0.91727  0.58556  1.0000
  S   S167      1.0  0.38869  0.93518  0.54739  1.0000
  S   S168      1.0  0.36312  0.90210  0.61185  1.0000
  Fe  Fe86      1.0  0.41463  0.95500  0.57039  1.0000
  S   S169      1.0  0.41897  0.98363  0.58346  1.0000
  S   S170      1.0  0.40185  0.90339  0.56098  1.0000
  S   S171      1.0  0.41254  0.93768  0.60951  1.0000
  C   C408      1.0  0.36544  0.89594  0.64885  1.0000
  C   C409      1.0  0.38204  0.90323  0.66478  1.0000
  C   C410      1.0  0.49407  0.89557  0.64845  1.0000
  H   H643      1.0  0.49536  0.96203  0.46587  1.0000
  C   C411      1.0  0.45572  0.92501  0.46903  1.0000
  C   C412      1.0  0.37421  0.94290  0.65719  1.0000
  H   H644      1.0  0.39390  0.91216  0.65413  1.0000
  H   H645      1.0  0.44454  0.99110  0.53635  1.0000
  H   H646      1.0  0.49579  0.88150  0.38445  1.0000
  H   H647      1.0  0.39668  0.85723  0.64488  1.0000
  C   C413      1.0  0.48170  0.90593  0.55354  1.0000
  C   C414      1.0  0.47454  0.91148  0.57741  1.0000
  C   C415      1.0  0.45707  0.91017  0.57461  1.0000
  H   H648      1.0  0.49525  0.90714  0.55558  1.0000
  C   C416      1.0  0.36345  0.96579  0.65027  1.0000
  H   H649      1.0  0.34956  0.95544  0.64460  1.0000
  H   H650      1.0  0.38419  0.93780  0.65090  1.0000
  H   H651      1.0  0.50495  0.80851  0.38483  1.0000
  H   H652      1.0  0.36459  0.96891  0.67469  1.0000
  H   H653      1.0  0.37674  0.96748  0.59611  1.0000
  H   H654      1.0  0.48589  0.74171  0.67133  1.0000
  H   H655      1.0  0.47070  0.96996  0.48330  1.0000
  H   H656      1.0  0.50469  0.74543  0.62764  1.0000
  H   H657      1.0  0.37558  0.94528  0.68180  1.0000
  H   H658      1.0  0.36516  0.97824  0.63869  1.0000
  H   H659      1.0  0.38581  0.83323  0.64779  1.0000
  C   C417      1.0  0.39488  0.84603  0.65993  1.0000
  S   S172      1.0  0.34712  0.86233  0.38462  1.0000
  C   C418      1.0  0.44606  0.00377  0.54643  1.0000
  C   C419      1.0  0.47546  0.94337  0.50972  1.0000
  C   C420      1.0  0.48475  0.94841  0.45925  1.0000
  N   N41       1.0  0.46927  0.94324  0.47837  1.0000
  C   C421      1.0  0.36982  0.84860  0.68207  1.0000
  H   H660      1.0  0.40560  0.96902  0.64274  1.0000
  H   H661      1.0  0.44955  0.86858  0.63730  1.0000
  H   H662      1.0  0.44986  0.92465  0.44619  1.0000
  H   H663      1.0  0.37089  0.85959  0.66701  1.0000
  H   H664      1.0  0.49843  0.89143  0.62755  1.0000
  H   H665      1.0  0.36144  0.94441  0.60222  1.0000
  H   H666      1.0  0.49370  0.90876  0.64476  1.0000
  H   H667      1.0  0.50079  0.83383  0.36069  1.0000
  H   H668      1.0  0.34394  0.89739  0.36978  1.0000
  H   H669      1.0  0.48067  0.94848  0.43540  1.0000
  C   C422      1.0  0.46113  0.95612  0.47550  1.0000
  H   H670      1.0  0.39783  0.98600  0.63686  1.0000
  C   C423      1.0  0.48714  0.71198  0.64721  1.0000
  H   H671      1.0  0.46159  0.91506  0.46914  1.0000
  H   H672      1.0  0.39723  0.97709  0.67334  1.0000
  N   N42       1.0  0.37690  0.95941  0.64140  1.0000
  H   H673      1.0  0.50468  0.89770  0.66616  1.0000
  H   H674      1.0  0.45671  0.95669  0.45199  1.0000
  H   H675      1.0  0.44900  0.95208  0.48881  1.0000
  N   N43       1.0  0.47644  0.88188  0.65669  1.0000
  N   N44       1.0  0.50204  0.72736  0.66297  1.0000
  H   H676      1.0  0.33730  0.87845  0.65100  1.0000
  H   H677      1.0  0.48228  0.93430  0.51236  1.0000
  H   H678      1.0  0.46678  0.87572  0.61079  1.0000
  C   C424      1.0  0.39514  0.97350  0.64906  1.0000
  H   H679      1.0  0.44437  0.92021  0.48419  1.0000
  C   C425      1.0  0.37483  0.95538  0.60893  1.0000
  H   H680      1.0  0.44448  0.84896  0.36077  1.0000
  C   C426      1.0  0.35022  0.88417  0.66311  1.0000
  H   H681      1.0  0.35993  0.83568  0.67134  1.0000
  H   H682      1.0  0.46096  0.89192  0.62941  1.0000
  C   C427      1.0  0.47764  0.86465  0.66138  1.0000
  H   H683      1.0  0.49221  0.70449  0.63199  1.0000
  H   H684      1.0  0.47869  0.70209  0.66316  1.0000
  H   H685      1.0  0.49108  0.93881  0.46097  1.0000
  C   C428      1.0  0.43535  0.00385  0.56980  1.0000
  H   H686      1.0  0.46409  0.93876  0.52480  1.0000
  C   C429      1.0  0.46283  0.87938  0.63249  1.0000
  H   H687      1.0  0.48524  0.95704  0.51786  1.0000
  H   H688      1.0  0.48179  0.85975  0.64103  1.0000
  H   H689      1.0  0.47033  0.90095  0.68194  1.0000
  H   H690      1.0  0.36656  0.92810  0.35896  1.0000
  C   C430      1.0  0.50968  0.88400  0.38252  1.0000
  C   C431      1.0  0.47126  0.88791  0.68451  1.0000
  H   H691      1.0  0.46464  0.85394  0.66771  1.0000
  H   H692      1.0  0.48771  0.86611  0.67965  1.0000
  H   H693      1.0  0.37417  0.90229  0.35459  1.0000
  Fe  Fe87      1.0  0.51144  0.91277  0.50007  1.0000
  S   S173      1.0  0.51254  0.85147  0.66637  1.0000
  H   H694      1.0  0.51144  0.85721  0.60395  1.0000
  S   S174      1.0  0.47301  0.68882  0.72584  1.0000
  C   C432      1.0  0.26292  0.77297  0.76792  1.0000
  C   C433      1.0  0.48457  0.74567  0.77050  1.0000
  H   H695      1.0  0.28204  0.75354  0.83070  1.0000
  H   H696      1.0  0.47630  0.73173  0.77478  1.0000
  C   C434      1.0  0.27667  0.75893  0.81312  1.0000
  H   H697      1.0  0.46442  0.75468  0.78205  1.0000
  C   C435      1.0  0.46587  0.93321  0.99478  1.0000
  H   H698      1.0  0.41325  0.86583  0.70865  1.0000
  S   S175      1.0  0.38250  0.91999  0.96917  1.0000
  H   H699      1.0  0.29916  0.82988  0.90315  1.0000
  S   S176      1.0  0.47810  0.83068  0.72348  1.0000
  S   S177      1.0  0.48714  0.84229  0.79459  1.0000
  H   H700      1.0  0.28063  0.81060  0.91612  1.0000
  C   C436      1.0  0.50574  0.78201  0.75961  1.0000
  Fe  Fe88      1.0  0.47785  0.85233  0.75427  1.0000
  S   S178      1.0  0.45684  0.86316  0.75126  1.0000
  H   H701      1.0  0.48412  0.92457  0.91447  1.0000
  Fe  Fe89      1.0  0.35354  0.85916  0.77290  1.0000
  S   S179      1.0  0.34634  0.83112  0.75481  1.0000
  S   S180      1.0  0.37061  0.88366  0.74728  1.0000
  Fe  Fe90      1.0  0.34340  0.84649  0.83664  1.0000
  S   S181      1.0  0.33559  0.81760  0.82243  1.0000
  S   S182      1.0  0.34109  0.84894  0.88666  1.0000
  Fe  Fe91      1.0  0.36050  0.82842  0.79668  1.0000
  S   S183      1.0  0.38033  0.81625  0.79942  1.0000
  Fe  Fe92      1.0  0.32201  0.82297  0.78234  1.0000
  S   S184      1.0  0.29391  0.80410  0.76433  1.0000
  S   S185      1.0  0.36918  0.85675  0.81351  1.0000
  S   S186      1.0  0.32814  0.85148  0.79783  1.0000
  C   C437      1.0  0.43591  0.85010  0.76564  1.0000
  C   C438      1.0  0.43145  0.83257  0.77455  1.0000
  C   C439      1.0  0.41437  0.82227  0.78501  1.0000
  C   C440      1.0  0.40169  0.82943  0.78648  1.0000
  C   C441      1.0  0.40626  0.84705  0.77790  1.0000
  C   C442      1.0  0.42333  0.85735  0.76756  1.0000
  H   H702      1.0  0.44109  0.82687  0.77311  1.0000
  H   H703      1.0  0.41092  0.80865  0.79165  1.0000
  H   H704      1.0  0.39664  0.85275  0.77906  1.0000
  H   H705      1.0  0.42683  0.87101  0.76112  1.0000
  C   C443      1.0  0.50202  0.75076  0.76142  1.0000
  C   C444      1.0  0.28087  0.78263  0.77848  1.0000
  H   H706      1.0  0.29439  0.79104  0.89730  1.0000
  H   H707      1.0  0.28390  0.82594  0.83802  1.0000
  H   H708      1.0  0.51077  0.86378  0.91287  1.0000
  C   C445      1.0  0.37173  0.89995  0.94658  1.0000
  C   C446      1.0  0.36289  0.88314  0.95895  1.0000
  C   C447      1.0  0.35356  0.86767  0.94028  1.0000
  C   C448      1.0  0.35325  0.86878  0.90910  1.0000
  C   C449      1.0  0.36249  0.88551  0.89669  1.0000
  C   C450      1.0  0.37152  0.90104  0.91537  1.0000
  H   H709      1.0  0.36286  0.88212  0.98292  1.0000
  H   H710      1.0  0.34646  0.85480  0.95013  1.0000
  H   H711      1.0  0.36235  0.88657  0.87273  1.0000
  H   H712      1.0  0.37830  0.91398  0.90559  1.0000
  H   H713      1.0  0.49943  0.89585  0.92245  1.0000
  H   H714      1.0  0.39839  0.83272  0.71294  1.0000
  H   H715      1.0  0.30657  0.83110  0.85066  1.0000
  N   N45       1.0  0.39168  0.84081  0.88751  1.0000
  C   C451      1.0  0.39928  0.83472  0.91296  1.0000
  C   C452      1.0  0.40421  0.84558  0.86307  1.0000
  C   C453      1.0  0.38882  0.85670  0.89707  1.0000
  C   C454      1.0  0.37435  0.82615  0.87691  1.0000
  C   C455      1.0  0.38326  0.89944  0.69493  1.0000
  H   H716      1.0  0.41235  0.84547  0.92161  1.0000
  H   H717      1.0  0.29980  0.79149  0.85903  1.0000
  H   H718      1.0  0.40636  0.83376  0.85490  1.0000
  H   H719      1.0  0.39889  0.85025  0.84352  1.0000
  C   C456      1.0  0.36290  0.95019  0.98697  1.0000
  H   H720      1.0  0.36408  0.85091  0.70290  1.0000
  Fe  Fe93      1.0  0.49009  0.82214  0.76262  1.0000
  H   H721      1.0  0.37942  0.85354  0.91549  1.0000
  H   H722      1.0  0.36439  0.82235  0.89450  1.0000
  H   H723      1.0  0.50717  0.91706  0.84952  1.0000
  H   H724      1.0  0.36844  0.83029  0.85758  1.0000
  C   C457      1.0  0.28780  0.77532  0.80071  1.0000
  H   H725      1.0  0.30170  0.78231  0.80838  1.0000
  H   H726      1.0  0.36178  0.98189  0.97718  1.0000
  C   C458      1.0  0.28565  0.81903  0.89649  1.0000
  N   N46       1.0  0.28651  0.80815  0.87049  1.0000
  C   C459      1.0  0.29891  0.79991  0.87805  1.0000
  C   C460      1.0  0.38532  0.83328  0.70763  1.0000
  C   C461      1.0  0.29316  0.81990  0.84507  1.0000
  H   H727      1.0  0.46208  0.93629  0.97304  1.0000
  H   H728      1.0  0.48113  0.88969  0.70336  1.0000
  C   C462      1.0  0.39430  0.96676  0.97817  1.0000
  H   H729      1.0  0.48469  0.92453  0.87453  1.0000
  Fe  Fe94      1.0  0.50640  0.85020  0.71538  1.0000
  H   H730      1.0  0.37980  0.83465  0.72925  1.0000
  S   S187      1.0  0.49993  0.94458  0.97510  1.0000
  H   H731      1.0  0.40159  0.86814  0.90506  1.0000
  C   C463      1.0  0.35157  0.87984  0.69307  1.0000
  C   C464      1.0  0.48836  0.77695  0.76915  1.0000
  H   H732      1.0  0.40170  0.87719  0.68960  1.0000
  S   S188      1.0  0.48566  0.68555  0.79474  1.0000
  C   C465      1.0  0.50790  0.91063  0.92396  1.0000
  H   H733      1.0  0.47343  0.98626  0.01162  1.0000
  C   C466      1.0  0.39981  0.86553  0.70354  1.0000
  H   H734      1.0  0.36576  0.94053  0.00074  1.0000
  C   C467      1.0  0.37388  0.98048  0.96980  1.0000
  H   H735      1.0  0.39009  0.83095  0.93172  1.0000
  H   H736      1.0  0.37592  0.81391  0.86934  1.0000
  H   H737      1.0  0.40157  0.82273  0.90644  1.0000
  H   H738      1.0  0.38515  0.99421  0.97062  1.0000
  H   H739      1.0  0.48664  0.72741  0.70056  1.0000
  H   H740      1.0  0.51035  0.85975  0.85782  1.0000
  H   H741      1.0  0.37600  0.82007  0.69702  1.0000
  N   N47       1.0  0.38745  0.84835  0.68830  1.0000
  H   H742      1.0  0.38284  0.86150  0.87851  1.0000
  S   S189      1.0  0.47942  0.79287  0.77589  1.0000
  H   H743      1.0  0.39455  0.86776  0.72499  1.0000
  H   H744      1.0  0.41751  0.85649  0.87017  1.0000
  H   H745      1.0  0.39189  0.96060  0.95516  1.0000
  H   H746      1.0  0.37123  0.97548  0.94609  1.0000
  C   C468      1.0  0.36810  0.88769  0.70921  1.0000
  H   H747      1.0  0.27658  0.82563  0.89149  1.0000
  H   H748      1.0  0.47705  0.90365  0.89336  1.0000
  H   H749      1.0  0.31272  0.81037  0.88388  1.0000
  H   H750      1.0  0.35047  0.95063  0.99489  1.0000
  H   H751      1.0  0.50560  0.74824  0.69575  1.0000
  C   C469      1.0  0.51255  0.76900  0.75598  1.0000
  C   C470      1.0  0.47786  0.75873  0.77460  1.0000
  H   H752      1.0  0.36004  0.94430  0.96376  1.0000
  Fe  Fe95      1.0  0.49676  0.70426  0.75704  1.0000
  H   H753      1.0  0.39609  0.90563  0.70726  1.0000
  C   C471      1.0  0.48701  0.91799  0.89466  1.0000
  H   H754      1.0  0.49994  0.89622  0.86836  1.0000
  N   N48       1.0  0.37818  0.96820  0.98876  1.0000
  H   H755      1.0  0.33975  0.87085  0.70385  1.0000
  H   H756      1.0  0.50435  0.91609  0.94428  1.0000
  H   H757      1.0  0.40594  0.98016  0.97807  1.0000
  H   H758      1.0  0.29451  0.81225  0.82537  1.0000
  H   H759      1.0  0.39822  0.95800  0.99256  1.0000
  Fe  Fe96      1.0  0.38973  0.92033  0.01871  1.0000
  C   C472      1.0  0.26845  0.79384  0.86234  1.0000
  C   C473      1.0  0.48361  0.93605  0.00150  1.0000
  N   N49       1.0  0.50555  0.91956  0.89700  1.0000
  H   H760      1.0  0.51010  0.81784  0.80967  1.0000
  H   H761      1.0  0.43916  0.92345  0.01072  1.0000
  S   S190      1.0  0.50540  0.87242  0.74385  1.0000
  H   H762      1.0  0.45801  0.87788  0.69136  1.0000
  H   H763      1.0  0.26859  0.78570  0.84229  1.0000
  C   C474      1.0  0.50902  0.91085  0.87039  1.0000
  H   H764      1.0  0.50569  0.71118  0.69698  1.0000
  H   H765      1.0  0.50785  0.82169  0.84835  1.0000
  C   C475      1.0  0.45294  0.92607  0.01615  1.0000
  S   S191      1.0  0.51132  0.73495  0.75658  1.0000
  H   H766      1.0  0.26316  0.78435  0.88063  1.0000
  S   S192      1.0  0.60564  0.13399  0.07298  1.0000
  H   H767      1.0  0.74709  0.27273  0.32364  1.0000
  C   C476      1.0  0.69489  0.13260  0.03081  1.0000
  Fe  Fe97      1.0  0.65082  0.10865  0.06710  1.0000
  C   C477      1.0  0.67561  0.12953  0.28090  1.0000
  S   S193      1.0  0.67326  0.11161  0.10024  1.0000
  H   H768      1.0  0.68973  0.14938  0.07895  1.0000
  S   S194      1.0  0.52660  0.08139  0.09963  1.0000
  S   S195      1.0  0.62134  0.09428  0.07357  1.0000
  H   H769      1.0  0.69364  0.14922  0.32951  1.0000
  Fe  Fe98      1.0  0.68860  0.17646  0.24755  1.0000
  S   S196      1.0  0.68947  0.20380  0.23959  1.0000
  S   S197      1.0  0.69914  0.15982  0.22055  1.0000
  Fe  Fe99      1.0  0.67226  0.17336  0.30827  1.0000
  S   S198      1.0  0.67167  0.20037  0.30571  1.0000
  Fe  Fe100     1.0  0.66198  0.19247  0.25807  1.0000
  S   S199      1.0  0.63697  0.19289  0.23652  1.0000
  Fe  Fe101     1.0  0.69943  0.21014  0.28777  1.0000
  S   S200      1.0  0.72013  0.23766  0.30585  1.0000
  S   S201      1.0  0.66045  0.16478  0.26163  1.0000
  S   S202      1.0  0.70068  0.18353  0.29457  1.0000
  C   C478      1.0  0.51625  0.16007  0.19308  1.0000
  H   H770      1.0  0.53412  0.23284  0.20470  1.0000
  N   N50       1.0  0.69018  0.12758  0.29839  1.0000
  S   S203      1.0  0.54968  0.21134  0.27832  1.0000
  Fe  Fe102     1.0  0.56197  0.20276  0.31652  1.0000
  S   S204      1.0  0.59178  0.21445  0.32733  1.0000
  Fe  Fe103     1.0  0.52842  0.20953  0.30933  1.0000
  C   C479      1.0  0.54891  0.09618  0.09494  1.0000
  S   S205      1.0  0.54713  0.17348  0.30435  1.0000
  H   H771      1.0  0.67829  0.14391  0.27968  1.0000
  C   C480      1.0  0.74194  0.25027  0.29314  1.0000
  Fe  Fe104     1.0  0.53301  0.18182  0.26816  1.0000
  C   C481      1.0  0.62471  0.20021  0.26044  1.0000
  C   C482      1.0  0.60623  0.19447  0.25462  1.0000
  C   C483      1.0  0.59605  0.19918  0.27461  1.0000
  C   C484      1.0  0.60436  0.20982  0.30033  1.0000
  C   C485      1.0  0.62290  0.21590  0.30574  1.0000
  C   C486      1.0  0.63304  0.21108  0.28590  1.0000
  H   H772      1.0  0.59968  0.18613  0.23491  1.0000
  H   H773      1.0  0.58175  0.19447  0.27020  1.0000
  H   H774      1.0  0.57427  0.10375  0.02289  1.0000
  H   H775      1.0  0.64734  0.21598  0.29018  1.0000
  C   C487      1.0  0.67915  0.12527  0.13348  1.0000
  C   C488      1.0  0.66973  0.13503  0.14330  1.0000
  C   C489      1.0  0.67546  0.14577  0.17015  1.0000
  C   C490      1.0  0.69069  0.14683  0.18684  1.0000
  C   C491      1.0  0.69998  0.13715  0.17664  1.0000
  C   C492      1.0  0.69425  0.12646  0.15033  1.0000
  H   H776      1.0  0.65806  0.13419  0.13034  1.0000
  H   H777      1.0  0.66821  0.15321  0.17789  1.0000
  H   H778      1.0  0.71175  0.13790  0.18922  1.0000
  H   H779      1.0  0.70162  0.11903  0.14298  1.0000
  C   C493      1.0  0.70094  0.16385  0.02626  1.0000
  C   C494      1.0  0.58419  0.11948  0.08321  1.0000
  S   S206      1.0  0.64902  0.09662  0.02073  1.0000
  C   C495      1.0  0.57906  0.10094  0.08374  1.0000
  C   C496      1.0  0.52601  0.25235  0.30263  1.0000
  C   C497      1.0  0.55302  0.28043  0.30255  1.0000
  C   C498      1.0  0.55413  0.11477  0.09507  1.0000
  S   S207      1.0  0.55392  0.31414  0.29766  1.0000
  H   H780      1.0  0.54457  0.12019  0.09945  1.0000
  C   C499      1.0  0.74905  0.24359  0.27072  1.0000
  H   H781      1.0  0.55748  0.07493  0.08976  1.0000
  C   C500      1.0  0.74745  0.29454  0.23419  1.0000
  N   N51       1.0  0.62461  0.16179  0.15593  1.0000
  C   C501      1.0  0.62097  0.16926  0.12813  1.0000
  C   C502      1.0  0.61180  0.16161  0.17822  1.0000
  C   C503      1.0  0.64312  0.17310  0.16770  1.0000
  C   C504      1.0  0.62251  0.14323  0.14963  1.0000
  H   H782      1.0  0.63010  0.16921  0.11051  1.0000
  H   H783      1.0  0.62267  0.18335  0.13188  1.0000
  H   H784      1.0  0.60702  0.16114  0.11887  1.0000
  H   H785      1.0  0.61442  0.15645  0.19975  1.0000
  H   H786      1.0  0.61293  0.17542  0.18321  1.0000
  H   H787      1.0  0.59770  0.15303  0.17029  1.0000
  H   H788      1.0  0.64620  0.16803  0.18899  1.0000
  H   H789      1.0  0.64516  0.18722  0.17262  1.0000
  H   H790      1.0  0.65318  0.17344  0.15161  1.0000
  H   H791      1.0  0.63161  0.14283  0.13222  1.0000
  H   H792      1.0  0.60861  0.13428  0.14105  1.0000
  H   H793      1.0  0.62551  0.13725  0.16992  1.0000
  H   H794      1.0  0.69823  0.12252  0.04259  1.0000
  H   H795      1.0  0.67352  0.10036  0.30932  1.0000
  H   H796      1.0  0.69718  0.10635  0.31213  1.0000
  S   S208      1.0  0.53322  0.17444  0.21905  1.0000
  H   H797      1.0  0.73425  0.16937  0.04556  1.0000
  Fe  Fe105     1.0  0.52640  0.17434  0.33494  1.0000
  H   H798      1.0  0.67436  0.12419  0.25751  1.0000
  H   H799      1.0  0.52979  0.22779  0.24303  1.0000
  C   C505      1.0  0.57183  0.12644  0.08956  1.0000
  H   H800      1.0  0.70930  0.17803  0.03398  1.0000
  C   C506      1.0  0.56148  0.08931  0.08995  1.0000
  H   H801      1.0  0.74495  0.28864  0.21102  1.0000
  C   C507      1.0  0.75582  0.32449  0.21622  1.0000
  H   H802      1.0  0.53031  0.09221  0.18658  1.0000
  H   H803      1.0  0.60016  0.18190  0.33433  1.0000
  H   H804      1.0  0.70692  0.13284  0.26088  1.0000
  S   S209      1.0  0.64971  0.13369  0.05139  1.0000
  H   H805      1.0  0.71234  0.16644  0.08395  1.0000
  H   H806      1.0  0.60287  0.14915  0.30548  1.0000
  H   H807      1.0  0.67839  0.12744  0.34038  1.0000
  C   C508      1.0  0.52152  0.09687  0.19905  1.0000
  H   H808      1.0  0.55280  0.25415  0.30755  1.0000
  Fe  Fe106     1.0  0.61907  0.08438  0.02573  1.0000
  H   H809      1.0  0.53487  0.16556  0.15820  1.0000
  C   C509      1.0  0.68647  0.10833  0.29900  1.0000
  H   H810      1.0  0.62942  0.22425  0.32547  1.0000
  H   H811      1.0  0.58573  0.15892  0.34044  1.0000
  C   C510      1.0  0.52406  0.28110  0.29661  1.0000
  H   H812      1.0  0.58842  0.09542  0.07863  1.0000
  H   H813      1.0  0.74113  0.23037  0.26052  1.0000
  H   H814      1.0  0.68056  0.12903  0.03417  1.0000
  C   C511      1.0  0.70738  0.13767  0.28440  1.0000
  C   C512      1.0  0.72524  0.15546  0.03718  1.0000
  H   H815      1.0  0.57573  0.14078  0.08916  1.0000
  H   H816      1.0  0.71874  0.13644  0.29674  1.0000
  H   H817      1.0  0.66244  0.12253  0.29112  1.0000
  H   H818      1.0  0.61725  0.17226  0.29949  1.0000
  C   C513      1.0  0.75247  0.26750  0.30620  1.0000
  C   C514      1.0  0.54472  0.26155  0.30447  1.0000
  Fe  Fe107     1.0  0.62015  0.11868  0.05398  1.0000
  C   C515      1.0  0.51575  0.26221  0.29855  1.0000
  C   C516      1.0  0.70396  0.15265  0.07444  1.0000
  C   C517      1.0  0.69117  0.13480  0.32918  1.0000
  H   H819      1.0  0.73449  0.29367  0.24214  1.0000
  N   N52       1.0  0.76141  0.31330  0.23572  1.0000
  S   S210      1.0  0.54221  0.20348  0.34925  1.0000
  C   C518      1.0  0.61525  0.16085  0.31408  1.0000
  H   H820      1.0  0.62147  0.04298  0.03518  1.0000
  H   H821      1.0  0.52328  0.10511  0.14172  1.0000
  H   H822      1.0  0.68562  0.10249  0.27609  1.0000
  C   C519      1.0  0.52111  0.15816  0.16406  1.0000
  N   N53       1.0  0.70627  0.15116  0.04218  1.0000
  C   C520      1.0  0.60908  0.03180  0.02752  1.0000
  H   H823      1.0  0.56751  0.28743  0.30412  1.0000
  H   H824      1.0  0.62678  0.15735  0.31131  1.0000
  Fe  Fe108     1.0  0.54100  0.33379  0.30051  1.0000
  C   C521      1.0  0.54277  0.29032  0.29879  1.0000
  H   H825      1.0  0.72960  0.14603  0.04884  1.0000
  H   H826      1.0  0.70762  0.14306  0.08712  1.0000
  H   H827      1.0  0.53006  0.11063  0.20870  1.0000
  H   H828      1.0  0.71059  0.15227  0.28363  1.0000
  H   H829      1.0  0.63328  0.19304  0.34208  1.0000
  H   H830      1.0  0.53470  0.21282  0.21890  1.0000
  H   H831      1.0  0.70212  0.13375  0.34310  1.0000
  H   H832      1.0  0.74299  0.32452  0.22297  1.0000
  H   H833      1.0  0.51630  0.08783  0.21791  1.0000
  H   H834      1.0  0.61796  0.01151  0.04013  1.0000
  C   C522      1.0  0.52756  0.22169  0.21997  1.0000
  H   H835      1.0  0.68667  0.16095  0.02965  1.0000
  H   H836      1.0  0.75161  0.32085  0.27493  1.0000
  H   H837      1.0  0.51601  0.28850  0.29338  1.0000
  H   H838      1.0  0.75148  0.28571  0.24824  1.0000
  H   H839      1.0  0.52243  0.12319  0.16351  1.0000
  H   H840      1.0  0.55029  0.09378  0.02467  1.0000
  C   C523      1.0  0.51435  0.10913  0.15488  1.0000
  S   S211      1.0  0.65631  0.15108  0.33876  1.0000
  C   C524      1.0  0.59863  0.17031  0.34811  1.0000
  C   C525      1.0  0.60704  0.01393  0.03030  1.0000
  H   H841      1.0  0.57382  0.13413  0.02784  1.0000
  H   H842      1.0  0.54973  0.12331  0.02848  1.0000
  N   N54       1.0  0.61398  0.16561  0.34554  1.0000
  S   S212      1.0  0.51485  0.22867  0.30571  1.0000
  H   H843      1.0  0.75392  0.31951  0.19254  1.0000
  H   H844      1.0  0.53424  0.31322  0.35037  1.0000
  S   S213      1.0  0.62746  0.08575  0.47229  1.0000
  Fe  Fe109     1.0  0.65015  0.11077  0.49226  1.0000
  S   S214      1.0  0.67364  0.13150  0.46895  1.0000
  C   C526      1.0  0.53691  0.15168  0.50673  1.0000
  H   H845      1.0  0.63553  0.12453  0.37852  1.0000
  C   C527      1.0  0.66886  0.13729  0.43297  1.0000
  C   C528      1.0  0.65203  0.12780  0.41844  1.0000
  C   C529      1.0  0.64851  0.13228  0.38967  1.0000
  C   C530      1.0  0.66164  0.14653  0.37526  1.0000
  C   C531      1.0  0.67848  0.15621  0.38981  1.0000
  C   C532      1.0  0.68209  0.15151  0.41853  1.0000
  H   H846      1.0  0.64174  0.11680  0.42924  1.0000
  N   N55       1.0  0.52700  0.05922  0.54559  1.0000
  H   H847      1.0  0.52334  0.14547  0.49551  1.0000
  H   H848      1.0  0.69517  0.15891  0.42962  1.0000
  H   H849      1.0  0.53832  0.08555  0.56737  1.0000
  H   H850      1.0  0.53890  0.14086  0.51838  1.0000
  H   H851      1.0  0.69071  0.13746  0.65251  1.0000
  H   H852      1.0  0.53796  0.11125  0.50924  1.0000
  H   H853      1.0  0.55163  0.09907  0.47206  1.0000
  H   H854      1.0  0.55239  0.14173  0.67520  1.0000
  H   H855      1.0  0.56989  0.17753  0.51909  1.0000
  S   S215      1.0  0.55080  0.12797  0.56814  1.0000
  Fe  Fe110     1.0  0.62838  0.07343  0.51628  1.0000
  S   S216      1.0  0.62538  0.04465  0.51851  1.0000
  Fe  Fe111     1.0  0.63335  0.10729  0.55304  1.0000
  S   S217      1.0  0.63225  0.12186  0.51184  1.0000
  S   S218      1.0  0.63291  0.12194  0.59641  1.0000
  Fe  Fe112     1.0  0.60984  0.09598  0.49543  1.0000
  S   S219      1.0  0.58480  0.09569  0.47388  1.0000
  S   S220      1.0  0.60910  0.08208  0.53800  1.0000
  S   S221      1.0  0.65295  0.09767  0.53476  1.0000
  C   C533      1.0  0.64918  0.13169  0.62616  1.0000
  C   C534      1.0  0.66535  0.12994  0.62788  1.0000
  H   H856      1.0  0.51681  0.04680  0.58676  1.0000
  C   C535      1.0  0.64584  0.14200  0.64838  1.0000
  H   H857      1.0  0.66793  0.12173  0.61128  1.0000
  H   H858      1.0  0.59881  0.13810  0.35698  1.0000
  H   H859      1.0  0.63335  0.14341  0.64726  1.0000
  C   C536      1.0  0.54193  0.31169  0.37015  1.0000
  C   C537      1.0  0.56032  0.11951  0.54132  1.0000
  C   C538      1.0  0.55103  0.11182  0.51421  1.0000
  C   C539      1.0  0.55879  0.10494  0.49310  1.0000
  C   C540      1.0  0.57563  0.10525  0.49949  1.0000
  C   C541      1.0  0.58485  0.11279  0.52671  1.0000
  C   C542      1.0  0.57732  0.12016  0.54742  1.0000
  H   H860      1.0  0.59771  0.11283  0.53211  1.0000
  H   H861      1.0  0.58451  0.12593  0.56848  1.0000
  C   C543      1.0  0.60394  0.02669  0.51078  1.0000
  C   C544      1.0  0.58838  0.02959  0.50969  1.0000
  H   H862      1.0  0.58940  0.04310  0.51254  1.0000
  N   N56       1.0  0.68168  0.16228  0.55319  1.0000
  C   C545      1.0  0.69940  0.17225  0.54076  1.0000
  C   C546      1.0  0.66767  0.16401  0.53374  1.0000
  C   C547      1.0  0.68154  0.16961  0.58348  1.0000
  C   C548      1.0  0.67802  0.14310  0.55466  1.0000
  H   H863      1.0  0.69976  0.16690  0.51787  1.0000
  H   H864      1.0  0.71025  0.17108  0.55480  1.0000
  H   H865      1.0  0.70265  0.18681  0.53924  1.0000
  H   H866      1.0  0.65416  0.15690  0.54289  1.0000
  H   H867      1.0  0.67019  0.17833  0.53146  1.0000
  H   H868      1.0  0.66702  0.15806  0.51093  1.0000
  H   H869      1.0  0.66817  0.16249  0.59310  1.0000
  H   H870      1.0  0.68456  0.18416  0.58339  1.0000
  H   H871      1.0  0.69155  0.16803  0.59909  1.0000
  H   H872      1.0  0.66449  0.13507  0.56291  1.0000
  H   H873      1.0  0.68796  0.14112  0.56985  1.0000
  H   H874      1.0  0.67848  0.13723  0.53233  1.0000
  C   C549      1.0  0.56870  0.16743  0.50123  1.0000
  H   H875      1.0  0.53638  0.14075  0.45011  1.0000
  C   C550      1.0  0.54984  0.14684  0.46194  1.0000
  H   H876      1.0  0.54806  0.30888  0.42833  1.0000
  H   H877      1.0  0.59734  0.17418  0.37146  1.0000
  C   C551      1.0  0.53295  0.04533  0.53633  1.0000
  H   H878      1.0  0.53244  0.28567  0.43055  1.0000
  C   C552      1.0  0.54804  0.17504  0.47129  1.0000
  N   N57       1.0  0.55089  0.16026  0.48528  1.0000
  H   H879      1.0  0.57967  0.17395  0.48582  1.0000
  C   C553      1.0  0.61133  0.15011  0.36410  1.0000
  C   C554      1.0  0.63075  0.18117  0.35585  1.0000
  S   S222      1.0  0.51640  0.15051  0.36544  1.0000
  H   H880      1.0  0.55986  0.15298  0.44488  1.0000
  H   H881      1.0  0.55360  0.08055  0.54556  1.0000
  H   H882      1.0  0.54839  0.18528  0.48822  1.0000
  H   H883      1.0  0.55255  0.30809  0.36159  1.0000
  H   H884      1.0  0.55230  0.13567  0.47150  1.0000
  H   H885      1.0  0.54748  0.07061  0.58091  1.0000
  C   C555      1.0  0.51955  0.17053  0.67381  1.0000
  C   C556      1.0  0.67483  0.14919  0.67344  1.0000
  H   H886      1.0  0.64257  0.17800  0.35441  1.0000
  H   H887      1.0  0.62265  0.14618  0.36257  1.0000
  H   H888      1.0  0.68872  0.16721  0.37895  1.0000
  H   H889      1.0  0.53681  0.16151  0.52409  1.0000
  H   H890      1.0  0.53805  0.04038  0.55580  1.0000
  H   H891      1.0  0.52879  0.18265  0.66393  1.0000
  H   H892      1.0  0.55948  0.01733  0.50457  1.0000
  C   C557      1.0  0.65856  0.15068  0.67194  1.0000
  C   C558      1.0  0.52107  0.28050  0.37275  1.0000
  H   H893      1.0  0.57107  0.15649  0.51220  1.0000
  H   H894      1.0  0.53086  0.07073  0.50241  1.0000
  H   H895      1.0  0.55837  0.18194  0.45500  1.0000
  H   H896      1.0  0.51621  0.07617  0.52512  1.0000
  C   C559      1.0  0.52039  0.06536  0.51902  1.0000
  C   C560      1.0  0.54225  0.07464  0.56053  1.0000
  C   C561      1.0  0.67818  0.13876  0.65137  1.0000
  C   C562      1.0  0.57143  0.01495  0.50517  1.0000
  H   H897      1.0  0.57170  0.17449  0.67556  1.0000
  H   H898      1.0  0.53473  0.16987  0.45896  1.0000
  H   H899      1.0  0.54400  0.05073  0.52062  1.0000
  H   H900      1.0  0.63026  0.18530  0.37940  1.0000
  H   H901      1.0  0.52284  0.31662  0.41367  1.0000
  H   H902      1.0  0.53096  0.27622  0.36299  1.0000
  H   H903      1.0  0.61050  0.15326  0.38804  1.0000
  Fe  Fe113     1.0  0.52098  0.11810  0.56179  1.0000
  H   H904      1.0  0.54871  0.32512  0.38191  1.0000
  H   H905      1.0  0.55129  0.29166  0.40745  1.0000
  N   N58       1.0  0.53010  0.29789  0.38975  1.0000
  C   C563      1.0  0.51650  0.30350  0.40078  1.0000
  H   H906      1.0  0.52177  0.03354  0.52485  1.0000
  C   C564      1.0  0.54095  0.29594  0.41519  1.0000
  C   C565      1.0  0.54397  0.10761  0.97345  1.0000
  C   C566      1.0  0.55709  0.16118  0.74451  1.0000
  S   S223      1.0  0.66470  0.14229  0.97507  1.0000
  Fe  Fe114     1.0  0.68434  0.17447  0.74069  1.0000
  S   S224      1.0  0.68368  0.20160  0.74094  1.0000
  S   S225      1.0  0.69120  0.16019  0.70257  1.0000
  Fe  Fe115     1.0  0.67258  0.16730  0.80463  1.0000
  S   S226      1.0  0.67070  0.19368  0.81019  1.0000
  S   S227      1.0  0.66292  0.14266  0.83316  1.0000
  Fe  Fe116     1.0  0.65784  0.18801  0.76394  1.0000
  S   S228      1.0  0.63357  0.19206  0.74752  1.0000
  Fe  Fe117     1.0  0.69689  0.20592  0.78705  1.0000
  S   S229      1.0  0.71581  0.23409  0.80574  1.0000
  S   S230      1.0  0.65753  0.16077  0.75998  1.0000
  S   S231      1.0  0.69978  0.17976  0.78519  1.0000
  H   H907      1.0  0.57798  0.18750  0.71024  1.0000
  S   S232      1.0  0.54188  0.20598  0.86205  1.0000
  H   H908      1.0  0.68748  0.27136  0.82891  1.0000
  Fe  Fe118     1.0  0.53293  0.19241  0.77748  1.0000
  S   S233      1.0  0.55352  0.21963  0.79482  1.0000
  Fe  Fe119     1.0  0.56070  0.20394  0.82892  1.0000
  S   S234      1.0  0.58885  0.20939  0.84433  1.0000
  Fe  Fe120     1.0  0.53271  0.21925  0.82598  1.0000
  C   C567      1.0  0.68162  0.11034  0.73367  1.0000
  S   S235      1.0  0.54172  0.17670  0.80969  1.0000
  H   H909      1.0  0.57657  0.14320  0.73014  1.0000
  H   H910      1.0  0.69953  0.26105  0.80925  1.0000
  H   H911      1.0  0.52389  0.22279  0.89810  1.0000
  C   C568      1.0  0.62100  0.19641  0.77471  1.0000
  C   C569      1.0  0.60715  0.20114  0.76572  1.0000
  C   C570      1.0  0.59694  0.20475  0.78697  1.0000
  C   C571      1.0  0.60090  0.20413  0.81735  1.0000
  C   C572      1.0  0.61491  0.19965  0.82635  1.0000
  C   C573      1.0  0.62477  0.19553  0.80506  1.0000
  H   H912      1.0  0.60448  0.20220  0.74229  1.0000
  H   H913      1.0  0.58628  0.20844  0.77994  1.0000
  H   H914      1.0  0.61789  0.19902  0.84985  1.0000
  H   H915      1.0  0.63513  0.19152  0.81219  1.0000
  C   C574      1.0  0.66291  0.14232  0.93561  1.0000
  C   C575      1.0  0.65258  0.12672  0.91827  1.0000
  C   C576      1.0  0.65255  0.12711  0.88691  1.0000
  C   C577      1.0  0.66256  0.14312  0.87260  1.0000
  C   C578      1.0  0.67258  0.15881  0.88995  1.0000
  C   C579      1.0  0.67288  0.15834  0.92129  1.0000
  H   H916      1.0  0.64493  0.11428  0.92898  1.0000
  H   H917      1.0  0.64478  0.11490  0.87369  1.0000
  H   H918      1.0  0.68039  0.17119  0.87924  1.0000
  H   H919      1.0  0.68093  0.17046  0.93451  1.0000
  C   C580      1.0  0.73759  0.24801  0.79401  1.0000
  H   H920      1.0  0.66953  0.24154  0.76031  1.0000
  H   H921      1.0  0.55387  0.14895  0.75763  1.0000
  H   H922      1.0  0.56059  0.08800  0.99411  1.0000
  H   H923      1.0  0.66661  0.10779  0.80378  1.0000
  H   H924      1.0  0.65337  0.25581  0.78796  1.0000
  C   C581      1.0  0.56721  0.17564  0.69824  1.0000
  H   H925      1.0  0.52094  0.29937  0.83091  1.0000
  H   H926      1.0  0.53971  0.25014  0.74682  1.0000
  H   H927      1.0  0.74069  0.22746  0.76757  1.0000
  H   H928      1.0  0.53378  0.22657  0.74021  1.0000
  C   C582      1.0  0.56146  0.09928  0.00925  1.0000
  H   H929      1.0  0.53595  0.16833  0.90349  1.0000
  C   C583      1.0  0.74690  0.24139  0.77555  1.0000
  H   H930      1.0  0.65536  0.12513  0.77186  1.0000
  C   C584      1.0  0.57633  0.12170  0.97357  1.0000
  H   H931      1.0  0.67074  0.09773  0.72374  1.0000
  H   H932      1.0  0.67220  0.24320  0.85567  1.0000
  C   C585      1.0  0.52525  0.15845  0.91540  1.0000
  H   H933      1.0  0.52245  0.24989  0.70023  1.0000
  C   C586      1.0  0.66011  0.12026  0.75214  1.0000
  H   H934      1.0  0.65991  0.22229  0.83509  1.0000
  H   H935      1.0  0.56763  0.17273  0.75762  1.0000
  Fe  Fe121     1.0  0.64608  0.12121  0.00518  1.0000
  H   H936      1.0  0.70211  0.16279  0.00174  1.0000
  S   S236      1.0  0.53077  0.19007  0.72681  1.0000
  H   H937      1.0  0.68399  0.23284  0.83549  1.0000
  H   H938      1.0  0.65965  0.09025  0.77510  1.0000
  C   C587      1.0  0.53069  0.26274  0.82574  1.0000
  N   N59       1.0  0.56073  0.11427  0.99244  1.0000
  C   C588      1.0  0.65442  0.24830  0.80771  1.0000
  H   H939      1.0  0.68247  0.10007  0.79020  1.0000
  H   H940      1.0  0.57655  0.11124  0.95762  1.0000
  H   H941      1.0  0.68329  0.23285  0.77999  1.0000
  H   H942      1.0  0.57614  0.13296  0.96040  1.0000
  Fe  Fe122     1.0  0.54171  0.34249  0.80784  1.0000
  H   H943      1.0  0.56225  0.29301  0.78353  1.0000
  H   H944      1.0  0.68535  0.12056  0.71612  1.0000
  H   H945      1.0  0.65582  0.15869  0.68873  1.0000
  C   C589      1.0  0.52930  0.23636  0.75041  1.0000
  Fe  Fe123     1.0  0.52227  0.17976  0.84081  1.0000
  H   H946      1.0  0.72738  0.15444  0.01302  1.0000
  N   N60       1.0  0.67097  0.24542  0.80808  1.0000
  H   H947      1.0  0.54483  0.16370  0.74295  1.0000
  N   N61       1.0  0.67584  0.11679  0.76044  1.0000
  H   H948      1.0  0.64867  0.10792  0.74275  1.0000
  H   H949      1.0  0.54306  0.09677  0.95728  1.0000
  H   H950      1.0  0.68674  0.13896  0.79265  1.0000
  H   H951      1.0  0.53196  0.10211  0.98708  1.0000
  H   H952      1.0  0.69477  0.14424  0.75599  1.0000
  H   H953      1.0  0.73886  0.27145  0.81843  1.0000
  C   C590      1.0  0.67180  0.23552  0.83477  1.0000
  H   H954      1.0  0.68684  0.27067  0.78880  1.0000
  C   C591      1.0  0.69068  0.13357  0.77262  1.0000
  H   H955      1.0  0.59045  0.16693  0.73022  1.0000
  H   H956      1.0  0.54268  0.15863  0.95261  1.0000
  H   H957      1.0  0.70274  0.13144  0.77930  1.0000
  C   C592      1.0  0.52778  0.29125  0.82436  1.0000
  H   H958      1.0  0.55245  0.26203  0.80161  1.0000
  H   H959      1.0  0.65392  0.25600  0.82805  1.0000
  H   H960      1.0  0.58920  0.12700  0.98732  1.0000
  C   C593      1.0  0.55095  0.28758  0.79759  1.0000
  C   C594      1.0  0.57921  0.15561  0.71778  1.0000
  C   C595      1.0  0.54534  0.26995  0.80767  1.0000
  S   S237      1.0  0.54963  0.32034  0.79193  1.0000
  C   C596      1.0  0.67094  0.10307  0.78334  1.0000
  H   H961      1.0  0.66336  0.13063  0.73498  1.0000
  H   H962      1.0  0.69353  0.10765  0.73897  1.0000
  C   C597      1.0  0.67079  0.23485  0.78097  1.0000
  C   C598      1.0  0.68688  0.26294  0.80882  1.0000
  H   H963      1.0  0.65940  0.22132  0.78026  1.0000
  H   H964      1.0  0.54294  0.11861  0.96056  1.0000
  C   C599      1.0  0.54227  0.29838  0.80593  1.0000
  H   H965      1.0  0.64221  0.23525  0.80675  1.0000
  C   C600      1.0  0.56119  0.12852  0.01355  1.0000
  C   C601      1.0  0.74594  0.26616  0.80419  1.0000
  C   C602      1.0  0.52903  0.15291  0.94328  1.0000
  H   H966      1.0  0.56837  0.02281  0.99409  1.0000
  S   S238      1.0  0.61602  0.10832  0.00654  1.0000
  H   H967      1.0  0.52895  0.23448  0.77484  1.0000
  S   S239      1.0  0.52099  0.13366  0.99418  1.0000
  C   C603      1.0  0.52198  0.27351  0.83403  1.0000
  C   C604      1.0  0.54849  0.14371  0.69798  1.0000
  N   N62       1.0  0.56300  0.15902  0.71463  1.0000
  H   H968      1.0  0.56018  0.13985  0.00164  1.0000
  H   H969      1.0  0.69607  0.13093  0.00644  1.0000
  H   H970      1.0  0.54490  0.13091  0.70966  1.0000
  S   S240      1.0  0.52228  0.24019  0.83748  1.0000
  H   H971      1.0  0.58409  0.15394  0.69566  1.0000
  H   H972      1.0  0.55530  0.17863  0.69554  1.0000
  C   C605      1.0  0.57918  0.02040  0.00438  1.0000
  H   H973      1.0  0.53605  0.14586  0.69529  1.0000
  H   H974      1.0  0.51886  0.19205  0.91379  1.0000
  H   H975      1.0  0.51631  0.26111  0.74898  1.0000
  C   C606      1.0  0.51762  0.17035  0.70476  1.0000
  C   C607      1.0  0.51533  0.14006  0.95915  1.0000
  S   S241      1.0  0.59705  0.05727  0.00906  1.0000
  H   H976      1.0  0.51796  0.22785  0.93398  1.0000
  H   H977      1.0  0.51642  0.22625  0.69411  1.0000
  C   C608      1.0  0.59517  0.03512  0.01433  1.0000
  H   H978      1.0  0.51340  0.19737  0.94991  1.0000
  S   S242      1.0  0.51380  0.33944  0.81628  1.0000
  S   S243      1.0  0.68243  0.47649  0.22873  1.0000
  S   S244      1.0  0.68062  0.49114  0.29691  1.0000
  H   H979      1.0  0.66526  0.54655  0.12899  1.0000
  Fe  Fe124     1.0  0.66305  0.46825  0.26535  1.0000
  S   S245      1.0  0.65000  0.43946  0.27982  1.0000
  S   S246      1.0  0.55573  0.43893  0.09773  1.0000
  H   H980      1.0  0.53835  0.65062  0.17757  1.0000
  S   S247      1.0  0.55127  0.35549  0.33730  1.0000
  Fe  Fe125     1.0  0.54939  0.37373  0.30200  1.0000
  S   S248      1.0  0.56647  0.40345  0.29781  1.0000
  H   H981      1.0  0.59145  0.43338  0.21139  1.0000
  C   C609      1.0  0.55380  0.50623  0.06251  1.0000
  H   H982      1.0  0.62949  0.45417  0.19240  1.0000
  H   H983      1.0  0.55904  0.67216  0.23450  1.0000
  H   H984      1.0  0.59047  0.46633  0.08571  1.0000
  H   H985      1.0  0.59874  0.47507  0.17134  1.0000
  C   C610      1.0  0.51617  0.64040  0.22259  1.0000
  H   H986      1.0  0.72630  0.47833  0.24754  1.0000
  C   C611      1.0  0.65988  0.53225  0.12374  1.0000
  C   C612      1.0  0.58341  0.46025  0.06470  1.0000
  S   S249      1.0  0.64709  0.48236  0.24715  1.0000
  S   S250      1.0  0.72946  0.51436  0.26453  1.0000
  C   C613      1.0  0.74032  0.48715  0.25228  1.0000
  H   H987      1.0  0.55458  0.55710  0.02923  1.0000
  C   C614      1.0  0.58934  0.41230  0.29042  1.0000
  C   C615      1.0  0.59961  0.40260  0.29487  1.0000
  C   C616      1.0  0.61819  0.41087  0.29081  1.0000
  C   C617      1.0  0.62646  0.42872  0.28187  1.0000
  C   C618      1.0  0.61598  0.43809  0.27655  1.0000
  C   C619      1.0  0.59758  0.43003  0.28119  1.0000
  H   H988      1.0  0.59333  0.38891  0.30206  1.0000
  H   H989      1.0  0.62619  0.40349  0.29495  1.0000
  H   H990      1.0  0.62206  0.45172  0.26965  1.0000
  H   H991      1.0  0.58968  0.43759  0.27784  1.0000
  H   H992      1.0  0.53660  0.64019  0.27049  1.0000
  Fe  Fe126     1.0  0.69882  0.50071  0.25853  1.0000
  C   C620      1.0  0.56635  0.44594  0.06435  1.0000
  Fe  Fe127     1.0  0.66576  0.50591  0.27638  1.0000
  H   H993      1.0  0.75303  0.42579  0.29566  1.0000
  H   H994      1.0  0.53587  0.67605  0.12375  1.0000
  H   H995      1.0  0.62841  0.52661  0.34149  1.0000
  Fe  Fe128     1.0  0.66748  0.49237  0.21252  1.0000
  C   C621      1.0  0.52521  0.66274  0.12580  1.0000
  H   H996      1.0  0.59455  0.44320  0.13045  1.0000
  H   H997      1.0  0.66831  0.52611  0.16668  1.0000
  H   H998      1.0  0.51822  0.49308  0.05079  1.0000
  H   H999      1.0  0.54892  0.51698  0.06272  1.0000
  C   C622      1.0  0.54213  0.64372  0.19583  1.0000
  S   S251      1.0  0.60360  0.51396  0.02821  1.0000
  H   H1000     1.0  0.54070  0.67423  0.21469  1.0000
  C   C623      1.0  0.55726  0.43811  0.03713  1.0000
  N   N63       1.0  0.60350  0.45142  0.17628  1.0000
  C   C624      1.0  0.61872  0.44641  0.17517  1.0000
  C   C625      1.0  0.60984  0.47077  0.17063  1.0000
  C   C626      1.0  0.59599  0.44780  0.20606  1.0000
  C   C627      1.0  0.58946  0.44071  0.15329  1.0000
  H   H1001     1.0  0.55343  0.50144  0.08558  1.0000
  H   H1002     1.0  0.58423  0.45106  0.20755  1.0000
  S   S252      1.0  0.51547  0.65714  0.30267  1.0000
  H   H1003     1.0  0.70306  0.52285  0.15124  1.0000
  H   H1004     1.0  0.63386  0.43917  0.34316  1.0000
  H   H1005     1.0  0.60416  0.47843  0.03816  1.0000
  C   C628      1.0  0.52471  0.64836  0.10770  1.0000
  Fe  Fe129     1.0  0.63315  0.53019  0.02537  1.0000
  H   H1006     1.0  0.61445  0.43186  0.17911  1.0000
  H   H1007     1.0  0.61767  0.57607  0.02855  1.0000
  C   C629      1.0  0.74536  0.50508  0.26153  1.0000
  H   H1008     1.0  0.55582  0.64230  0.25058  1.0000
  H   H1009     1.0  0.69627  0.50740  0.18072  1.0000
  H   H1010     1.0  0.60612  0.45598  0.22385  1.0000
  H   H1011     1.0  0.62748  0.58025  0.12311  1.0000
  C   C630      1.0  0.66166  0.52069  0.14513  1.0000
  H   H1012     1.0  0.74943  0.46675  0.24151  1.0000
  C   C631      1.0  0.63634  0.47187  0.32874  1.0000
  H   H1013     1.0  0.72085  0.52925  0.21311  1.0000
  S   S253      1.0  0.53003  0.60834  0.02784  1.0000
  H   H1014     1.0  0.60765  0.58131  0.10701  1.0000
  S   S254      1.0  0.65151  0.51993  0.30148  1.0000
  H   H1015     1.0  0.52295  0.47745  0.07269  1.0000
  H   H1016     1.0  0.61563  0.47395  0.14835  1.0000
  N   N64       1.0  0.53589  0.64710  0.22474  1.0000
  H   H1017     1.0  0.64920  0.57617  0.09028  1.0000
  H   H1018     1.0  0.64531  0.57474  0.05082  1.0000
  H   H1019     1.0  0.70059  0.50018  0.14533  1.0000
  C   C632      1.0  0.75348  0.48060  0.24895  1.0000
  S   S255      1.0  0.54178  0.65202  0.08269  1.0000
  H   H1020     1.0  0.73203  0.51180  0.12932  1.0000
  C   C633      1.0  0.72635  0.50234  0.18604  1.0000
  N   N65       1.0  0.72424  0.51749  0.17197  1.0000
  H   H1021     1.0  0.65118  0.59582  0.07074  1.0000
  H   H1022     1.0  0.52755  0.63868  0.34505  1.0000
  H   H1023     1.0  0.64269  0.46624  0.31263  1.0000
  C   C634      1.0  0.59106  0.46720  0.03782  1.0000
  H   H1024     1.0  0.56807  0.51261  0.05648  1.0000
  S   S256      1.0  0.54145  0.35279  0.26445  1.0000
  H   H1025     1.0  0.54414  0.42694  0.03675  1.0000
  H   H1026     1.0  0.53947  0.66972  0.25366  1.0000
  H   H1027     1.0  0.56437  0.48340  0.03523  1.0000
  C   C635      1.0  0.65126  0.52542  0.09561  1.0000
  H   H1028     1.0  0.73441  0.53445  0.13497  1.0000
  C   C636      1.0  0.70527  0.51176  0.16181  1.0000
  H   H1029     1.0  0.67664  0.51867  0.34799  1.0000
  H   H1030     1.0  0.62058  0.47928  0.18739  1.0000
  H   H1031     1.0  0.61955  0.55112  0.09554  1.0000
  H   H1032     1.0  0.59964  0.55220  0.07920  1.0000
  H   H1033     1.0  0.58435  0.42601  0.15671  1.0000
  Fe  Fe130     1.0  0.52226  0.34872  0.34383  1.0000
  H   H1034     1.0  0.53478  0.62286  0.24372  1.0000
  H   H1035     1.0  0.75011  0.52752  0.15324  1.0000
  C   C637      1.0  0.72966  0.53280  0.19389  1.0000
  C   C638      1.0  0.73571  0.52307  0.14621  1.0000
  H   H1036     1.0  0.62495  0.44928  0.15319  1.0000
  S   S257      1.0  0.68506  0.51736  0.23989  1.0000
  H   H1037     1.0  0.57773  0.44410  0.15358  1.0000
  S   S258      1.0  0.65746  0.48708  0.16374  1.0000
  Fe  Fe131     1.0  0.53473  0.63708  0.03759  1.0000
  S   S259      1.0  0.64962  0.54043  0.06910  1.0000
  C   C639      1.0  0.54416  0.66666  0.23221  1.0000
  C   C640      1.0  0.64435  0.50691  0.08909  1.0000
  C   C641      1.0  0.64634  0.49541  0.11029  1.0000
  H   H1038     1.0  0.60215  0.57908  0.05222  1.0000
  H   H1039     1.0  0.53609  0.62911  0.18935  1.0000
  H   H1040     1.0  0.63774  0.50149  0.06752  1.0000
  H   H1041     1.0  0.64122  0.48115  0.10479  1.0000
  H   H1042     1.0  0.61562  0.54963  0.05607  1.0000
  C   C642      1.0  0.65500  0.50222  0.13837  1.0000
  H   H1043     1.0  0.62230  0.46818  0.32035  1.0000
  H   H1044     1.0  0.74047  0.50622  0.19432  1.0000
  C   C643      1.0  0.55008  0.47759  0.04115  1.0000
  H   H1045     1.0  0.62378  0.59731  0.04807  1.0000
  H   H1046     1.0  0.72237  0.49050  0.17029  1.0000
  Fe  Fe132     1.0  0.52612  0.42453  0.08663  1.0000
  C   C644      1.0  0.54103  0.63767  0.24838  1.0000
  H   H1047     1.0  0.71794  0.49785  0.20564  1.0000
  N   N66       1.0  0.62405  0.57618  0.07548  1.0000
  C   C645      1.0  0.62202  0.58474  0.10347  1.0000
  C   C646      1.0  0.61424  0.55643  0.07677  1.0000
  C   C647      1.0  0.64327  0.58101  0.07170  1.0000
  C   C648      1.0  0.61664  0.58248  0.05003  1.0000
  H   H1048     1.0  0.62923  0.59967  0.10325  1.0000
  N   N67       1.0  0.54286  0.49128  0.04118  1.0000
  C   C649      1.0  0.52406  0.48310  0.05012  1.0000
  S   S260      1.0  0.52109  0.36859  0.31158  1.0000
  C   C650      1.0  0.51812  0.65943  0.34188  1.0000
  H   H1049     1.0  0.64363  0.48672  0.32844  1.0000
  H   H1050     1.0  0.72889  0.54474  0.18386  1.0000
  H   H1051     1.0  0.74359  0.53687  0.20331  1.0000
  H   H1052     1.0  0.54936  0.47166  0.06342  1.0000
  H   H1053     1.0  0.54251  0.46635  0.02466  1.0000
  H   H1054     1.0  0.51532  0.47185  0.03443  1.0000
  C   C651      1.0  0.65243  0.52228  0.34092  1.0000
  H   H1055     1.0  0.55698  0.64868  0.19648  1.0000
  H   H1056     1.0  0.61326  0.44084  0.34918  1.0000
  H   H1057     1.0  0.75692  0.42600  0.33534  1.0000
  S   S261      1.0  0.51383  0.43563  0.05203  1.0000
  Fe  Fe133     1.0  0.51327  0.34651  0.27643  1.0000
  S   S262      1.0  0.51275  0.39625  0.06745  1.0000
  H   H1058     1.0  0.52758  0.47558  0.48011  1.0000
  H   H1059     1.0  0.65717  0.46606  0.39157  1.0000
  S   S263      1.0  0.61462  0.50514  0.49418  1.0000
  S   S264      1.0  0.56514  0.49588  0.47063  1.0000
  H   H1060     1.0  0.54251  0.51179  0.53865  1.0000
  C   C652      1.0  0.55382  0.48627  0.50248  1.0000
  C   C653      1.0  0.53512  0.47683  0.50095  1.0000
  C   C654      1.0  0.52615  0.46873  0.52633  1.0000
  C   C655      1.0  0.53586  0.47047  0.55338  1.0000
  C   C656      1.0  0.55450  0.48010  0.55495  1.0000
  C   C657      1.0  0.56349  0.48764  0.52939  1.0000
  H   H1061     1.0  0.56208  0.48113  0.57569  1.0000
  H   H1062     1.0  0.57795  0.49391  0.53046  1.0000
  H   H1063     1.0  0.53397  0.42738  0.50426  1.0000
  C   C658      1.0  0.54459  0.44351  0.45322  1.0000
  N   N68       1.0  0.55562  0.43876  0.47500  1.0000
  H   H1064     1.0  0.54312  0.51846  0.47352  1.0000
  H   H1065     1.0  0.55582  0.43327  0.52167  1.0000
  H   H1066     1.0  0.57487  0.46619  0.48340  1.0000
  H   H1067     1.0  0.62208  0.55700  0.65450  1.0000
  C   C659      1.0  0.52414  0.65090  0.63748  1.0000
  C   C660      1.0  0.63373  0.50382  0.63473  1.0000
  C   C661      1.0  0.55533  0.42125  0.46578  1.0000
  H   H1068     1.0  0.62868  0.52933  0.39678  1.0000
  H   H1069     1.0  0.56543  0.54387  0.54306  1.0000
  H   H1070     1.0  0.56032  0.42155  0.44305  1.0000
  H   H1071     1.0  0.51920  0.38116  0.38285  1.0000
  H   H1072     1.0  0.62083  0.49235  0.63508  1.0000
  C   C662      1.0  0.62740  0.44548  0.35799  1.0000
  H   H1073     1.0  0.54470  0.45676  0.45921  1.0000
  C   C663      1.0  0.55481  0.54762  0.53377  1.0000
  H   H1074     1.0  0.52312  0.50566  0.51384  1.0000
  C   C664      1.0  0.64618  0.50757  0.65912  1.0000
  H   H1075     1.0  0.51551  0.65821  0.67857  1.0000
  C   C665      1.0  0.65602  0.47077  0.36890  1.0000
  C   C666      1.0  0.52395  0.66314  0.40443  1.0000
  H   H1076     1.0  0.53033  0.43341  0.45219  1.0000
  C   C667      1.0  0.54822  0.43737  0.50474  1.0000
  H   H1077     1.0  0.58297  0.44976  0.49264  1.0000
  H   H1078     1.0  0.54860  0.45037  0.51283  1.0000
  H   H1079     1.0  0.54958  0.44439  0.43040  1.0000
  H   H1080     1.0  0.56373  0.41734  0.48144  1.0000
  C   C668      1.0  0.51375  0.65715  0.65451  1.0000
  H   H1081     1.0  0.58024  0.45443  0.45421  1.0000
  H   H1082     1.0  0.71575  0.55287  0.67383  1.0000
  H   H1083     1.0  0.54145  0.41033  0.46540  1.0000
  C   C669      1.0  0.57427  0.45285  0.47633  1.0000
  H   H1084     1.0  0.56168  0.56052  0.52251  1.0000
  H   H1085     1.0  0.56301  0.52672  0.49758  1.0000
  H   H1086     1.0  0.70741  0.52156  0.65642  1.0000
  H   H1087     1.0  0.65266  0.57046  0.59234  1.0000
  S   S265      1.0  0.62086  0.51015  0.58130  1.0000
  H   H1088     1.0  0.54785  0.55031  0.55268  1.0000
  H   H1089     1.0  0.52521  0.51871  0.54749  1.0000
  C   C670      1.0  0.55202  0.52998  0.48862  1.0000
  H   H1090     1.0  0.62670  0.58873  0.59392  1.0000
  C   C671      1.0  0.63048  0.55639  0.63611  1.0000
  Fe  Fe134     1.0  0.52822  0.64359  0.47128  1.0000
  H   H1091     1.0  0.53387  0.64717  0.64862  1.0000
  H   H1092     1.0  0.52097  0.54198  0.51764  1.0000
  Fe  Fe135     1.0  0.63268  0.53021  0.47181  1.0000
  S   S266      1.0  0.61075  0.53879  0.45909  1.0000
  S   S267      1.0  0.65362  0.52728  0.44330  1.0000
  H   H1093     1.0  0.60037  0.60286  0.54132  1.0000
  H   H1094     1.0  0.57478  0.60889  0.52200  1.0000
  H   H1095     1.0  0.53232  0.64173  0.40014  1.0000
  H   H1096     1.0  0.60416  0.55835  0.57749  1.0000
  C   C672      1.0  0.62963  0.58281  0.61447  1.0000
  C   C673      1.0  0.65283  0.52559  0.40384  1.0000
  H   H1097     1.0  0.64481  0.56377  0.64397  1.0000
  H   H1098     1.0  0.64284  0.49902  0.67803  1.0000
  H   H1099     1.0  0.62719  0.44004  0.38049  1.0000
  H   H1100     1.0  0.61429  0.46930  0.37277  1.0000
  N   N69       1.0  0.62647  0.56389  0.60863  1.0000
  H   H1101     1.0  0.63597  0.56922  0.56442  1.0000
  S   S268      1.0  0.52503  0.45993  0.58495  1.0000
  C   C674      1.0  0.53282  0.51670  0.52894  1.0000
  H   H1102     1.0  0.73334  0.54633  0.63531  1.0000
  C   C675      1.0  0.66630  0.52254  0.38979  1.0000
  S   S269      1.0  0.52783  0.66614  0.44347  1.0000
  H   H1103     1.0  0.63561  0.54899  0.57932  1.0000
  C   C676      1.0  0.74210  0.54494  0.65364  1.0000
  C   C677      1.0  0.52720  0.65012  0.38850  1.0000
  Fe  Fe136     1.0  0.53813  0.61250  0.48634  1.0000
  S   S270      1.0  0.55025  0.64196  0.50101  1.0000
  S   S271      1.0  0.54995  0.59366  0.46942  1.0000
  Fe  Fe137     1.0  0.52959  0.63338  0.53613  1.0000
  S   S272      1.0  0.53477  0.64075  0.58577  1.0000
  C   C678      1.0  0.63775  0.51484  0.61004  1.0000
  Fe  Fe138     1.0  0.62134  0.52249  0.53625  1.0000
  S   S273      1.0  0.59858  0.53020  0.52799  1.0000
  S   S274      1.0  0.51916  0.60393  0.52345  1.0000
  Fe  Fe139     1.0  0.61750  0.55357  0.50401  1.0000
  S   S275      1.0  0.61549  0.57898  0.52060  1.0000
  C   C679      1.0  0.63822  0.56313  0.58519  1.0000
  S   S276      1.0  0.64107  0.54707  0.51501  1.0000
  C   C680      1.0  0.63909  0.52692  0.38626  1.0000
  C   C681      1.0  0.56898  0.59092  0.48350  1.0000
  C   C682      1.0  0.57410  0.57893  0.46805  1.0000
  C   C683      1.0  0.58838  0.57530  0.47913  1.0000
  C   C684      1.0  0.59787  0.58381  0.50567  1.0000
  C   C685      1.0  0.59301  0.59609  0.52090  1.0000
  C   C686      1.0  0.57854  0.59956  0.50997  1.0000
  H   H1104     1.0  0.56692  0.57237  0.44737  1.0000
  H   H1105     1.0  0.59215  0.56604  0.46696  1.0000
  H   H1106     1.0  0.66282  0.46516  0.35345  1.0000
  H   H1107     1.0  0.67705  0.52163  0.40322  1.0000
  C   C687      1.0  0.52883  0.53940  0.50003  1.0000
  C   C688      1.0  0.65448  0.52965  0.60985  1.0000
  N   N70       1.0  0.63708  0.46533  0.35887  1.0000
  H   H1108     1.0  0.67953  0.54533  0.63458  1.0000
  H   H1109     1.0  0.65791  0.53806  0.59079  1.0000
  H   H1110     1.0  0.62095  0.58398  0.63198  1.0000
  C   C689      1.0  0.62862  0.47325  0.37961  1.0000
  H   H1111     1.0  0.59822  0.55352  0.61547  1.0000
  Fe  Fe140     1.0  0.59350  0.51485  0.48452  1.0000
  H   H1112     1.0  0.60473  0.53878  0.59396  1.0000
  C   C690      1.0  0.66608  0.52081  0.35851  1.0000
  H   H1113     1.0  0.63544  0.48823  0.38019  1.0000
  H   H1114     1.0  0.51920  0.52914  0.48376  1.0000
  C   C691      1.0  0.63898  0.52539  0.35493  1.0000
  C   C692      1.0  0.66265  0.52266  0.65936  1.0000
  H   H1115     1.0  0.75367  0.55829  0.65788  1.0000
  N   N71       1.0  0.54210  0.53342  0.51284  1.0000
  H   H1116     1.0  0.64384  0.59130  0.62195  1.0000
  H   H1117     1.0  0.62785  0.54200  0.63233  1.0000
  C   C693      1.0  0.60753  0.55317  0.59846  1.0000
  H   H1118     1.0  0.66371  0.48568  0.36973  1.0000
  C   C694      1.0  0.66676  0.53367  0.63462  1.0000
  C   C695      1.0  0.52203  0.64946  0.60620  1.0000
  S   S277      1.0  0.51783  0.61507  0.45376  1.0000
  H   H1119     1.0  0.74747  0.53539  0.64538  1.0000
  C   C696      1.0  0.71693  0.52081  0.67405  1.0000
  H   H1120     1.0  0.53550  0.55217  0.48808  1.0000
  C   C697      1.0  0.52453  0.64845  0.35729  1.0000
  N   N72       1.0  0.73210  0.53852  0.68080  1.0000
  H   H1121     1.0  0.62931  0.46902  0.40279  1.0000
  H   H1122     1.0  0.55464  0.41757  0.67857  1.0000
  H   H1123     1.0  0.55823  0.54186  0.47468  1.0000
  C   C698      1.0  0.51440  0.67213  0.35787  1.0000
  H   H1124     1.0  0.72157  0.51053  0.66673  1.0000
  S   S278      1.0  0.51711  0.41197  0.55911  1.0000
  H   H1125     1.0  0.51548  0.40359  0.41641  1.0000
  H   H1126     1.0  0.51909  0.35816  0.66102  1.0000
  C   C699      1.0  0.51752  0.67411  0.38903  1.0000
  C   C700      1.0  0.51351  0.37724  0.40427  1.0000
  C   C701      1.0  0.51316  0.36555  0.67333  1.0000
  S   S279      1.0  0.67979  0.48375  0.70955  1.0000
  S   S280      1.0  0.68491  0.47577  0.77889  1.0000
  Fe  Fe141     1.0  0.70271  0.49215  0.74386  1.0000
  Fe  Fe142     1.0  0.66185  0.46967  0.74592  1.0000
  S   S281      1.0  0.64156  0.44083  0.73767  1.0000
  C   C702      1.0  0.62367  0.48721  0.91548  1.0000
  C   C703      1.0  0.75029  0.49496  0.77325  1.0000
  S   S282      1.0  0.54859  0.36701  0.77982  1.0000
  Fe  Fe143     1.0  0.55854  0.38321  0.82294  1.0000
  S   S283      1.0  0.58158  0.41073  0.83192  1.0000
  S   S284      1.0  0.53199  0.38285  0.83279  1.0000
  H   H1127     1.0  0.67781  0.44055  0.74025  1.0000
  C   C704      1.0  0.59483  0.48176  0.89251  1.0000
  C   C705      1.0  0.55488  0.62351  0.89376  1.0000
  H   H1128     1.0  0.62311  0.50133  0.86183  1.0000
  C   C706      1.0  0.59841  0.41868  0.80592  1.0000
  C   C707      1.0  0.59928  0.40744  0.78284  1.0000
  C   C708      1.0  0.61265  0.41430  0.76205  1.0000
  C   C709      1.0  0.62522  0.43239  0.76435  1.0000
  C   C710      1.0  0.62442  0.44356  0.78759  1.0000
  C   C711      1.0  0.61104  0.43672  0.80829  1.0000
  H   H1129     1.0  0.58978  0.39343  0.78117  1.0000
  H   H1130     1.0  0.61331  0.40557  0.74422  1.0000
  H   H1131     1.0  0.63411  0.45749  0.78961  1.0000
  H   H1132     1.0  0.61051  0.44548  0.82609  1.0000
  C   C712      1.0  0.74768  0.49335  0.74222  1.0000
  H   H1133     1.0  0.68413  0.43474  0.70524  1.0000
  S   S285      1.0  0.65646  0.49344  0.75913  1.0000
  C   C713      1.0  0.67065  0.51630  0.85992  1.0000
  H   H1134     1.0  0.73996  0.49552  0.78682  1.0000
  H   H1135     1.0  0.68899  0.40982  0.72798  1.0000
  H   H1136     1.0  0.58807  0.47608  0.91333  1.0000
  H   H1137     1.0  0.57669  0.66471  0.92892  1.0000
  C   C714      1.0  0.58680  0.64161  0.89975  1.0000
  H   H1138     1.0  0.62662  0.50170  0.91829  1.0000
  C   C715      1.0  0.71799  0.44116  0.72351  1.0000
  H   H1139     1.0  0.55650  0.61663  0.87327  1.0000
  S   S286      1.0  0.59023  0.46963  0.97726  1.0000
  H   H1140     1.0  0.54132  0.62334  0.89197  1.0000
  H   H1141     1.0  0.58841  0.42883  0.74232  1.0000
  N   N73       1.0  0.61113  0.47869  0.88949  1.0000
  H   H1142     1.0  0.61103  0.48021  0.84169  1.0000
  N   N74       1.0  0.70264  0.43769  0.74237  1.0000
  C   C716      1.0  0.56803  0.65270  0.87211  1.0000
  H   H1143     1.0  0.71365  0.43325  0.70196  1.0000
  H   H1144     1.0  0.55162  0.38519  0.71469  1.0000
  H   H1145     1.0  0.55755  0.43936  0.98933  1.0000
  C   C717      1.0  0.57679  0.56190  0.00144  1.0000
  C   C718      1.0  0.51927  0.64522  0.88901  1.0000
  H   H1146     1.0  0.69794  0.44601  0.78569  1.0000
  N   N75       1.0  0.56709  0.40180  0.93193  1.0000
  C   C719      1.0  0.56109  0.38380  0.94451  1.0000
  C   C720      1.0  0.58047  0.40393  0.90958  1.0000
  C   C721      1.0  0.57516  0.41579  0.95612  1.0000
  C   C722      1.0  0.55155  0.40358  0.91746  1.0000
  H   H1147     1.0  0.55066  0.38151  0.96095  1.0000
  H   H1148     1.0  0.57239  0.38200  0.95594  1.0000
  H   H1149     1.0  0.55510  0.37291  0.92679  1.0000
  H   H1150     1.0  0.59241  0.40264  0.91957  1.0000
  H   H1151     1.0  0.57470  0.39350  0.89112  1.0000
  H   H1152     1.0  0.58515  0.41722  0.89919  1.0000
  H   H1153     1.0  0.58723  0.41520  0.96707  1.0000
  H   H1154     1.0  0.56549  0.41411  0.97374  1.0000
  H   H1155     1.0  0.57926  0.42957  0.94773  1.0000
  H   H1156     1.0  0.54473  0.39278  0.89985  1.0000
  H   H1157     1.0  0.55561  0.41671  0.90671  1.0000
  H   H1158     1.0  0.54141  0.40258  0.93387  1.0000
  H   H1159     1.0  0.55488  0.65354  0.87036  1.0000
  H   H1160     1.0  0.70345  0.41412  0.76101  1.0000
  H   H1161     1.0  0.60000  0.45287  0.90903  1.0000
  H   H1162     1.0  0.71537  0.46316  0.76660  1.0000
  C   C723      1.0  0.70911  0.44850  0.77064  1.0000
  C   C724      1.0  0.69396  0.41838  0.74884  1.0000
  H   H1163     1.0  0.56263  0.40974  0.77089  1.0000
  C   C725      1.0  0.68949  0.44274  0.72653  1.0000
  H   H1164     1.0  0.69565  0.45717  0.72098  1.0000
  S   S287      1.0  0.55375  0.64789  0.00080  1.0000
  H   H1165     1.0  0.67757  0.50904  0.90279  1.0000
  Fe  Fe144     1.0  0.60051  0.53395  0.99784  1.0000
  H   H1166     1.0  0.71941  0.44542  0.78285  1.0000
  H   H1167     1.0  0.61824  0.45645  0.88537  1.0000
  C   C726      1.0  0.55365  0.41142  0.75325  1.0000
  H   H1168     1.0  0.63265  0.48542  0.85952  1.0000
  H   H1169     1.0  0.58785  0.63359  0.91888  1.0000
  S   S288      1.0  0.68193  0.50550  0.84071  1.0000
  S   S289      1.0  0.72750  0.49158  0.72385  1.0000
  H   H1170     1.0  0.55512  0.61525  0.91300  1.0000
  S   S290      1.0  0.52424  0.61588  0.95672  1.0000
  S   S291      1.0  0.55422  0.35919  0.84994  1.0000
  H   H1171     1.0  0.54058  0.39932  0.75310  1.0000
  H   H1172     1.0  0.53887  0.50912  0.01034  1.0000
  H   H1173     1.0  0.59815  0.49643  0.89357  1.0000
  Fe  Fe145     1.0  0.68061  0.50045  0.79066  1.0000
  C   C727      1.0  0.56495  0.44498  0.01028  1.0000
  C   C728      1.0  0.57181  0.59243  0.98362  1.0000
  H   H1174     1.0  0.61802  0.48083  0.93654  1.0000
  H   H1175     1.0  0.63665  0.48627  0.91318  1.0000
  C   C729      1.0  0.61983  0.48672  0.86190  1.0000
  Fe  Fe146     1.0  0.52156  0.36507  0.79113  1.0000
  S   S292      1.0  0.57964  0.54291  0.01403  1.0000
  Fe  Fe147     1.0  0.60560  0.49937  0.98690  1.0000
  C   C730      1.0  0.67057  0.51576  0.89113  1.0000
  Fe  Fe148     1.0  0.67663  0.50822  0.72520  1.0000
  C   C731      1.0  0.57887  0.42983  0.72505  1.0000
  C   C732      1.0  0.58544  0.58854  0.97197  1.0000
  H   H1176     1.0  0.57377  0.39561  0.73211  1.0000
  S   S293      1.0  0.63556  0.51380  0.98617  1.0000
  H   H1177     1.0  0.68222  0.41533  0.76283  1.0000
  C   C733      1.0  0.52312  0.66183  0.90330  1.0000
  N   N76       1.0  0.56907  0.64209  0.89771  1.0000
  H   H1178     1.0  0.58544  0.43174  0.70339  1.0000
  H   H1179     1.0  0.59646  0.45218  0.86921  1.0000
  Fe  Fe149     1.0  0.54717  0.61890  0.98870  1.0000
  H   H1180     1.0  0.66160  0.52339  0.93145  1.0000
  H   H1181     1.0  0.57714  0.44225  0.73062  1.0000
  Fe  Fe150     1.0  0.52950  0.64393  0.97163  1.0000
  H   H1182     1.0  0.58925  0.63538  0.87919  1.0000
  H   H1183     1.0  0.59842  0.57048  0.97158  1.0000
  Fe  Fe151     1.0  0.62953  0.53295  0.95764  1.0000
  S   S294      1.0  0.59951  0.51753  0.95665  1.0000
  S   S295      1.0  0.64011  0.54212  0.91215  1.0000
  H   H1184     1.0  0.58499  0.47550  0.87336  1.0000
  Fe  Fe152     1.0  0.52677  0.35772  0.85696  1.0000
  S   S296      1.0  0.52884  0.66564  0.94185  1.0000
  C   C734      1.0  0.60623  0.45916  0.88821  1.0000
  C   C735      1.0  0.66153  0.52388  0.90742  1.0000
  C   C736      1.0  0.66181  0.52525  0.84506  1.0000
  C   C737      1.0  0.65297  0.53362  0.86142  1.0000
  C   C738      1.0  0.65254  0.53270  0.89260  1.0000
  N   N77       1.0  0.56153  0.41369  0.72376  1.0000
  C   C739      1.0  0.58793  0.57334  0.98081  1.0000
  H   H1185     1.0  0.66193  0.52588  0.82104  1.0000
  H   H1186     1.0  0.64620  0.54059  0.84983  1.0000
  S   S297      1.0  0.67807  0.52859  0.69063  1.0000
  H   H1187     1.0  0.72829  0.43769  0.73486  1.0000
  C   C740      1.0  0.54916  0.41585  0.70114  1.0000
  C   C741      1.0  0.56655  0.65051  0.92545  1.0000
  S   S298      1.0  0.70046  0.51740  0.75816  1.0000
  S   S299      1.0  0.63007  0.55103  0.99659  1.0000
  H   H1188     1.0  0.54648  0.42773  0.70662  1.0000
  H   H1189     1.0  0.56960  0.64662  0.85067  1.0000
  H   H1190     1.0  0.59409  0.59731  0.95596  1.0000
  H   H1191     1.0  0.56775  0.64310  0.94522  1.0000
  H   H1192     1.0  0.57025  0.39878  0.69338  1.0000
  S   S300      1.0  0.56912  0.61167  0.97180  1.0000
  C   C742      1.0  0.56072  0.58099  0.00430  1.0000
  H   H1193     1.0  0.72480  0.45562  0.71817  1.0000
  H   H1194     1.0  0.71747  0.54696  0.71144  1.0000
  H   H1195     1.0  0.53599  0.40387  0.69952  1.0000
  H   H1196     1.0  0.53508  0.48742  0.99441  1.0000
  C   C743      1.0  0.56444  0.39763  0.71561  1.0000
  H   H1197     1.0  0.55114  0.42320  0.76014  1.0000
  C   C744      1.0  0.51874  0.67350  0.85558  1.0000
  C   C745      1.0  0.58171  0.45973  0.01065  1.0000
  S   S301      1.0  0.51865  0.35260  0.90499  1.0000
  H   H1198     1.0  0.55019  0.58381  0.01345  1.0000
  H   H1199     1.0  0.51907  0.63419  0.90186  1.0000
  C   C746      1.0  0.52267  0.67589  0.88653  1.0000
  H   H1200     1.0  0.70911  0.51575  0.69407  1.0000
  H   H1201     1.0  0.75943  0.49143  0.70095  1.0000
  H   H1202     1.0  0.51713  0.35629  0.96821  1.0000
  C   C747      1.0  0.51561  0.65711  0.84113  1.0000
  H   H1203     1.0  0.55752  0.50407  0.00326  1.0000
  H   H1204     1.0  0.55311  0.65063  0.92522  1.0000
  C   C748      1.0  0.54357  0.49825  0.01096  1.0000
  H   H1205     1.0  0.73694  0.53175  0.72524  1.0000
  C   C749      1.0  0.56324  0.56583  0.01319  1.0000
  C   C750      1.0  0.76131  0.49272  0.72498  1.0000
  C   C751      1.0  0.51579  0.64296  0.85796  1.0000
  H   H1206     1.0  0.74955  0.52699  0.69764  1.0000
  C   C752      1.0  0.74415  0.53678  0.70451  1.0000
  H   H1207     1.0  0.59783  0.65538  0.90318  1.0000
  H   H1208     1.0  0.75575  0.54987  0.71035  1.0000
  H   H1209     1.0  0.51890  0.35713  0.71629  1.0000
  H   H1210     1.0  0.57862  0.66676  0.87430  1.0000
  H   H1211     1.0  0.73617  0.56506  0.69624  1.0000
  C   C753      1.0  0.72516  0.55148  0.69100  1.0000
  H   H1212     1.0  0.51311  0.63017  0.84691  1.0000
  C   C754      1.0  0.51309  0.36496  0.70465  1.0000
  S   S302      1.0  0.51854  0.84380  0.26633  1.0000
  C   C755      1.0  0.51945  0.88735  0.16624  1.0000
  H   H1213     1.0  0.59194  0.94798  0.06558  1.0000
  C   C756      1.0  0.53444  0.87753  0.12955  1.0000
  H   H1214     1.0  0.60583  0.96945  0.08270  1.0000
  Fe  Fe153     1.0  0.53412  0.92433  0.04768  1.0000
  C   C757      1.0  0.51909  0.90042  0.14680  1.0000
  C   C758      1.0  0.52722  0.87588  0.15779  1.0000
  S   S303      1.0  0.58905  0.97691  0.02360  1.0000
  H   H1215     1.0  0.60756  0.94959  0.09575  1.0000
  H   H1216     1.0  0.51576  0.84594  0.33292  1.0000
  H   H1217     1.0  0.54178  0.84024  0.32190  1.0000
  S   S304      1.0  0.53880  0.95234  0.03528  1.0000
  S   S305      1.0  0.52894  0.86005  0.18244  1.0000
  H   H1218     1.0  0.56302  0.93101  0.12988  1.0000
  H   H1219     1.0  0.53794  0.87993  0.33281  1.0000
  H   H1220     1.0  0.56671  0.92573  0.09274  1.0000
  H   H1221     1.0  0.56091  0.95822  0.11185  1.0000
  H   H1222     1.0  0.60193  0.95669  0.14735  1.0000
  H   H1223     1.0  0.56571  0.95357  0.07504  1.0000
  C   C759      1.0  0.53478  0.82672  0.33132  1.0000
  C   C760      1.0  0.59801  0.95499  0.08743  1.0000
  H   H1224     1.0  0.53917  0.89137  0.08804  1.0000
  H   H1225     1.0  0.60070  0.97678  0.13456  1.0000
  H   H1226     1.0  0.58254  0.96068  0.15411  1.0000
  C   C761      1.0  0.52612  0.90194  0.11848  1.0000
  C   C762      1.0  0.53373  0.89037  0.10981  1.0000
  H   H1227     1.0  0.58232  0.92694  0.12265  1.0000
  C   C763      1.0  0.59272  0.96213  0.13753  1.0000
  N   N78       1.0  0.58411  0.95263  0.10893  1.0000
  C   C764      1.0  0.57366  0.93326  0.11380  1.0000
  C   C765      1.0  0.57198  0.96021  0.09685  1.0000
  H   H1228     1.0  0.54053  0.86874  0.12289  1.0000
  H   H1229     1.0  0.57930  0.97485  0.09295  1.0000
  C   C766      1.0  0.59106  0.99923  0.02019  1.0000
  S   S306      1.0  0.55872  0.92534  0.02634  1.0000
  S   S307      1.0  0.52542  0.91885  0.09534  1.0000
  H   H1230     1.0  0.54520  0.82242  0.33958  1.0000
  H   H1231     1.0  0.52692  0.81722  0.31254  1.0000
  H   H1232     1.0  0.51418  0.88647  0.18810  1.0000
  H   H1233     1.0  0.51350  0.90954  0.15393  1.0000
  H   H1234     1.0  0.56492  0.97426  0.55168  1.0000
  N   N79       1.0  0.52308  0.82701  0.35527  1.0000
  H   H1235     1.0  0.52428  0.75183  0.65230  1.0000
  H   H1236     1.0  0.60794  0.99996  0.59535  1.0000
  C   C767      1.0  0.58322  0.96959  0.61814  1.0000
  H   H1237     1.0  0.57630  0.97545  0.63277  1.0000
  C   C768      1.0  0.53334  0.88290  0.35357  1.0000
  C   C769      1.0  0.51288  0.74011  0.64105  1.0000
  H   H1238     1.0  0.51723  0.89468  0.42777  1.0000
  H   H1239     1.0  0.51907  0.71343  0.66569  1.0000
  H   H1240     1.0  0.59378  0.00056  0.56455  1.0000
  H   H1241     1.0  0.51862  0.73354  0.62531  1.0000
  Fe  Fe154     1.0  0.54550  0.91603  0.47409  1.0000
  S   S308      1.0  0.55541  0.90480  0.43580  1.0000
  S   S309      1.0  0.52719  0.92922  0.46333  1.0000
  C   C770      1.0  0.53988  0.89501  0.40511  1.0000
  C   C771      1.0  0.52006  0.87002  0.61491  1.0000
  C   C772      1.0  0.52287  0.87122  0.64607  1.0000
  C   C773      1.0  0.56514  0.97044  0.57522  1.0000
  C   C774      1.0  0.58540  0.99441  0.50193  1.0000
  C   C775      1.0  0.54557  0.89053  0.37830  1.0000
  H   H1242     1.0  0.59311  0.97143  0.54523  1.0000
  H   H1243     1.0  0.55208  0.91557  0.65346  1.0000
  H   H1244     1.0  0.55954  0.89329  0.37653  1.0000
  H   H1245     1.0  0.58759  0.00233  0.60172  1.0000
  H   H1246     1.0  0.58435  0.98093  0.49835  1.0000
  Fe  Fe155     1.0  0.54332  0.94989  0.49921  1.0000
  S   S310      1.0  0.56302  0.93801  0.50776  1.0000
  S   S311      1.0  0.54817  0.97925  0.49750  1.0000
  Fe  Fe156     1.0  0.54393  0.92127  0.54160  1.0000
  S   S312      1.0  0.55239  0.92060  0.59022  1.0000
  S   S313      1.0  0.52543  0.93466  0.53493  1.0000
  C   C776      1.0  0.54032  0.90162  0.61141  1.0000
  C   C777      1.0  0.54295  0.90292  0.64264  1.0000
  H   H1247     1.0  0.55810  0.97694  0.58816  1.0000
  C   C778      1.0  0.59253  0.96716  0.56865  1.0000
  H   H1248     1.0  0.55707  0.95564  0.57559  1.0000
  C   C779      1.0  0.52855  0.88517  0.59768  1.0000
  S   S314      1.0  0.52860  0.89822  0.50890  1.0000
  H   H1249     1.0  0.52391  0.80408  0.37633  1.0000
  H   H1250     1.0  0.59698  0.97342  0.62807  1.0000
  C   C780      1.0  0.52184  0.89156  0.40714  1.0000
  C   C781      1.0  0.51404  0.80880  0.36694  1.0000
  C   C782      1.0  0.56984  0.99730  0.50153  1.0000
  H   H1251     1.0  0.57590  0.95466  0.61877  1.0000
  C   C783      1.0  0.53413  0.88783  0.65997  1.0000
  C   C784      1.0  0.53401  0.83989  0.37953  1.0000
  H   H1252     1.0  0.60653  0.97074  0.57713  1.0000
  H   H1253     1.0  0.52645  0.88395  0.57368  1.0000
  H   H1254     1.0  0.58518  0.95219  0.56810  1.0000
  N   N80       1.0  0.58367  0.97569  0.58734  1.0000
  C   C785      1.0  0.59370  0.99549  0.58733  1.0000
  H   H1255     1.0  0.53652  0.88888  0.68392  1.0000
  H   H1256     1.0  0.61435  0.00672  0.50712  1.0000
  C   C786      1.0  0.51534  0.87968  0.35564  1.0000
  H   H1257     1.0  0.54426  0.83593  0.38968  1.0000
  H   H1258     1.0  0.54125  0.85368  0.37123  1.0000
  C   C787      1.0  0.51348  0.72074  0.68024  1.0000
  H   H1259     1.0  0.52556  0.84090  0.39761  1.0000
  H   H1260     1.0  0.51508  0.68428  0.40125  1.0000
  C   C788      1.0  0.60237  0.00904  0.50669  1.0000
  H   H1261     1.0  0.55969  0.83416  0.81571  1.0000
  Fe  Fe157     1.0  0.56244  0.95291  0.01192  1.0000
  H   H1262     1.0  0.51866  0.68449  0.84278  1.0000
  H   H1263     1.0  0.51628  0.94571  0.91929  1.0000
  Fe  Fe158     1.0  0.51484  0.86076  0.78208  1.0000
  H   H1264     1.0  0.52300  0.91206  0.87143  1.0000
  C   C789      1.0  0.54313  0.83861  0.86338  1.0000
  Fe  Fe159     1.0  0.54124  0.91488  0.98381  1.0000
  H   H1265     1.0  0.51682  0.94604  0.87939  1.0000
  S   S315      1.0  0.54711  0.94251  0.96759  1.0000
  C   C790      1.0  0.54613  0.83366  0.81115  1.0000
  C   C791      1.0  0.53528  0.88305  0.85331  1.0000
  H   H1266     1.0  0.56012  0.90708  0.85654  1.0000
  C   C792      1.0  0.54908  0.89782  0.86865  1.0000
  S   S316      1.0  0.51850  0.84008  0.75246  1.0000
  H   H1267     1.0  0.52560  0.68877  0.89750  1.0000
  H   H1268     1.0  0.53462  0.83414  0.88292  1.0000
  H   H1269     1.0  0.54015  0.82501  0.79060  1.0000
  C   C793      1.0  0.54894  0.90054  0.89968  1.0000
  S   S317      1.0  0.53705  0.87941  0.81479  1.0000
  H   H1270     1.0  0.55987  0.91175  0.91128  1.0000
  H   H1271     1.0  0.53247  0.94046  0.90087  1.0000
  C   C794      1.0  0.53528  0.88815  0.91585  1.0000
  C   C795      1.0  0.53224  0.80823  0.84222  1.0000
  C   C796      1.0  0.52134  0.87348  0.90049  1.0000
  Fe  Fe160     1.0  0.52313  0.93956  0.99291  1.0000
  C   C797      1.0  0.51833  0.93878  0.89917  1.0000
  H   H1272     1.0  0.54532  0.80769  0.84728  1.0000
  H   H1273     1.0  0.52480  0.73191  0.69274  1.0000
  N   N81       1.0  0.53463  0.82678  0.83664  1.0000
  H   H1274     1.0  0.55642  0.83886  0.86964  1.0000
  H   H1275     1.0  0.52562  0.79900  0.82245  1.0000
  C   C798      1.0  0.52114  0.87111  0.86929  1.0000
  S   S318      1.0  0.53603  0.88964  0.95533  1.0000
  S   S319      1.0  0.51640  0.91157  0.00686  1.0000
  H   H1276     1.0  0.54794  0.84757  0.80608  1.0000
  H   H1277     1.0  0.56474  0.99143  0.99947  1.0000
  H   H1278     1.0  0.52607  0.77307  0.74888  1.0000
  H   H1279     1.0  0.54533  0.85276  0.85951  1.0000
  H   H1280     1.0  0.52363  0.80266  0.86134  1.0000
  C   C799      1.0  0.51694  0.82668  0.82965  1.0000
  H   H1281     1.0  0.51395  0.79595  0.75523  1.0000
  S   S320      1.0  0.51281  0.68965  0.74054  1.0000
  H   H1282     1.0  0.51832  0.84043  0.82501  1.0000
  H   H1283     1.0  0.52203  0.91266  0.92757  1.0000
  C   C800      1.0  0.57709  0.00257  0.00741  1.0000
  S   S321      1.0  0.82623  0.33255  0.23565  1.0000
  C   C801      1.0  0.76995  0.27789  0.29709  1.0000
  H   H1284     1.0  0.76614  0.33875  0.21718  1.0000
  S   S322      1.0  0.80819  0.33088  0.30027  1.0000
  H   H1285     1.0  0.78908  0.32764  0.22588  1.0000
  C   C802      1.0  0.76657  0.25395  0.26173  1.0000
  H   H1286     1.0  0.81268  0.29081  0.32733  1.0000
  H   H1287     1.0  0.85535  0.33437  0.19096  1.0000
  Fe  Fe161     1.0  0.81686  0.31323  0.27288  1.0000
  S   S323      1.0  0.79915  0.28348  0.26297  1.0000
  S   S324      1.0  0.84448  0.32343  0.29556  1.0000
  H   H1288     1.0  0.85917  0.33258  0.13660  1.0000
  H   H1289     1.0  0.77201  0.24857  0.24457  1.0000
  H   H1290     1.0  0.77794  0.29099  0.30757  1.0000
  H   H1291     1.0  0.78336  0.30579  0.24047  1.0000
  H   H1292     1.0  0.77686  0.30774  0.20271  1.0000
  C   C803      1.0  0.77710  0.27113  0.27482  1.0000
  H   H1293     1.0  0.77480  0.33469  0.26876  1.0000
  C   C804      1.0  0.77841  0.31363  0.22574  1.0000
  H   H1294     1.0  0.84394  0.29597  0.34161  1.0000
  H   H1295     1.0  0.81506  0.31020  0.34957  1.0000
  H   H1296     1.0  0.76813  0.31241  0.28213  1.0000
  C   C805      1.0  0.76409  0.32063  0.26675  1.0000
  C   C806      1.0  0.81153  0.29556  0.35023  1.0000
  H   H1297     1.0  0.81877  0.26674  0.35066  1.0000
  Fe  Fe162     1.0  0.83637  0.34242  0.32097  1.0000
  C   C807      1.0  0.86983  0.34251  0.15077  1.0000
  C   C808      1.0  0.86764  0.34349  0.18159  1.0000
  H   H1298     1.0  0.80371  0.26513  0.37941  1.0000
  C   C809      1.0  0.82165  0.29898  0.40210  1.0000
  H   H1299     1.0  0.85426  0.32096  0.64527  1.0000
  H   H1300     1.0  0.82652  0.26919  0.38919  1.0000
  H   H1301     1.0  0.83041  0.29663  0.41932  1.0000
  C   C810      1.0  0.86288  0.33390  0.65583  1.0000
  N   N82       1.0  0.82328  0.29199  0.37229  1.0000
  H   H1302     1.0  0.82571  0.31377  0.40228  1.0000
  H   H1303     1.0  0.80761  0.29256  0.40921  1.0000
  H   H1304     1.0  0.79718  0.28868  0.35561  1.0000
  C   C811      1.0  0.84210  0.30106  0.36380  1.0000
  H   H1305     1.0  0.85145  0.29910  0.38035  1.0000
  H   H1306     1.0  0.84648  0.31583  0.36247  1.0000
  C   C812      1.0  0.81784  0.27239  0.37297  1.0000
  H   H1307     1.0  0.92530  0.34113  0.67956  1.0000
  S   S325      1.0  0.87670  0.34270  0.60078  1.0000
  H   H1308     1.0  0.92408  0.34132  0.62441  1.0000
  H   H1309     1.0  0.83028  0.27651  0.84929  1.0000
  S   S326      1.0  0.80901  0.33102  0.81521  1.0000
  H   H1310     1.0  0.79930  0.27655  0.90720  1.0000
  H   H1311     1.0  0.82118  0.29419  0.90221  1.0000
  C   C813      1.0  0.79419  0.26169  0.85138  1.0000
  C   C814      1.0  0.82354  0.28553  0.84531  1.0000
  H   H1312     1.0  0.78588  0.28858  0.86720  1.0000
  H   H1313     1.0  0.85309  0.32613  0.69969  1.0000
  H   H1314     1.0  0.77157  0.24742  0.75370  1.0000
  H   H1315     1.0  0.83335  0.29950  0.85217  1.0000
  Fe  Fe163     1.0  0.81341  0.31394  0.77974  1.0000
  S   S327      1.0  0.79526  0.28425  0.76850  1.0000
  S   S328      1.0  0.84177  0.32033  0.79626  1.0000
  H   H1316     1.0  0.79070  0.26115  0.82702  1.0000
  C   C815      1.0  0.77278  0.27090  0.77787  1.0000
  H   H1317     1.0  0.79608  0.29331  0.83199  1.0000
  C   C816      1.0  0.79881  0.29266  0.85623  1.0000
  C   C817      1.0  0.81145  0.28042  0.89403  1.0000
  H   H1318     1.0  0.81768  0.27107  0.89912  1.0000
  H   H1319     1.0  0.80783  0.30655  0.86468  1.0000
  H   H1320     1.0  0.82059  0.28515  0.82082  1.0000
  H   H1321     1.0  0.78141  0.25716  0.86299  1.0000
  S   S329      1.0  0.82239  0.33609  0.74681  1.0000
  N   N83       1.0  0.80698  0.28004  0.86178  1.0000
  H   H1322     1.0  0.79988  0.25176  0.85513  1.0000
  Fe  Fe164     1.0  0.83773  0.33838  0.83056  1.0000
  H   H1323     1.0  0.76945  0.29158  0.80360  1.0000
  S   S330      1.0  0.84167  0.33618  0.88048  1.0000
  C   C818      1.0  0.76442  0.25275  0.76773  1.0000
  C   C819      1.0  0.86218  0.33681  0.68664  1.0000
  C   C820      1.0  0.76335  0.27760  0.79596  1.0000
  H   H1324     1.0  0.84993  0.34013  0.94338  1.0000
  H   H1325     1.0  0.80590  0.45497  0.33506  1.0000
  S   S331      1.0  0.92065  0.40301  0.08664  1.0000
  C   C821      1.0  0.88926  0.50654  0.14152  1.0000
  Fe  Fe165     1.0  0.94331  0.40440  0.05837  1.0000
  S   S332      1.0  0.97119  0.42349  0.07777  1.0000
  Fe  Fe166     1.0  0.90717  0.37384  0.07196  1.0000
  C   C822      1.0  0.79294  0.44279  0.33568  1.0000
  S   S333      1.0  0.82555  0.47139  0.23661  1.0000
  S   S334      1.0  0.82846  0.48869  0.30479  1.0000
  Fe  Fe167     1.0  0.83684  0.46927  0.28153  1.0000
  S   S335      1.0  0.83241  0.44413  0.30595  1.0000
  S   S336      1.0  0.86420  0.49014  0.27308  1.0000
  H   H1326     1.0  0.77841  0.44291  0.26385  1.0000
  S   S337      1.0  0.87976  0.35698  0.23927  1.0000
  C   C823      1.0  0.87966  0.51072  0.16327  1.0000
  H   H1327     1.0  0.94828  0.59620  0.03860  1.0000
  S   S338      1.0  0.80594  0.36666  0.24346  1.0000
  S   S339      1.0  0.84692  0.36426  0.28814  1.0000
  C   C824      1.0  0.82544  0.42299  0.28737  1.0000
  C   C825      1.0  0.81828  0.41973  0.25794  1.0000
  C   C826      1.0  0.81199  0.40232  0.24459  1.0000
  C   C827      1.0  0.81324  0.38829  0.26041  1.0000
  C   C828      1.0  0.82062  0.39167  0.28962  1.0000
  C   C829      1.0  0.82651  0.40891  0.30312  1.0000
  H   H1328     1.0  0.81742  0.43053  0.24561  1.0000
  H   H1329     1.0  0.80636  0.39978  0.22191  1.0000
  H   H1330     1.0  0.82152  0.38094  0.30210  1.0000
  H   H1331     1.0  0.83200  0.41135  0.32590  1.0000
  S   S340      1.0  0.78766  0.48264  0.25005  1.0000
  H   H1332     1.0  0.86633  0.39766  0.25105  1.0000
  H   H1333     1.0  0.79015  0.43040  0.27887  1.0000
  H   H1334     1.0  0.76776  0.53019  0.27482  1.0000
  C   C830      1.0  0.88582  0.35407  0.13820  1.0000
  C   C831      1.0  0.89962  0.36672  0.15674  1.0000
  C   C832      1.0  0.89764  0.36734  0.18769  1.0000
  C   C833      1.0  0.88166  0.35574  0.20024  1.0000
  C   C834      1.0  0.01141  0.59642  0.02097  1.0000
  C   C835      1.0  0.76369  0.51629  0.26764  1.0000
  H   H1335     1.0  0.91206  0.37554  0.14736  1.0000
  H   H1336     1.0  0.90860  0.37678  0.20197  1.0000
  C   C836      1.0  0.99279  0.42854  0.06492  1.0000
  H   H1337     1.0  0.79087  0.51848  0.26940  1.0000
  H   H1338     1.0  0.95184  0.47330  0.07706  1.0000
  H   H1339     1.0  0.84814  0.40248  0.23753  1.0000
  Fe  Fe168     1.0  0.85229  0.49431  0.22967  1.0000
  C   C837      1.0  0.92698  0.45229  0.05933  1.0000
  S   S341      1.0  0.91566  0.51848  0.03383  1.0000
  C   C838      1.0  0.89131  0.53660  0.24219  1.0000
  H   H1340     1.0  0.88490  0.53743  0.26314  1.0000
  C   C839      1.0  0.77685  0.50968  0.26461  1.0000
  H   H1341     1.0  0.87083  0.41911  0.23574  1.0000
  N   N84       1.0  0.78000  0.44261  0.31180  1.0000
  H   H1342     1.0  0.86623  0.42129  0.18141  1.0000
  H   H1343     1.0  0.97224  0.45847  0.06017  1.0000
  Fe  Fe169     1.0  0.81966  0.35103  0.26518  1.0000
  C   C840      1.0  0.85738  0.40658  0.18029  1.0000
  H   H1344     1.0  0.92847  0.44193  0.07208  1.0000
  H   H1345     1.0  0.85796  0.40136  0.15746  1.0000
  H   H1346     1.0  0.84340  0.40490  0.18311  1.0000
  H   H1347     1.0  0.88906  0.49327  0.14042  1.0000
  C   C841      1.0  0.98352  0.47074  0.05250  1.0000
  H   H1348     1.0  0.99603  0.47148  0.06395  1.0000
  H   H1349     1.0  0.88629  0.39298  0.21617  1.0000
  H   H1350     1.0  0.88269  0.39387  0.17675  1.0000
  C   C842      1.0  0.88157  0.39969  0.19880  1.0000
  N   N85       1.0  0.86297  0.39711  0.20329  1.0000
  H   H1351     1.0  0.85458  0.37024  0.21827  1.0000
  H   H1352     1.0  0.89156  0.54769  0.22815  1.0000
  C   C843      1.0  0.86204  0.40443  0.23320  1.0000
  H   H1353     1.0  0.98243  0.62865  0.09226  1.0000
  H   H1354     1.0  0.83668  0.37522  0.20383  1.0000
  C   C844      1.0  0.85088  0.37770  0.20091  1.0000
  H   H1355     1.0  0.85157  0.37158  0.17891  1.0000
  H   H1356     1.0  0.89106  0.41419  0.19982  1.0000
  C   C845      1.0  0.77182  0.49180  0.25509  1.0000
  S   S342      1.0  0.89507  0.42602  0.03720  1.0000
  H   H1357     1.0  0.91455  0.55506  0.28720  1.0000
  H   H1358     1.0  0.93142  0.53814  0.22325  1.0000
  C   C846      1.0  0.92051  0.55456  0.26549  1.0000
  H   H1359     1.0  0.76687  0.45913  0.29767  1.0000
  H   H1360     1.0  0.00611  0.58214  0.02452  1.0000
  Fe  Fe170     1.0  0.85295  0.34447  0.26067  1.0000
  H   H1361     1.0  0.91837  0.54847  0.20552  1.0000
  Fe  Fe171     1.0  0.81794  0.49182  0.25922  1.0000
  S   S343      1.0  0.93061  0.37455  0.04629  1.0000
  S   S344      1.0  0.86803  0.49409  0.18901  1.0000
  C   C847      1.0  0.93853  0.48341  0.04525  1.0000
  H   H1362     1.0  0.78907  0.47137  0.31358  1.0000
  H   H1363     1.0  0.94339  0.62046  0.10564  1.0000
  Fe  Fe172     1.0  0.90835  0.40756  0.04429  1.0000
  H   H1364     1.0  0.80045  0.45441  0.28075  1.0000
  C   C848      1.0  0.91155  0.44815  0.04099  1.0000
  H   H1365     1.0  0.90156  0.52171  0.28699  1.0000
  C   C849      1.0  0.99557  0.41907  0.04090  1.0000
  H   H1366     1.0  0.96968  0.58962  0.07142  1.0000
  C   C850      1.0  0.00761  0.44299  0.07892  1.0000
  H   H1367     1.0  0.93737  0.59794  0.11750  1.0000
  C   C851      1.0  0.89007  0.54082  0.14396  1.0000
  C   C852      1.0  0.89911  0.51931  0.12100  1.0000
  H   H1368     1.0  0.90044  0.50921  0.25298  1.0000
  S   S345      1.0  0.84414  0.51518  0.24869  1.0000
  S   S346      1.0  0.88840  0.35141  0.09972  1.0000
  Fe  Fe173     1.0  0.92448  0.54541  0.05730  1.0000
  H   H1369     1.0  0.92153  0.56653  0.25312  1.0000
  S   S347      1.0  0.95360  0.55086  0.06050  1.0000
  Fe  Fe174     1.0  0.85514  0.50990  0.29284  1.0000
  S   S348      1.0  0.91224  0.55311  0.09698  1.0000
  H   H1370     1.0  0.88241  0.52370  0.23032  1.0000
  H   H1371     1.0  0.90636  0.51580  0.10436  1.0000
  C   C853      1.0  0.90828  0.52218  0.26572  1.0000
  H   H1372     1.0  0.97392  0.59771  0.10949  1.0000
  H   H1373     1.0  0.93702  0.60880  0.05336  1.0000
  C   C854      1.0  0.78749  0.44249  0.28250  1.0000
  C   C855      1.0  0.89959  0.53654  0.12209  1.0000
  H   H1374     1.0  0.79617  0.43097  0.33323  1.0000
  H   H1375     1.0  0.95880  0.61567  0.12935  1.0000
  H   H1376     1.0  0.95248  0.58004  0.09767  1.0000
  S   S349      1.0  0.87652  0.53182  0.32299  1.0000
  H   H1377     1.0  0.97775  0.62010  0.05435  1.0000
  H   H1378     1.0  0.93434  0.55587  0.27053  1.0000
  C   C856      1.0  0.91763  0.53723  0.21967  1.0000
  H   H1379     1.0  0.87239  0.53125  0.18045  1.0000
  H   H1380     1.0  0.96696  0.63338  0.06852  1.0000
  H   H1381     1.0  0.89022  0.55405  0.14482  1.0000
  H   H1382     1.0  0.92177  0.52281  0.27153  1.0000
  C   C857      1.0  0.97159  0.62289  0.07438  1.0000
  H   H1383     1.0  0.90955  0.52448  0.20643  1.0000
  N   N86       1.0  0.90947  0.53766  0.24825  1.0000
  C   C858      1.0  0.88002  0.52794  0.16431  1.0000
  N   N87       1.0  0.95664  0.60633  0.08370  1.0000
  C   C859      1.0  0.94272  0.59913  0.05916  1.0000
  C   C860      1.0  0.94030  0.46999  0.06190  1.0000
  C   C861      1.0  0.96347  0.59283  0.09094  1.0000
  C   C862      1.0  0.94873  0.61033  0.11026  1.0000
  H   H1384     1.0  0.93142  0.58635  0.06513  1.0000
  H   H1385     1.0  0.00558  0.45039  0.09751  1.0000
  H   H1386     1.0  0.98145  0.48265  0.06038  1.0000
  Fe  Fe175     1.0  0.94498  0.52502  0.03357  1.0000
  C   C863      1.0  0.77658  0.45882  0.31536  1.0000
  H   H1387     1.0  0.77111  0.45954  0.33733  1.0000
  C   C864      1.0  0.76300  0.42633  0.31355  1.0000
  H   H1388     1.0  0.98428  0.40792  0.02991  1.0000
  S   S350      1.0  0.89302  0.37846  0.03148  1.0000
  S   S351      1.0  0.95588  0.50521  0.04695  1.0000
  C   C865      1.0  0.90962  0.46160  0.02470  1.0000
  H   H1389     1.0  0.76517  0.41388  0.31098  1.0000
  H   H1390     1.0  0.01245  0.48836  0.02112  1.0000
  C   C866      1.0  0.92328  0.47915  0.02638  1.0000
  H   H1391     1.0  0.00046  0.45520  0.02016  1.0000
  N   N88       1.0  0.98446  0.47016  0.01974  1.0000
  Fe  Fe176     1.0  0.90696  0.37092  0.50686  1.0000
  S   S352      1.0  0.90539  0.36053  0.45908  1.0000
  S   S353      1.0  0.92827  0.39868  0.51911  1.0000
  H   H1392     1.0  0.95223  0.36209  0.50412  1.0000
  H   H1393     1.0  0.88852  0.47908  0.43528  1.0000
  C   C867      1.0  0.88678  0.35726  0.43465  1.0000
  C   C868      1.0  0.87127  0.35782  0.44518  1.0000
  H   H1394     1.0  0.95488  0.38159  0.42956  1.0000
  H   H1395     1.0  0.89937  0.35326  0.39573  1.0000
  H   H1396     1.0  0.96518  0.57390  0.58808  1.0000
  H   H1397     1.0  0.94108  0.58146  0.56648  1.0000
  H   H1398     1.0  0.82633  0.39725  0.67765  1.0000
  H   H1399     1.0  0.95531  0.38466  0.51217  1.0000
  H   H1400     1.0  0.86540  0.50649  0.61105  1.0000
  H   H1401     1.0  0.93644  0.43450  0.53091  1.0000
  H   H1402     1.0  0.96005  0.46405  0.51866  1.0000
  S   S354      1.0  0.91551  0.35818  0.54457  1.0000
  Fe  Fe177     1.0  0.90749  0.40090  0.54776  1.0000
  S   S355      1.0  0.91604  0.39077  0.58855  1.0000
  S   S356      1.0  0.90121  0.42474  0.55368  1.0000
  Fe  Fe178     1.0  0.93515  0.38630  0.55884  1.0000
  S   S357      1.0  0.96264  0.39106  0.57852  1.0000
  Fe  Fe179     1.0  0.89575  0.36374  0.57142  1.0000
  H   H1403     1.0  0.93347  0.36229  0.60607  1.0000
  S   S358      1.0  0.88557  0.37415  0.53248  1.0000
  N   N89       1.0  0.93678  0.36481  0.65384  1.0000
  H   H1404     1.0  0.87344  0.34822  0.36067  1.0000
  S   S359      1.0  0.83789  0.34656  0.37123  1.0000
  H   H1405     1.0  0.88660  0.43897  0.47543  1.0000
  C   C869      1.0  0.89314  0.52448  0.60554  1.0000
  C   C870      1.0  0.88591  0.36417  0.65260  1.0000
  H   H1406     1.0  0.89484  0.37485  0.63954  1.0000
  C   C871      1.0  0.98237  0.40850  0.56620  1.0000
  H   H1407     1.0  0.96284  0.37132  0.67467  1.0000
  C   C872      1.0  0.91945  0.44552  0.54969  1.0000
  C   C873      1.0  0.93500  0.44657  0.53670  1.0000
  C   C874      1.0  0.94840  0.46333  0.52986  1.0000
  C   C875      1.0  0.94628  0.47904  0.53621  1.0000
  C   C876      1.0  0.93126  0.47806  0.55082  1.0000
  C   C877      1.0  0.91777  0.46131  0.55732  1.0000
  H   H1408     1.0  0.92996  0.49020  0.55699  1.0000
  H   H1409     1.0  0.90589  0.46057  0.56780  1.0000
  C   C878      1.0  0.87273  0.35080  0.38418  1.0000
  C   C879      1.0  0.87834  0.51953  0.65309  1.0000
  C   C880      1.0  0.93906  0.38368  0.65532  1.0000
  S   S360      1.0  0.96159  0.49953  0.52331  1.0000
  S   S361      1.0  0.85824  0.50912  0.67252  1.0000
  C   C881      1.0  0.85651  0.35469  0.42538  1.0000
  H   H1410     1.0  0.87044  0.39509  0.67817  1.0000
  C   C882      1.0  0.88310  0.52710  0.35880  1.0000
  H   H1411     1.0  0.96746  0.58723  0.62107  1.0000
  H   H1412     1.0  0.87716  0.46161  0.49526  1.0000
  H   H1413     1.0  0.90583  0.55293  0.36483  1.0000
  C   C883      1.0  0.85717  0.35121  0.39483  1.0000
  H   H1414     1.0  0.94446  0.60447  0.56605  1.0000
  N   N90       1.0  0.89965  0.46735  0.46787  1.0000
  H   H1415     1.0  0.87518  0.45561  0.44045  1.0000
  H   H1416     1.0  0.97357  0.40929  0.47988  1.0000
  H   H1417     1.0  0.90830  0.45054  0.49378  1.0000
  H   H1418     1.0  0.87054  0.49506  0.41092  1.0000
  C   C884      1.0  0.89105  0.47202  0.49288  1.0000
  C   C885      1.0  0.88921  0.46608  0.43973  1.0000
  H   H1419     1.0  0.99256  0.47605  0.55781  1.0000
  C   C886      1.0  0.97680  0.61878  0.59450  1.0000
  C   C887      1.0  0.97630  0.37021  0.46145  1.0000
  H   H1420     1.0  0.89027  0.48508  0.48964  1.0000
  C   C888      1.0  0.91811  0.48146  0.46587  1.0000
  S   S362      1.0  0.92150  0.51535  0.52777  1.0000
  H   H1421     1.0  0.94616  0.39114  0.63583  1.0000
  C   C889      1.0  0.99912  0.41075  0.57863  1.0000
  H   H1422     1.0  0.96892  0.41807  0.53380  1.0000
  H   H1423     1.0  0.96716  0.35560  0.46142  1.0000
  H   H1424     1.0  0.99846  0.57761  0.54825  1.0000
  H   H1425     1.0  0.91816  0.49477  0.46162  1.0000
  C   C890      1.0  0.95462  0.36458  0.65402  1.0000
  H   H1426     1.0  0.85510  0.40117  0.65694  1.0000
  H   H1427     1.0  0.94265  0.59342  0.60088  1.0000
  H   H1428     1.0  0.94415  0.38593  0.46081  1.0000
  C   C891      1.0  0.98173  0.41942  0.54315  1.0000
  H   H1429     1.0  0.99900  0.48058  0.50459  1.0000
  N   N91       1.0  0.96740  0.38130  0.47242  1.0000
  H   H1430     1.0  0.98468  0.40462  0.44953  1.0000
  H   H1431     1.0  0.84453  0.35502  0.43382  1.0000
  C   C892      1.0  0.95137  0.37797  0.45291  1.0000
  H   H1432     1.0  0.99210  0.40365  0.48730  1.0000
  H   H1433     1.0  0.87056  0.36049  0.46864  1.0000
  C   C893      1.0  0.97999  0.40054  0.47224  1.0000
  H   H1434     1.0  0.92628  0.48307  0.48691  1.0000
  C   C894      1.0  0.00032  0.49082  0.56206  1.0000
  H   H1435     1.0  0.91510  0.54720  0.41548  1.0000
  H   H1436     1.0  0.97218  0.61906  0.61738  1.0000
  H   H1437     1.0  0.92515  0.47830  0.44757  1.0000
  H   H1438     1.0  0.89869  0.47330  0.51442  1.0000
  H   H1439     1.0  0.99059  0.49697  0.56031  1.0000
  C   C895      1.0  0.90025  0.44988  0.47301  1.0000
  H   H1440     1.0  0.98054  0.37346  0.43826  1.0000
  H   H1441     1.0  0.90641  0.44577  0.45441  1.0000
  H   H1442     1.0  0.89536  0.46270  0.42033  1.0000
  H   H1443     1.0  0.91302  0.35594  0.62483  1.0000
  H   H1444     1.0  0.98897  0.60547  0.55010  1.0000
  C   C896      1.0  0.87495  0.34746  0.63877  1.0000
  C   C897      1.0  0.92641  0.35569  0.62609  1.0000
  C   C898      1.0  0.96194  0.37646  0.50313  1.0000
  H   H1445     1.0  0.99976  0.40242  0.59656  1.0000
  H   H1446     1.0  0.99713  0.43965  0.51288  1.0000
  Fe  Fe180     1.0  0.92331  0.53057  0.48573  1.0000
  C   C899      1.0  0.89448  0.53184  0.66717  1.0000
  S   S363      1.0  0.95072  0.53271  0.47643  1.0000
  S   S364      1.0  0.89884  0.51606  0.45351  1.0000
  C   C900      1.0  0.99773  0.43175  0.53150  1.0000
  C   C901      1.0  0.87781  0.51591  0.62221  1.0000
  C   C902      1.0  0.90353  0.53697  0.40344  1.0000
  C   C903      1.0  0.89354  0.52071  0.41679  1.0000
  C   C904      1.0  0.90972  0.54069  0.65038  1.0000
  S   S365      1.0  0.92842  0.54945  0.59905  1.0000
  C   C905      1.0  0.97205  0.58781  0.59798  1.0000
  H   H1447     1.0  0.99163  0.62341  0.59631  1.0000
  H   H1448     1.0  0.96802  0.58718  0.53884  1.0000
  H   H1449     1.0  0.97074  0.60984  0.53529  1.0000
  Fe  Fe181     1.0  0.96146  0.55847  0.50442  1.0000
  S   S366      1.0  0.93395  0.55756  0.51075  1.0000
  S   S367      1.0  0.98567  0.58249  0.48894  1.0000
  Fe  Fe182     1.0  0.94976  0.51967  0.51998  1.0000
  H   H1450     1.0  0.98670  0.59144  0.59924  1.0000
  Fe  Fe183     1.0  0.93390  0.54227  0.55211  1.0000
  H   H1451     1.0  0.99694  0.50147  0.50705  1.0000
  S   S368      1.0  0.96221  0.54541  0.54723  1.0000
  C   C906      1.0  0.90915  0.53710  0.61947  1.0000
  C   C907      1.0  0.87337  0.51071  0.37191  1.0000
  C   C908      1.0  0.89823  0.54018  0.37468  1.0000
  H   H1452     1.0  0.97403  0.62878  0.58144  1.0000
  C   C909      1.0  0.87847  0.50762  0.40080  1.0000
  H   H1453     1.0  0.97366  0.37880  0.51862  1.0000
  H   H1454     1.0  0.94156  0.36355  0.45241  1.0000
  C   C910      1.0  0.97417  0.60083  0.54985  1.0000
  H   H1455     1.0  0.92198  0.55046  0.66140  1.0000
  H   H1456     1.0  0.89242  0.52163  0.58180  1.0000
  C   C911      1.0  0.94817  0.59483  0.57836  1.0000
  N   N92       1.0  0.96779  0.60058  0.58019  1.0000
  H   H1457     1.0  0.98849  0.37249  0.47570  1.0000
  H   H1458     1.0  0.83149  0.37035  0.66158  1.0000
  C   C912      1.0  0.88742  0.35369  0.40408  1.0000
  H   H1459     1.0  0.92590  0.38442  0.65541  1.0000
  H   H1460     1.0  0.96227  0.37176  0.63473  1.0000
  H   H1461     1.0  0.94701  0.39105  0.67581  1.0000
  H   H1462     1.0  0.78774  0.44271  0.35817  1.0000
  C   C913      1.0  0.00742  0.59009  0.50668  1.0000
  C   C914      1.0  0.86011  0.40041  0.67999  1.0000
  H   H1463     1.0  0.95346  0.35058  0.65258  1.0000
  H   H1464     1.0  0.86168  0.50053  0.36006  1.0000
  C   C915      1.0  0.00987  0.58620  0.53623  1.0000
  H   H1465     1.0  0.00594  0.49308  0.58548  1.0000
  C   C916      1.0  0.00654  0.49524  0.51009  1.0000
  C   C917      1.0  0.88561  0.36690  0.68353  1.0000
  H   H1466     1.0  0.91341  0.35498  0.67991  1.0000
  C   C918      1.0  0.92707  0.35534  0.67979  1.0000
  C   C919      1.0  0.83682  0.37046  0.68474  1.0000
  H   H1467     1.0  0.84649  0.36427  0.68381  1.0000
  S   S369      1.0  0.91559  0.37378  0.95754  1.0000
  H   H1468     1.0  0.89183  0.39188  0.97305  1.0000
  S   S370      1.0  0.83128  0.47969  0.73466  1.0000
  S   S371      1.0  0.84318  0.49282  0.80428  1.0000
  Fe  Fe184     1.0  0.85106  0.47825  0.76917  1.0000
  S   S372      1.0  0.85953  0.45651  0.78269  1.0000
  H   H1469     1.0  0.83779  0.41002  0.71111  1.0000
  N   N93       1.0  0.84539  0.38889  0.69835  1.0000
  S   S373      1.0  0.87502  0.35661  0.73972  1.0000
  Fe  Fe185     1.0  0.82049  0.35378  0.78412  1.0000
  S   S374      1.0  0.80825  0.37310  0.77292  1.0000
  S   S375      1.0  0.84872  0.36258  0.80248  1.0000
  C   C920      1.0  0.84449  0.43359  0.78102  1.0000
  C   C921      1.0  0.82724  0.42736  0.76750  1.0000
  C   C922      1.0  0.81598  0.40877  0.76577  1.0000
  C   C923      1.0  0.82194  0.39642  0.77754  1.0000
  C   C924      1.0  0.83902  0.40281  0.79162  1.0000
  C   C925      1.0  0.85030  0.42128  0.79313  1.0000
  H   H1470     1.0  0.82265  0.43681  0.75816  1.0000
  H   H1471     1.0  0.80273  0.40395  0.75498  1.0000
  H   H1472     1.0  0.84361  0.39357  0.80139  1.0000
  H   H1473     1.0  0.86357  0.42603  0.80379  1.0000
  H   H1474     1.0  0.91591  0.55171  0.92134  1.0000
  Fe  Fe186     1.0  0.85020  0.34390  0.76643  1.0000
  C   C926      1.0  0.86243  0.34654  0.90129  1.0000
  H   H1475     1.0  0.86325  0.38333  0.72820  1.0000
  C   C927      1.0  0.89500  0.36265  0.93638  1.0000
  C   C928      1.0  0.89498  0.36248  0.90507  1.0000
  C   C929      1.0  0.87877  0.35461  0.88757  1.0000
  H   H1476     1.0  0.86856  0.38327  0.96118  1.0000
  S   S376      1.0  0.89942  0.51789  0.95306  1.0000
  C   C930      1.0  0.87866  0.35451  0.95003  1.0000
  H   H1477     1.0  0.90757  0.36863  0.89431  1.0000
  H   H1478     1.0  0.87848  0.35431  0.97408  1.0000
  H   H1479     1.0  0.89508  0.53487  0.69082  1.0000
  S   S377      1.0  0.93175  0.41141  0.01721  1.0000
  H   H1480     1.0  0.87893  0.35464  0.86351  1.0000
  H   H1481     1.0  0.78781  0.49320  0.72505  1.0000
  C   C931      1.0  0.91207  0.51223  0.82341  1.0000
  C   C932      1.0  0.89017  0.48344  0.83820  1.0000
  N   N94       1.0  0.88527  0.40931  0.94517  1.0000
  C   C933      1.0  0.90144  0.42549  0.95560  1.0000
  C   C934      1.0  0.87013  0.41418  0.93958  1.0000
  H   H1482     1.0  0.89459  0.37965  0.69426  1.0000
  H   H1483     1.0  0.91322  0.51846  0.84611  1.0000
  N   N95       1.0  0.83142  0.53358  0.85673  1.0000
  H   H1484     1.0  0.82736  0.54883  0.89278  1.0000
  C   C935      1.0  0.96739  0.46870  0.00558  1.0000
  H   H1485     1.0  0.99781  0.62876  0.00231  1.0000
  H   H1486     1.0  0.82048  0.38768  0.71343  1.0000
  H   H1487     1.0  0.97667  0.44163  0.01745  1.0000
  H   H1488     1.0  0.87320  0.42454  0.92248  1.0000
  H   H1489     1.0  0.86700  0.41974  0.96032  1.0000
  H   H1490     1.0  0.99740  0.49897  0.01755  1.0000
  C   C936      1.0  0.88062  0.39575  0.96824  1.0000
  C   C937      1.0  0.90176  0.54601  0.87793  1.0000
  H   H1491     1.0  0.91286  0.42208  0.96139  1.0000
  H   H1492     1.0  0.91871  0.47592  0.84445  1.0000
  H   H1493     1.0  0.93507  0.49733  0.83330  1.0000
  Fe  Fe187     1.0  0.91716  0.38163  0.00690  1.0000
  H   H1494     1.0  0.84199  0.52808  0.89800  1.0000
  H   H1495     1.0  0.89773  0.45843  0.01039  1.0000
  S   S378      1.0  0.87425  0.50311  0.75530  1.0000
  H   H1496     1.0  0.92499  0.51974  0.81279  1.0000
  H   H1497     1.0  0.95575  0.45670  0.01307  1.0000
  H   H1498     1.0  0.86691  0.41440  0.68976  1.0000
  H   H1499     1.0  0.00052  0.48689  0.98610  1.0000
  H   H1500     1.0  0.91947  0.49198  0.78305  1.0000
  C   C938      1.0  0.92170  0.49042  0.84291  1.0000
  H   H1501     1.0  0.90931  0.55944  0.87030  1.0000
  S   S379      1.0  0.97589  0.59205  0.00836  1.0000
  C   C939      1.0  0.90659  0.48521  0.79416  1.0000
  C   C940      1.0  0.87387  0.35317  0.70069  1.0000
  C   C941      1.0  0.83624  0.53602  0.82528  1.0000
  H   H1502     1.0  0.82543  0.36151  0.69778  1.0000
  H   H1503     1.0  0.87943  0.48583  0.82592  1.0000
  Fe  Fe188     1.0  0.82544  0.49696  0.76859  1.0000
  H   H1504     1.0  0.85867  0.54105  0.87282  1.0000
  C   C942      1.0  0.78002  0.49523  0.76961  1.0000
  C   C943      1.0  0.77743  0.49370  0.73857  1.0000
  H   H1505     1.0  0.87776  0.40090  0.98956  1.0000
  H   H1506     1.0  0.92284  0.49611  0.86605  1.0000
  H   H1507     1.0  0.87726  0.38904  0.90965  1.0000
  N   N96       1.0  0.90764  0.49283  0.82465  1.0000
  H   H1508     1.0  0.88578  0.46860  0.83773  1.0000
  H   H1509     1.0  0.89073  0.48806  0.86180  1.0000
  H   H1510     1.0  0.90154  0.51456  0.81032  1.0000
  H   H1511     1.0  0.84568  0.51742  0.86534  1.0000
  Fe  Fe189     1.0  0.86502  0.51775  0.78854  1.0000
  H   H1512     1.0  0.84405  0.56194  0.86776  1.0000
  H   H1513     1.0  0.76823  0.49700  0.81087  1.0000
  C   C944      1.0  0.90553  0.54168  0.90686  1.0000
  H   H1514     1.0  0.86839  0.50568  0.85477  1.0000
  H   H1515     1.0  0.98801  0.45329  0.98567  1.0000
  H   H1516     1.0  0.90575  0.43583  0.93842  1.0000
  S   S380      1.0  0.79991  0.49630  0.78809  1.0000
  H   H1517     1.0  0.89895  0.43184  0.97598  1.0000
  Fe  Fe190     1.0  0.85434  0.50564  0.72248  1.0000
  C   C945      1.0  0.84501  0.52990  0.87405  1.0000
  H   H1518     1.0  0.89600  0.48668  0.77992  1.0000
  H   H1519     1.0  0.87455  0.49819  0.90575  1.0000
  H   H1520     1.0  0.90305  0.47052  0.79420  1.0000
  Fe  Fe191     1.0  0.92035  0.53294  0.99054  1.0000
  H   H1521     1.0  0.83646  0.52364  0.81537  1.0000
  C   C946      1.0  0.88227  0.51156  0.89799  1.0000
  C   C947      1.0  0.81367  0.51823  0.85846  1.0000
  C   C948      1.0  0.88835  0.53307  0.85887  1.0000
  H   H1522     1.0  0.82065  0.55325  0.85639  1.0000
  H   H1523     1.0  0.81385  0.50547  0.84987  1.0000
  S   S381      1.0  0.84716  0.52295  0.75436  1.0000
  S   S382      1.0  0.88376  0.53887  0.82272  1.0000
  H   H1524     1.0  0.82636  0.53887  0.81136  1.0000
  S   S383      1.0  0.94935  0.53783  0.98911  1.0000
  C   C949      1.0  0.83083  0.55014  0.86898  1.0000
  H   H1525     1.0  0.80317  0.52020  0.84465  1.0000
  C   C950      1.0  0.87872  0.51579  0.86904  1.0000
  H   H1526     1.0  0.84982  0.54713  0.82300  1.0000
  C   C951      1.0  0.89572  0.52440  0.91703  1.0000
  H   H1527     1.0  0.80937  0.51616  0.88177  1.0000
  H   H1528     1.0  0.85776  0.40223  0.93158  1.0000
  H   H1529     1.0  0.89192  0.41132  0.89913  1.0000
  C   C952      1.0  0.76637  0.49584  0.78684  1.0000
  C   C953      1.0  0.88892  0.40174  0.91745  1.0000
  H   H1530     1.0  0.85877  0.40195  0.74003  1.0000
  H   H1531     1.0  0.90064  0.39844  0.92095  1.0000
  H   H1532     1.0  0.84204  0.37932  0.74284  1.0000
  C   C954      1.0  0.00670  0.62263  0.00852  1.0000
  H   H1533     1.0  0.92208  0.48929  0.01273  1.0000
  C   C955      1.0  0.99938  0.48683  0.01068  1.0000
  H   H1534     1.0  0.96734  0.46759  0.98089  1.0000
  C   C956      1.0  0.83192  0.39630  0.70013  1.0000
  H   H1535     1.0  0.96503  0.48074  0.01134  1.0000
  C   C957      1.0  0.85269  0.38837  0.72867  1.0000
  H   H1536     1.0  0.93429  0.36203  0.70120  1.0000
  C   C958      1.0  0.98753  0.45439  0.01029  1.0000
  S   S384      1.0  0.92672  0.55952  0.01411  1.0000
  C   C959      1.0  0.86248  0.34645  0.93256  1.0000
  Fe  Fe192     1.0  0.95561  0.56340  0.01619  1.0000
  C   C960      1.0  0.99960  0.60415  0.01310  1.0000
