data_image0
_chemical_formula_structural       FeS2FeH2C2HSHCH2CH2S2CSCHFeCHCH2NHCHCH2CH2FeCHCH2FeS2HC6HCFeH2SH2SCHCH3CHNH2CH2C3HNH2CH5CHCFeH3FeHSC3H4SNHFe4S2Fe2S3H3SH4CHC2H3CH2CHC2HC6H4SCHCH3SH2CH2SCHSH2CHSH2CNHCH8C2HCH3NHC4NSC2H3SHFeCH4CHC3HCH2CHCSC2NH2SCHC3H7CH2C2SC4FeS2FeSFe2S3H2CNFeSHCH3C2SHCSCSCHNC2H3CH3CHC3SC6H7C2SH3NC4H10C2HC2HC3HSH2C2H4SHCHCH2SH2CHC2H4C2H3FeCSH6CFeHCHNCHSH5CH4SC2HC2NHCH5FeHCHFeS2H2CHC2H2CHFeHCHCSHCH2SH2SC2HCNH3FeS2FeS2FeSFeS3CFeS2FeCHFe2S3C2H4CH4CHC2SC2H2C2HCHC2HC8H3C3HCH2CH6NHSC2H8SH3CH4CH2CHCHNCNH2CH5C2SC2H2C2SH7NCFeH2FeS2FeS2FeSFeS3HFeS2FeS2FeSFeHS2C3H2C2H5C2HC6H6C2HSCHC3HCHCH4CHNHC3H4C3HCH2NH3CH3SCH2NCH2C2HC2H3CHCFeH2NC2H4CH2CH3NH4CNC3HCH6CH3CH2CH2C2H10CHCHCHCH5CNCH4SHCHC2HC2H2CH2FeC3NSH2SHCHCH4FeCH2SHC2SCH4CSC2S2H2FeCH4CSHC2SC2FeHSH3FeS2FeS2FeSFeS4HSH4C7H2CHC6H4C6H4SNCSH2C2H2NC2H2FeCH5FeH4NC2H3C2H2CH6CSC2HCHCNC2H10CHC2HSH2CSFeH3NH4SH5SC2FeHCH4NCHFeS2FeS2FeSFeS3HFeHSH2SH2C3HFeC6H4C6H6C2H5NC6SH2CH2C2H4NCH2CH4SH2SH10NCH4CH2SHSHCHCHFeHNC4HC2H9NHCHCHCHSCH3CH2C2H3CSFe2SCFeCFeHFeSNSFeCS2FeSCFeS2FeSFeS3C6H6NC6H6CH3SH2CH3S2H5SHSC4H2CSHCHC2H4C2SNHNC4H12CSCSH4CHCHSCH3C4H3CHCH3FeSH2CH2SHFeCH2FeHCFeH2SCH4C2SFeS2FeSHFe2S3HSCHSHFeS2FeSFeSFeS3HNC2H4CH2C6H4C6H5C2H4CH4C3HCHFeH2NC4H12CSC2FeHC2H2NCHCH5C2H3CHSHCSC4S2H2C2NHCH3CHCH2CH3FeC4SH7C5FeH4CHNHNCHC2H3CH2CH2CH3SH2SFeC2HSCFeSH4CHC4H2CH2CFeHCH2NFeCSCHSCHFeH2SC2HSFeC3H4SHFeHC2HCHSHNHC4H5SH2SFeS2FeS2Fe2S3FeS2FeSCFeSFeS3H3CH2CH2C6H5NC6H6C2H2NC4H8CFeH3FeHSC2H3C4H4CNH5FeNH3CSHCH4SC3HCH2SH2CHC3H4C2HSHCH3NHC2H6CSCSFeSFeSFeSFeS3FeS2FeS2FeHFeS3HC2HCHCH2SFeH2CNC2HC8H4C6H5CHCH2C4H2CH5CHC2H3NHCH2NHC2H2C2H4SH3S2HCH9CH4C3H2CH2CHNHS2HCH2CH3CHC2SH2S2HFeH2SNH2C2H2CH3CSCHFeHCFeSFeCHC2SCHFeSH2NH2CH3CH3CHSCHCH4CH3CH6CHCHSHFeS2FeS2FeSFeS3CSH2CHC6H3CHSH2C4H2C6H10CHFeH3FeHSH2NHSHSHCHCH2Fe2S2HNHC3FeCSCFeCH2C3HCHCHNCH3SCHCH4SHFeSHFeS2FeSFeS3CH2C7H5CHC6H3CSH5CH11NH2CHCH5CN2HNH3CH5C3SCSCHFeS2C2H2CH3CFeCH2C2H2FeS2FeSCFeSFeSCNHCHSCHSHCHS2HC2H4CH4CHCHCH4SCHCNH3C3H3CH11FeSC2SFeSFeS3CFeC2HC3HCHCHNHC2HCHCH6C2SH5CH2NH2SH2NH2CH2C
_chemical_formula_sum              "Fe144 S288 H1152 C720 N72"
_cell_length_a       84.1953
_cell_length_b       86.8342
_cell_length_c       32.5738
_cell_angle_alpha    89.4773
_cell_angle_beta     84.5509
_cell_angle_gamma    110.287

_space_group_name_H-M_alt    "P 1"
_space_group_IT_number       1

loop_
  _space_group_symop_operation_xyz
  'x, y, z'

loop_
  _atom_site_type_symbol
  _atom_site_label
  _atom_site_symmetry_multiplicity
  _atom_site_fract_x
  _atom_site_fract_y
  _atom_site_fract_z
  _atom_site_occupancy
  Fe  Fe1       1.0  0.07791  0.46851  0.30704  1.0000
  S   S1        1.0  0.10041  0.46963  0.34038  1.0000
  S   S2        1.0  0.06081  0.44398  0.28795  1.0000
  Fe  Fe2       1.0  0.09037  0.48381  0.38725  1.0000
  H   H1        1.0  0.12210  0.49077  0.20536  1.0000
  H   H2        1.0  0.13374  0.49720  0.02414  1.0000
  C   C1        1.0  0.04181  0.44400  0.27004  1.0000
  C   C2        1.0  0.02773  0.42936  0.27286  1.0000
  H   H3        1.0  0.03437  0.45290  0.34632  1.0000
  S   S3        1.0  0.14096  0.50442  0.27552  1.0000
  H   H4        1.0  0.13129  0.49238  0.13021  1.0000
  C   C3        1.0  0.04022  0.45854  0.25545  1.0000
  H   H5        1.0  0.02894  0.41808  0.28394  1.0000
  H   H6        1.0  0.04049  0.43509  0.44452  1.0000
  C   C4        1.0  0.02463  0.45832  0.24294  1.0000
  H   H7        1.0  0.05104  0.46989  0.25337  1.0000
  H   H8        1.0  0.02350  0.46951  0.23088  1.0000
  S   S4        1.0  0.06710  0.48115  0.35546  1.0000
  S   S5        1.0  0.08142  0.47626  0.45496  1.0000
  C   C5        1.0  0.01195  0.42934  0.26249  1.0000
  S   S6        1.0  0.09147  0.49157  0.26776  1.0000
  C   C6        1.0  0.13441  0.48527  0.01343  1.0000
  H   H9        1.0  0.11769  0.49213  0.46487  1.0000
  Fe  Fe3       1.0  0.11340  0.49387  0.30441  1.0000
  C   C7        1.0  0.02432  0.42173  0.37862  1.0000
  H   H10       1.0  0.02184  0.45994  0.38372  1.0000
  C   C8        1.0  0.13516  0.49770  0.19385  1.0000
  H   H11       1.0  0.03578  0.42464  0.35577  1.0000
  H   H12       1.0  0.00887  0.42278  0.45374  1.0000
  N   N1        1.0  0.02380  0.43660  0.39963  1.0000
  H   H13       1.0  0.03986  0.45533  0.43559  1.0000
  C   C9        1.0  0.14041  0.49863  0.15120  1.0000
  H   H14       1.0  0.14083  0.48080  0.03687  1.0000
  C   C10       1.0  0.03944  0.44376  0.42048  1.0000
  H   H15       1.0  0.02475  0.41215  0.40094  1.0000
  H   H16       1.0  0.05111  0.44687  0.39813  1.0000
  C   C11       1.0  0.02280  0.44877  0.36890  1.0000
  H   H17       1.0  0.01161  0.44357  0.35106  1.0000
  H   H18       1.0  0.12117  0.47639  0.01403  1.0000
  Fe  Fe4       1.0  0.08276  0.50440  0.32013  1.0000
  C   C12       1.0  0.01043  0.44376  0.24683  1.0000
  H   H19       1.0  0.01287  0.41618  0.36182  1.0000
  C   C13       1.0  0.00864  0.43208  0.43030  1.0000
  H   H20       1.0  0.16815  0.49563  0.99577  1.0000
  H   H21       1.0  0.00784  0.44297  0.44690  1.0000
  Fe  Fe5       1.0  0.08255  0.47255  0.74045  1.0000
  S   S7        1.0  0.11113  0.48442  0.72893  1.0000
  S   S8        1.0  0.07127  0.44499  0.75062  1.0000
  H   H22       1.0  0.15220  0.47241  0.92854  1.0000
  C   C14       1.0  0.05048  0.43286  0.74017  1.0000
  C   C15       1.0  0.03844  0.43953  0.72875  1.0000
  C   C16       1.0  0.02221  0.42900  0.71958  1.0000
  C   C17       1.0  0.11864  0.49718  0.52979  1.0000
  C   C18       1.0  0.14513  0.47130  0.95976  1.0000
  C   C19       1.0  0.04623  0.41579  0.74229  1.0000
  H   H23       1.0  0.04158  0.45271  0.72714  1.0000
  C   C20       1.0  0.08696  0.44356  0.57647  1.0000
  Fe  Fe6       1.0  0.10836  0.50437  0.76996  1.0000
  H   H24       1.0  0.05538  0.41052  0.75118  1.0000
  H   H25       1.0  0.09015  0.45598  0.56133  1.0000
  S   S9        1.0  0.07693  0.48504  0.68624  1.0000
  H   H26       1.0  0.07645  0.43489  0.56087  1.0000
  H   H27       1.0  0.10819  0.45281  0.63512  1.0000
  S   S10       1.0  0.08016  0.49111  0.78571  1.0000
  C   C21       1.0  0.16111  0.49944  0.97274  1.0000
  H   H28       1.0  0.09838  0.43994  0.57022  1.0000
  C   C22       1.0  0.10924  0.49639  0.56829  1.0000
  H   H29       1.0  0.09319  0.45580  0.67429  1.0000
  H   H30       1.0  0.01805  0.49441  0.69019  1.0000
  H   H31       1.0  0.01290  0.43409  0.71092  1.0000
  C   C23       1.0  0.09146  0.49054  0.57065  1.0000
  H   H32       1.0  0.07482  0.42690  0.67441  1.0000
  N   N2        1.0  0.08210  0.44363  0.62128  1.0000
  H   H33       1.0  0.15202  0.46676  0.98184  1.0000
  H   H34       1.0  0.05559  0.43909  0.61571  1.0000
  C   C24       1.0  0.03025  0.40541  0.73297  1.0000
  H   H35       1.0  0.02295  0.50172  0.76216  1.0000
  H   H36       1.0  0.09910  0.46831  0.62746  1.0000
  C   C25       1.0  0.06677  0.44826  0.62800  1.0000
  C   C26       1.0  0.08317  0.48480  0.53540  1.0000
  C   C27       1.0  0.01812  0.41186  0.72172  1.0000
  H   H37       1.0  0.06324  0.44912  0.66144  1.0000
  N   N3        1.0  0.14383  0.48722  0.97189  1.0000
  H   H38       1.0  0.12175  0.48388  0.93972  1.0000
  H   H39       1.0  0.08968  0.42317  0.63614  1.0000
  C   C28       1.0  0.07841  0.42710  0.64051  1.0000
  H   H40       1.0  0.06762  0.41772  0.62739  1.0000
  H   H41       1.0  0.06940  0.47995  0.53783  1.0000
  H   H42       1.0  0.02721  0.39223  0.73478  1.0000
  H   H43       1.0  0.06886  0.46042  0.61280  1.0000
  H   H44       1.0  0.08408  0.49038  0.59964  1.0000
  C   C29       1.0  0.09627  0.45564  0.64034  1.0000
  H   H45       1.0  0.13232  0.46173  0.95895  1.0000
  C   C30       1.0  0.13478  0.49289  0.94169  1.0000
  Fe  Fe7       1.0  0.10518  0.49814  0.67672  1.0000
  H   H46       1.0  0.14173  0.49477  0.91012  1.0000
  H   H47       1.0  0.16877  0.50121  0.94211  1.0000
  H   H48       1.0  0.13344  0.50481  0.95020  1.0000
  Fe  Fe8       1.0  0.07706  0.50469  0.73022  1.0000
  H   H49       1.0  0.13241  0.50177  0.52759  1.0000
  S   S11       1.0  0.11998  0.50199  0.61312  1.0000
  C   C31       1.0  0.00991  0.50235  0.76695  1.0000
  C   C32       1.0  0.09253  0.48532  0.49706  1.0000
  C   C33       1.0  0.11033  0.49178  0.49419  1.0000
  H   H50       1.0  0.32736  0.54415  0.06168  1.0000
  H   H51       1.0  0.22716  0.66322  0.13504  1.0000
  H   H52       1.0  0.13863  0.63848  0.21604  1.0000
  H   H53       1.0  0.29268  0.54372  0.09728  1.0000
  S   S12       1.0  0.20491  0.58590  0.04403  1.0000
  N   N4        1.0  0.21424  0.64003  0.10908  1.0000
  H   H54       1.0  0.31015  0.52647  0.08380  1.0000
  Fe  Fe9       1.0  0.18803  0.52583  0.04890  1.0000
  Fe  Fe10      1.0  0.22658  0.53786  0.01774  1.0000
  Fe  Fe11      1.0  0.08885  0.63494  0.37238  1.0000
  Fe  Fe12      1.0  0.10619  0.61227  0.33794  1.0000
  S   S13       1.0  0.10175  0.61610  0.27246  1.0000
  S   S14       1.0  0.11658  0.59367  0.36091  1.0000
  Fe  Fe13      1.0  0.10926  0.64273  0.28668  1.0000
  Fe  Fe14      1.0  0.07546  0.61406  0.29925  1.0000
  S   S15       1.0  0.05361  0.59889  0.26478  1.0000
  S   S16       1.0  0.11622  0.63914  0.35071  1.0000
  S   S17       1.0  0.07934  0.60784  0.36335  1.0000
  H   H55       1.0  0.11763  0.56286  0.27986  1.0000
  H   H56       1.0  0.06920  0.65299  0.19966  1.0000
  H   H57       1.0  0.04086  0.61484  0.33183  1.0000
  S   S18       1.0  0.07139  0.52380  0.30797  1.0000
  H   H58       1.0  0.03882  0.55169  0.35658  1.0000
  H   H59       1.0  0.11526  0.53634  0.21960  1.0000
  H   H60       1.0  0.14811  0.55658  0.31295  1.0000
  H   H61       1.0  0.10728  0.53275  0.27323  1.0000
  C   C34       1.0  0.00880  0.54618  0.32561  1.0000
  H   H62       1.0  0.21229  0.66377  0.09966  1.0000
  C   C35       1.0  0.13715  0.54615  0.30388  1.0000
  C   C36       1.0  0.01342  0.60384  0.33603  1.0000
  H   H63       1.0  0.30976  0.56187  0.07727  1.0000
  H   H64       1.0  0.31809  0.53254  0.17320  1.0000
  H   H65       1.0  0.30523  0.54507  0.18453  1.0000
  C   C37       1.0  0.21464  0.65613  0.12432  1.0000
  H   H66       1.0  0.02417  0.53154  0.37349  1.0000
  H   H67       1.0  0.18215  0.52215  0.15172  1.0000
  C   C38       1.0  0.21767  0.63031  0.14239  1.0000
  H   H68       1.0  0.11437  0.65656  0.44236  1.0000
  C   C39       1.0  0.13794  0.66191  0.19619  1.0000
  C   C40       1.0  0.16209  0.66112  0.13007  1.0000
  H   H69       1.0  0.14593  0.55178  0.19965  1.0000
  C   C41       1.0  0.10275  0.57421  0.34976  1.0000
  C   C42       1.0  0.10381  0.56007  0.36836  1.0000
  C   C43       1.0  0.09353  0.54449  0.35719  1.0000
  C   C44       1.0  0.08256  0.54302  0.32663  1.0000
  C   C45       1.0  0.08104  0.55715  0.30925  1.0000
  C   C46       1.0  0.09101  0.57271  0.32104  1.0000
  H   H70       1.0  0.11262  0.56114  0.39122  1.0000
  H   H71       1.0  0.09409  0.53365  0.37239  1.0000
  H   H72       1.0  0.07256  0.55614  0.28569  1.0000
  H   H73       1.0  0.08995  0.58351  0.30682  1.0000
  S   S19       1.0  0.10548  0.50823  0.35485  1.0000
  C   C47       1.0  0.27220  0.53983  0.01211  1.0000
  H   H74       1.0  0.17308  0.52009  0.22709  1.0000
  C   C48       1.0  0.19726  0.63102  0.09594  1.0000
  H   H75       1.0  0.08805  0.66181  0.13333  1.0000
  H   H76       1.0  0.15212  0.53927  0.23431  1.0000
  H   H77       1.0  0.29972  0.56131  0.12852  1.0000
  S   S20       1.0  0.07807  0.64173  0.43283  1.0000
  H   H78       1.0  0.08467  0.59036  0.45871  1.0000
  H   H79       1.0  0.19481  0.63729  0.06850  1.0000
  C   C49       1.0  0.14845  0.55038  0.23215  1.0000
  H   H80       1.0  0.13972  0.57483  0.26820  1.0000
  H   H81       1.0  0.12170  0.61227  0.43918  1.0000
  S   S21       1.0  0.08251  0.64093  0.31000  1.0000
  C   C50       1.0  0.30413  0.55385  0.10564  1.0000
  H   H82       1.0  0.23036  0.63674  0.15319  1.0000
  S   S22       1.0  0.12294  0.66301  0.23722  1.0000
  H   H83       1.0  0.27692  0.51729  0.02200  1.0000
  H   H84       1.0  0.22738  0.63070  0.06128  1.0000
  C   C51       1.0  0.22736  0.64260  0.07362  1.0000
  H   H85       1.0  0.12606  0.54479  0.32683  1.0000
  S   S23       1.0  0.21122  0.54437  0.07141  1.0000
  H   H86       1.0  0.12191  0.62656  0.47899  1.0000
  H   H87       1.0  0.15967  0.56113  0.23854  1.0000
  C   C52       1.0  0.32142  0.53702  0.09110  1.0000
  N   N5        1.0  0.31660  0.54746  0.12178  1.0000
  H   H88       1.0  0.12690  0.59352  0.49031  1.0000
  C   C53       1.0  0.03227  0.53905  0.34637  1.0000
  H   H89       1.0  0.15984  0.63779  0.15830  1.0000
  H   H90       1.0  0.07244  0.62514  0.11603  1.0000
  H   H91       1.0  0.09972  0.64922  0.11268  1.0000
  H   H92       1.0  0.08723  0.65213  0.22339  1.0000
  H   H93       1.0  0.06092  0.63778  0.13693  1.0000
  H   H94       1.0  0.14030  0.53478  0.30692  1.0000
  H   H95       1.0  0.19601  0.61828  0.08771  1.0000
  H   H96       1.0  0.04232  0.53375  0.33712  1.0000
  C   C54       1.0  0.14346  0.64848  0.19296  1.0000
  C   C55       1.0  0.09198  0.62797  0.17794  1.0000
  H   H97       1.0  0.01445  0.55896  0.33592  1.0000
  C   C56       1.0  0.01881  0.58467  0.27158  1.0000
  H   H98       1.0  0.24035  0.64940  0.08223  1.0000
  H   H99       1.0  0.21752  0.61811  0.13163  1.0000
  H   H100      1.0  0.27203  0.56414  0.99974  1.0000
  N   N6        1.0  0.08279  0.63899  0.16765  1.0000
  H   H101      1.0  0.33776  0.56922  0.10107  1.0000
  C   C57       1.0  0.03013  0.60578  0.31969  1.0000
  C   C58       1.0  0.11365  0.61553  0.46432  1.0000
  C   C59       1.0  0.07649  0.64489  0.20607  1.0000
  C   C60       1.0  0.11874  0.53465  0.25099  1.0000
  N   N7        1.0  0.13340  0.54879  0.26149  1.0000
  S   S24       1.0  0.20341  0.51779  0.99885  1.0000
  C   C61       1.0  0.30058  0.53742  0.00569  1.0000
  C   C62       1.0  0.03285  0.59631  0.28711  1.0000
  H   H102      1.0  0.18769  0.60707  0.02066  1.0000
  H   H103      1.0  0.22512  0.64986  0.04779  1.0000
  H   H104      1.0  0.20789  0.62805  0.16945  1.0000
  S   S25       1.0  0.24979  0.53021  0.02523  1.0000
  H   H105      1.0  0.32895  0.56938  0.15337  1.0000
  Fe  Fe15      1.0  0.20751  0.56190  0.02496  1.0000
  C   C63       1.0  0.06819  0.62986  0.14513  1.0000
  H   H106      1.0  0.05917  0.61910  0.16427  1.0000
  H   H107      1.0  0.12673  0.56655  0.22719  1.0000
  H   H108      1.0  0.10560  0.66032  0.15829  1.0000
  H   H109      1.0  0.12160  0.52308  0.25153  1.0000
  C   C64       1.0  0.09464  0.58737  0.47381  1.0000
  H   H110      1.0  0.02081  0.57749  0.24596  1.0000
  C   C65       1.0  0.21155  0.60307  0.00942  1.0000
  C   C66       1.0  0.12924  0.56395  0.25898  1.0000
  C   C67       1.0  0.33197  0.56138  0.12971  1.0000
  H   H111      1.0  0.33079  0.53194  0.10227  1.0000
  C   C68       1.0  0.20064  0.61195  0.00607  1.0000
  H   H112      1.0  0.02612  0.55015  0.25056  1.0000
  H   H113      1.0  0.08356  0.61719  0.19790  1.0000
  C   C69       1.0  0.30897  0.53759  0.16050  1.0000
  H   H114      1.0  0.06795  0.63445  0.22692  1.0000
  C   C70       1.0  0.01394  0.52230  0.29881  1.0000
  S   S26       1.0  0.17773  0.66011  0.09057  1.0000
  C   C71       1.0  0.16904  0.51542  0.16322  1.0000
  C   C72       1.0  0.10735  0.65318  0.47262  1.0000
  N   N8        1.0  0.02209  0.53926  0.31194  1.0000
  H   H115      1.0  0.20455  0.65473  0.15027  1.0000
  H   H116      1.0  0.29734  0.52701  0.15535  1.0000
  S   S27       1.0  0.18330  0.54385  0.00638  1.0000
  C   C73       1.0  0.08962  0.64559  0.47623  1.0000
  H   H117      1.0  0.03993  0.56234  0.28591  1.0000
  C   C74       1.0  0.15552  0.64815  0.16019  1.0000
  C   C75       1.0  0.09451  0.65320  0.14174  1.0000
  C   C76       1.0  0.16386  0.51420  0.20595  1.0000
  H   H118      1.0  0.10402  0.61916  0.44940  1.0000
  H   H119      1.0  0.10231  0.58340  0.44915  1.0000
  H   H120      1.0  0.18689  0.63018  0.12068  1.0000
  H   H121      1.0  0.04342  0.54447  0.26557  1.0000
  H   H122      1.0  0.10313  0.63452  0.19478  1.0000
  H   H123      1.0  0.01137  0.61144  0.36064  1.0000
  H   H124      1.0  0.09690  0.62324  0.14975  1.0000
  C   C77       1.0  0.03338  0.54950  0.27693  1.0000
  H   H125      1.0  0.30837  0.52984  0.00668  1.0000
  H   H126      1.0  0.02358  0.51659  0.28883  1.0000
  C   C78       1.0  0.28270  0.53031  0.01413  1.0000
  C   C79       1.0  0.15736  0.50748  0.13565  1.0000
  S   S28       1.0  0.16347  0.50775  0.08188  1.0000
  C   C80       1.0  0.27987  0.55662  0.00141  1.0000
  C   C81       1.0  0.30828  0.55428  0.99589  1.0000
  C   C82       1.0  0.29778  0.56378  0.99349  1.0000
  C   C83       1.0  0.14691  0.50535  0.22151  1.0000
  Fe  Fe16      1.0  0.09912  0.60463  0.66498  1.0000
  S   S29       1.0  0.09065  0.60595  0.73188  1.0000
  S   S30       1.0  0.09932  0.58289  0.62880  1.0000
  Fe  Fe17      1.0  0.10819  0.64081  0.64725  1.0000
  S   S31       1.0  0.10107  0.64579  0.71312  1.0000
  Fe  Fe18      1.0  0.11430  0.62857  0.73133  1.0000
  Fe  Fe19      1.0  0.07815  0.62287  0.70901  1.0000
  S   S32       1.0  0.05141  0.62205  0.72874  1.0000
  S   S33       1.0  0.12355  0.62578  0.66551  1.0000
  S   S34       1.0  0.08446  0.61936  0.64237  1.0000
  H   H127      1.0  0.08466  0.60986  0.51420  1.0000
  H   H128      1.0  0.21892  0.56867  0.88782  1.0000
  C   C84       1.0  0.20661  0.62750  0.98584  1.0000
  N   N9        1.0  0.20281  0.58319  0.88659  1.0000
  Fe  Fe20      1.0  0.19995  0.53706  0.95794  1.0000
  S   S35       1.0  0.19317  0.53146  0.89223  1.0000
  H   H129      1.0  0.11884  0.56699  0.83978  1.0000
  C   C85       1.0  0.20450  0.60072  0.88597  1.0000
  H   H130      1.0  0.12691  0.60773  0.53024  1.0000
  H   H131      1.0  0.24724  0.63007  0.95589  1.0000
  H   H132      1.0  0.20341  0.58184  0.82057  1.0000
  C   C86       1.0  0.14260  0.64525  0.81236  1.0000
  C   C87       1.0  0.03987  0.58900  0.71422  1.0000
  S   S36       1.0  0.05840  0.51791  0.73358  1.0000
  H   H133      1.0  0.18241  0.57613  0.84768  1.0000
  C   C88       1.0  0.08920  0.64500  0.55109  1.0000
  S   S37       1.0  0.13054  0.62854  0.78385  1.0000
  C   C89       1.0  0.15179  0.64212  0.84337  1.0000
  S   S38       1.0  0.11759  0.65884  0.59233  1.0000
  C   C90       1.0  0.17283  0.52730  0.87464  1.0000
  H   H134      1.0  0.17933  0.51643  0.81923  1.0000
  N   N10       1.0  0.10543  0.60166  0.49483  1.0000
  C   C91       1.0  0.03563  0.60236  0.72851  1.0000
  C   C92       1.0  0.22818  0.60931  0.98992  1.0000
  H   H135      1.0  0.02978  0.52344  0.70515  1.0000
  H   H136      1.0  0.01271  0.52796  0.68491  1.0000
  H   H137      1.0  0.13480  0.53268  0.89770  1.0000
  C   C93       1.0  0.11861  0.59723  0.51388  1.0000
  H   H138      1.0  0.12955  0.66344  0.50545  1.0000
  H   H139      1.0  0.18996  0.56131  0.92461  1.0000
  H   H140      1.0  0.12947  0.55682  0.80526  1.0000
  C   C94       1.0  0.12361  0.56656  0.80692  1.0000
  H   H141      1.0  0.22568  0.58720  0.91585  1.0000
  C   C95       1.0  0.14326  0.66139  0.80516  1.0000
  C   C96       1.0  0.21977  0.58179  0.88770  1.0000
  C   C97       1.0  0.01668  0.52356  0.71303  1.0000
  S   S39       1.0  0.12119  0.51848  0.82420  1.0000
  C   C98       1.0  0.08608  0.56448  0.65435  1.0000
  C   C99       1.0  0.07403  0.56451  0.68700  1.0000
  C   C100      1.0  0.06471  0.54992  0.71006  1.0000
  C   C101      1.0  0.06766  0.53539  0.70068  1.0000
  C   C102      1.0  0.07918  0.53524  0.66698  1.0000
  C   C103      1.0  0.08832  0.54976  0.64364  1.0000
  H   H142      1.0  0.07207  0.57579  0.69483  1.0000
  H   H143      1.0  0.05578  0.55008  0.73610  1.0000
  H   H144      1.0  0.08128  0.52396  0.65919  1.0000
  H   H145      1.0  0.09759  0.54968  0.61829  1.0000
  H   H146      1.0  0.08197  0.64191  0.58094  1.0000
  H   H147      1.0  0.22865  0.58825  0.86041  1.0000
  H   H148      1.0  0.19411  0.56238  0.84860  1.0000
  C   C104      1.0  0.19161  0.57457  0.92362  1.0000
  C   C105      1.0  0.10687  0.65296  0.54775  1.0000
  S   S40       1.0  0.22423  0.55673  0.97276  1.0000
  H   H149      1.0  0.19194  0.60226  0.88528  1.0000
  H   H150      1.0  0.11175  0.58846  0.77405  1.0000
  H   H151      1.0  0.05292  0.59074  0.70326  1.0000
  N   N11       1.0  0.10972  0.56310  0.77997  1.0000
  C   C106      1.0  0.09652  0.54702  0.79283  1.0000
  C   C107      1.0  0.10213  0.57610  0.78341  1.0000
  C   C108      1.0  0.11663  0.56275  0.73667  1.0000
  C   C109      1.0  0.16150  0.65489  0.86692  1.0000
  H   H152      1.0  0.10186  0.53696  0.79137  1.0000
  H   H153      1.0  0.08599  0.54380  0.77265  1.0000
  H   H154      1.0  0.09082  0.54691  0.82510  1.0000
  H   H155      1.0  0.09165  0.57381  0.76326  1.0000
  H   H156      1.0  0.09674  0.57678  0.81558  1.0000
  H   H157      1.0  0.03068  0.56316  0.70288  1.0000
  H   H158      1.0  0.12317  0.55361  0.73317  1.0000
  H   H159      1.0  0.12599  0.57495  0.72523  1.0000
  H   H160      1.0  0.10636  0.55939  0.71575  1.0000
  H   H161      1.0  0.06689  0.63585  0.51850  1.0000
  C   C110      1.0  0.01861  0.60001  0.74238  1.0000
  C   C111      1.0  0.16014  0.53177  0.89674  1.0000
  H   H162      1.0  0.01742  0.53288  0.73673  1.0000
  C   C112      1.0  0.23414  0.62491  0.96938  1.0000
  C   C113      1.0  0.14114  0.52143  0.84282  1.0000
  H   H163      1.0  0.08275  0.65294  0.64530  1.0000
  C   C114      1.0  0.19535  0.57559  0.84918  1.0000
  C   C115      1.0  0.22350  0.63426  0.96849  1.0000
  C   C116      1.0  0.02722  0.57338  0.71408  1.0000
  H   H164      1.0  0.15139  0.62971  0.84926  1.0000
  S   S41       1.0  0.10491  0.51907  0.71647  1.0000
  H   H165      1.0  0.17873  0.57549  0.92425  1.0000
  H   H166      1.0  0.13383  0.57859  0.79791  1.0000
  C   C117      1.0  0.14447  0.52901  0.88064  1.0000
  C   C118      1.0  0.15374  0.51677  0.82101  1.0000
  H   H167      1.0  0.16847  0.65223  0.89062  1.0000
  H   H168      1.0  0.19697  0.57972  0.95253  1.0000
  H   H169      1.0  0.16063  0.51162  0.98158  1.0000
  H   H170      1.0  0.16242  0.53752  0.92595  1.0000
  S   S42       1.0  0.23179  0.65464  0.94801  1.0000
  H   H171      1.0  0.21298  0.60768  0.85860  1.0000
  C   C119      1.0  0.16956  0.51985  0.83670  1.0000
  H   H172      1.0  0.21005  0.60676  0.91386  1.0000
  C   C120      1.0  0.16214  0.67102  0.85982  1.0000
  H   H173      1.0  0.01488  0.59816  0.62512  1.0000
  H   H174      1.0  0.01527  0.61027  0.75371  1.0000
  S   S43       1.0  0.18787  0.66120  0.97423  1.0000
  H   H175      1.0  0.07068  0.65526  0.69163  1.0000
  H   H176      1.0  0.11279  0.58682  0.53719  1.0000
  C   C121      1.0  0.08061  0.64159  0.51556  1.0000
  H   H177      1.0  0.13627  0.66401  0.78147  1.0000
  C   C122      1.0  0.07366  0.65882  0.65806  1.0000
  C   C123      1.0  0.01021  0.57099  0.72798  1.0000
  H   H178      1.0  0.15140  0.51101  0.79177  1.0000
  H   H179      1.0  0.06166  0.65330  0.64343  1.0000
  H   H180      1.0  0.30354  0.57682  0.98581  1.0000
  H   H181      1.0  0.01166  0.57730  0.63985  1.0000
  C   C124      1.0  0.11591  0.65710  0.50836  1.0000
  C   C125      1.0  0.09481  0.60649  0.52735  1.0000
  H   H182      1.0  0.01471  0.58357  0.58610  1.0000
  H   H183      1.0  0.10260  0.61731  0.54364  1.0000
  H   H184      1.0  0.08858  0.59637  0.55122  1.0000
  Fe  Fe21      1.0  0.21639  0.67087  0.96542  1.0000
  C   C126      1.0  0.00865  0.58518  0.61684  1.0000
  S   S44       1.0  0.33088  0.56430  0.98902  1.0000
  H   H185      1.0  0.01007  0.51136  0.79112  1.0000
  H   H186      1.0  0.08816  0.57667  0.49589  1.0000
  H   H187      1.0  0.19821  0.63441  0.98475  1.0000
  H   H188      1.0  0.23674  0.60259  0.99277  1.0000
  H   H189      1.0  0.30415  0.78856  0.15827  1.0000
  H   H190      1.0  0.33249  0.80041  0.08763  1.0000
  C   C127      1.0  0.29066  0.77711  0.08778  1.0000
  Fe  Fe22      1.0  0.19098  0.67575  0.03177  1.0000
  H   H191      1.0  0.30617  0.80162  0.03069  1.0000
  C   C128      1.0  0.32127  0.78914  0.08412  1.0000
  H   H192      1.0  0.29161  0.77247  0.05618  1.0000
  N   N12       1.0  0.30517  0.79235  0.09259  1.0000
  C   C129      1.0  0.30389  0.79794  0.13510  1.0000
  H   H193      1.0  0.31472  0.80950  0.13927  1.0000
  S   S45       1.0  0.21974  0.68454  0.02409  1.0000
  H   H194      1.0  0.29295  0.80797  0.06817  1.0000
  H   H195      1.0  0.32271  0.78507  0.05203  1.0000
  H   H196      1.0  0.27828  0.77915  0.09259  1.0000
  H   H197      1.0  0.31569  0.81700  0.06630  1.0000
  H   H198      1.0  0.29191  0.80053  0.14252  1.0000
  C   C130      1.0  0.30497  0.80530  0.06315  1.0000
  H   H199      1.0  0.32187  0.77937  0.10554  1.0000
  H   H200      1.0  0.29020  0.76714  0.11004  1.0000
  H   H201      1.0  0.14022  0.68528  0.16816  1.0000
  H   H202      1.0  0.16134  0.68451  0.11005  1.0000
  S   S46       1.0  0.19050  0.69843  0.99841  1.0000
  C   C131      1.0  0.14438  0.67482  0.16588  1.0000
  C   C132      1.0  0.15636  0.67442  0.13289  1.0000
  H   H203      1.0  0.24992  0.76904  0.99631  1.0000
  C   C133      1.0  0.23316  0.73919  0.88175  1.0000
  C   C134      1.0  0.27707  0.77568  0.98059  1.0000
  N   N13       1.0  0.21523  0.73595  0.87441  1.0000
  H   H204      1.0  0.07384  0.69787  0.66506  1.0000
  C   C135      1.0  0.21367  0.75095  0.85621  1.0000
  H   H205      1.0  0.22179  0.75485  0.82628  1.0000
  H   H206      1.0  0.20806  0.74110  0.93663  1.0000
  H   H207      1.0  0.23477  0.72820  0.89604  1.0000
  H   H208      1.0  0.20028  0.74890  0.85040  1.0000
  H   H209      1.0  0.20531  0.72011  0.92849  1.0000
  Fe  Fe23      1.0  0.18973  0.68438  0.94010  1.0000
  H   H210      1.0  0.21767  0.76136  0.87716  1.0000
  C   C136      1.0  0.20976  0.72241  0.84580  1.0000
  H   H211      1.0  0.24184  0.74267  0.85261  1.0000
  Fe  Fe24      1.0  0.33182  0.80994  0.96325  1.0000
  S   S47       1.0  0.17423  0.68754  0.88883  1.0000
  S   S48       1.0  0.21826  0.69309  0.92657  1.0000
  H   H212      1.0  0.19618  0.71944  0.84020  1.0000
  H   H213      1.0  0.19061  0.72842  0.90978  1.0000
  C   C137      1.0  0.26952  0.74193  0.96921  1.0000
  H   H214      1.0  0.23765  0.74929  0.90343  1.0000
  C   C138      1.0  0.20429  0.73127  0.91400  1.0000
  C   C139      1.0  0.09714  0.68333  0.66962  1.0000
  H   H215      1.0  0.21071  0.71087  0.85862  1.0000
  H   H216      1.0  0.26683  0.72898  0.96468  1.0000
  C   C140      1.0  0.25614  0.74752  0.98142  1.0000
  H   H217      1.0  0.21765  0.72546  0.81546  1.0000
  Fe  Fe25      1.0  0.21928  0.70623  0.98604  1.0000
  H   H218      1.0  0.10301  0.69692  0.66492  1.0000
  C   C141      1.0  0.29048  0.77008  0.96849  1.0000
  H   H219      1.0  0.15334  0.68659  0.82299  1.0000
  C   C142      1.0  0.08415  0.68093  0.60589  1.0000
  S   S49       1.0  0.32869  0.83356  0.98473  1.0000
  H   H220      1.0  0.29669  0.74855  0.95359  1.0000
  C   C143      1.0  0.26010  0.76449  0.98700  1.0000
  H   H221      1.0  0.27976  0.78864  0.98485  1.0000
  H   H222      1.0  0.08931  0.69444  0.59921  1.0000
  S   S50       1.0  0.23432  0.73406  0.98972  1.0000
  H   H223      1.0  0.09526  0.68027  0.70343  1.0000
  H   H224      1.0  0.06603  0.68129  0.70360  1.0000
  S   S51       1.0  0.31234  0.78348  0.96111  1.0000
  C   C144      1.0  0.28651  0.75312  0.96291  1.0000
  C   C145      1.0  0.06877  0.68425  0.66973  1.0000
  H   H225      1.0  0.10662  0.67802  0.65578  1.0000
  C   C146      1.0  0.15297  0.67418  0.82877  1.0000
  N   N14       1.0  0.08093  0.67685  0.65081  1.0000
  H   H226      1.0  0.05641  0.67956  0.65618  1.0000
  H   H227      1.0  0.09366  0.67591  0.59095  1.0000
  H   H228      1.0  0.07235  0.67572  0.59027  1.0000
  Fe  Fe26      1.0  0.47541  0.08095  0.35112  1.0000
  S   S52       1.0  0.48176  0.05829  0.36085  1.0000
  S   S53       1.0  0.45515  0.08451  0.39671  1.0000
  Fe  Fe27      1.0  0.50218  0.09445  0.27691  1.0000
  S   S54       1.0  0.51107  0.07299  0.28329  1.0000
  S   S55       1.0  0.51911  0.11361  0.22737  1.0000
  Fe  Fe28      1.0  0.48344  0.05705  0.29201  1.0000
  S   S56       1.0  0.47882  0.03336  0.25832  1.0000
  Fe  Fe29      1.0  0.50849  0.07588  0.35132  1.0000
  S   S57       1.0  0.52622  0.07197  0.39390  1.0000
  S   S58       1.0  0.47446  0.07830  0.28189  1.0000
  S   S59       1.0  0.50229  0.09878  0.34534  1.0000
  C   C147      1.0  0.58051  0.12586  0.26360  1.0000
  Fe  Fe30      1.0  0.61605  0.11966  0.35522  1.0000
  S   S60       1.0  0.61743  0.10992  0.29234  1.0000
  S   S61       1.0  0.59630  0.13074  0.37524  1.0000
  Fe  Fe31      1.0  0.64184  0.10684  0.38485  1.0000
  C   C148      1.0  0.64032  0.12162  0.49024  1.0000
  H   H229      1.0  0.55875  0.14898  0.30780  1.0000
  Fe  Fe32      1.0  0.64570  0.11926  0.29429  1.0000
  Fe  Fe33      1.0  0.61730  0.08706  0.32519  1.0000
  S   S62       1.0  0.60025  0.06391  0.29868  1.0000
  S   S63       1.0  0.64444  0.13131  0.35532  1.0000
  S   S64       1.0  0.61347  0.09606  0.38822  1.0000
  C   C149      1.0  0.59859  0.04429  0.31777  1.0000
  C   C150      1.0  0.61038  0.04210  0.34263  1.0000
  H   H230      1.0  0.62059  0.05267  0.35160  1.0000
  H   H231      1.0  0.57656  0.03211  0.28625  1.0000
  H   H232      1.0  0.53283  0.01283  0.34372  1.0000
  H   H233      1.0  0.52451  0.02590  0.24164  1.0000
  C   C151      1.0  0.52114  0.03807  0.33988  1.0000
  H   H234      1.0  0.63930  0.12753  0.46172  1.0000
  H   H235      1.0  0.53681  0.04492  0.26276  1.0000
  H   H236      1.0  0.48246  0.08504  0.44868  1.0000
  H   H237      1.0  0.62998  0.05925  0.16469  1.0000
  C   C152      1.0  0.51447  0.12461  0.18648  1.0000
  H   H238      1.0  0.55912  0.07455  0.35682  1.0000
  C   C153      1.0  0.66734  0.14590  0.20494  1.0000
  C   C154      1.0  0.58548  0.03050  0.30615  1.0000
  S   S65       1.0  0.64565  0.09568  0.32421  1.0000
  C   C155      1.0  0.46091  0.01533  0.27038  1.0000
  C   C156      1.0  0.44595  0.01573  0.29228  1.0000
  H   H239      1.0  0.62475  0.05319  0.24029  1.0000
  H   H240      1.0  0.53569  0.01078  0.28921  1.0000
  C   C157      1.0  0.52441  0.03455  0.26657  1.0000
  C   C158      1.0  0.53500  0.01960  0.31332  1.0000
  H   H241      1.0  0.44535  0.02727  0.30322  1.0000
  C   C159      1.0  0.59586  0.01235  0.34398  1.0000
  H   H242      1.0  0.50220  0.00563  0.34164  1.0000
  C   C160      1.0  0.66139  0.08564  0.21446  1.0000
  C   C161      1.0  0.66633  0.15978  0.22487  1.0000
  H   H243      1.0  0.67040  0.07880  0.21192  1.0000
  C   C162      1.0  0.63805  0.06155  0.24270  1.0000
  C   C163      1.0  0.47217  0.08704  0.46780  1.0000
  C   C164      1.0  0.54546  0.08845  0.38905  1.0000
  C   C165      1.0  0.54652  0.10369  0.40481  1.0000
  C   C166      1.0  0.56220  0.11675  0.40096  1.0000
  C   C167      1.0  0.57667  0.11456  0.38088  1.0000
  C   C168      1.0  0.57541  0.09938  0.36466  1.0000
  C   C169      1.0  0.55991  0.08629  0.36921  1.0000
  H   H244      1.0  0.53527  0.10534  0.42014  1.0000
  H   H245      1.0  0.56309  0.12851  0.41335  1.0000
  H   H246      1.0  0.58628  0.09767  0.34789  1.0000
  C   C170      1.0  0.55077  0.11722  0.28959  1.0000
  C   C171      1.0  0.56182  0.13726  0.23271  1.0000
  C   C172      1.0  0.49794  0.12395  0.18124  1.0000
  H   H247      1.0  0.51902  0.03227  0.37148  1.0000
  C   C173      1.0  0.44458  0.09008  0.47483  1.0000
  H   H248      1.0  0.61847  0.02446  0.37378  1.0000
  H   H249      1.0  0.65155  0.06000  0.16545  1.0000
  C   C174      1.0  0.58392  0.01460  0.31980  1.0000
  H   H250      1.0  0.51086  0.04319  0.33698  1.0000
  H   H251      1.0  0.48735  0.11636  0.20239  1.0000
  H   H252      1.0  0.53588  0.15164  0.10550  1.0000
  H   H253      1.0  0.48637  0.13561  0.00842  1.0000
  H   H254      1.0  0.59200  0.13610  0.24992  1.0000
  H   H255      1.0  0.49401  0.01726  0.30917  1.0000
  N   N15       1.0  0.64376  0.07479  0.20992  1.0000
  H   H256      1.0  0.57279  0.14778  0.21809  1.0000
  S   S66       1.0  0.65313  0.10186  0.44152  1.0000
  C   C175      1.0  0.64314  0.06746  0.16908  1.0000
  C   C176      1.0  0.64680  0.10880  0.48903  1.0000
  H   H257      1.0  0.51555  0.12777  0.04183  1.0000
  H   H258      1.0  0.53341  0.04861  0.33772  1.0000
  H   H259      1.0  0.58097  0.15531  0.28887  1.0000
  H   H260      1.0  0.63813  0.06661  0.27397  1.0000
  H   H261      1.0  0.43342  0.09037  0.46134  1.0000
  H   H262      1.0  0.66597  0.09595  0.19066  1.0000
  H   H263      1.0  0.51428  0.03965  0.26144  1.0000
  H   H264      1.0  0.49348  0.11862  0.05981  1.0000
  S   S67       1.0  0.50476  0.15493  0.08058  1.0000
  H   H265      1.0  0.58933  0.08663  0.46549  1.0000
  H   H266      1.0  0.61891  0.07676  0.21072  1.0000
  H   H267      1.0  0.57787  0.11561  0.24206  1.0000
  C   C177      1.0  0.63240  0.08453  0.21334  1.0000
  H   H268      1.0  0.55849  0.12737  0.21013  1.0000
  H   H269      1.0  0.54701  0.10712  0.26771  1.0000
  H   H270      1.0  0.63637  0.09475  0.18941  1.0000
  H   H271      1.0  0.64736  0.07714  0.14369  1.0000
  C   C178      1.0  0.49512  0.13334  0.14886  1.0000
  H   H272      1.0  0.58391  0.12145  0.29253  1.0000
  H   H273      1.0  0.48231  0.13285  0.14534  1.0000
  C   C179      1.0  0.60914  0.02613  0.35523  1.0000
  H   H274      1.0  0.54088  0.13517  0.16200  1.0000
  C   C180      1.0  0.52805  0.13460  0.15865  1.0000
  H   H275      1.0  0.57251  0.14046  0.33103  1.0000
  N   N16       1.0  0.52131  0.02620  0.30782  1.0000
  C   C181      1.0  0.50877  0.14347  0.12142  1.0000
  N   N17       1.0  0.56570  0.13124  0.27176  1.0000
  H   H276      1.0  0.55336  0.11200  0.31830  1.0000
  H   H277      1.0  0.55067  0.14140  0.23785  1.0000
  C   C182      1.0  0.52525  0.14395  0.12636  1.0000
  H   H278      1.0  0.54766  0.02958  0.31179  1.0000
  H   H279      1.0  0.53949  0.12095  0.29732  1.0000
  H   H280      1.0  0.64635  0.05397  0.24139  1.0000
  H   H281      1.0  0.63267  0.09025  0.24368  1.0000
  H   H282      1.0  0.66233  0.09143  0.24490  1.0000
  C   C183      1.0  0.59548  0.11801  0.48618  1.0000
  C   C184      1.0  0.56965  0.14461  0.30110  1.0000
  S   S68       1.0  0.54460  0.15962  0.00601  1.0000
  C   C185      1.0  0.50467  0.01263  0.31153  1.0000
  C   C186      1.0  0.45773  0.08738  0.44982  1.0000
  H   H283      1.0  0.47256  0.10531  0.01047  1.0000
  H   H284      1.0  0.58817  0.12202  0.46427  1.0000
  C   C187      1.0  0.67390  0.14758  0.16310  1.0000
  C   C188      1.0  0.50362  0.11755  0.03662  1.0000
  S   S69       1.0  0.66115  0.12636  0.23119  1.0000
  H   H285      1.0  0.66141  0.15869  0.25709  1.0000
  H   H286      1.0  0.50553  0.10580  0.04373  1.0000
  H   H287      1.0  0.62149  0.16632  0.01342  1.0000
  H   H288      1.0  0.60634  0.11604  0.46750  1.0000
  H   H289      1.0  0.57120  0.09241  0.45880  1.0000
  H   H290      1.0  0.60785  0.14726  0.99548  1.0000
  H   H291      1.0  0.48471  0.09264  0.99405  1.0000
  N   N18       1.0  0.49921  0.11846  0.99400  1.0000
  C   C189      1.0  0.57854  0.08934  0.48237  1.0000
  Fe  Fe34      1.0  0.52625  0.17091  0.03399  1.0000
  H   H292      1.0  0.59924  0.00759  0.44608  1.0000
  H   H293      1.0  0.61058  0.01133  0.49112  1.0000
  Fe  Fe35      1.0  0.48198  0.06539  0.68993  1.0000
  S   S70       1.0  0.46590  0.08131  0.69549  1.0000
  S   S71       1.0  0.47512  0.03842  0.70802  1.0000
  Fe  Fe36      1.0  0.51282  0.09296  0.65143  1.0000
  S   S72       1.0  0.49958  0.11133  0.65270  1.0000
  S   S73       1.0  0.53999  0.09995  0.62363  1.0000
  Fe  Fe37      1.0  0.48878  0.10099  0.71696  1.0000
  S   S74       1.0  0.48585  0.11914  0.76493  1.0000
  Fe  Fe38      1.0  0.47785  0.09081  0.63113  1.0000
  S   S75       1.0  0.46043  0.09597  0.58861  1.0000
  S   S76       1.0  0.50377  0.08416  0.71758  1.0000
  S   S77       1.0  0.49210  0.07334  0.62392  1.0000
  H   H294      1.0  0.44164  0.13958  0.65119  1.0000
  Fe  Fe39      1.0  0.60669  0.09530  0.74506  1.0000
  S   S78       1.0  0.62651  0.09524  0.78602  1.0000
  S   S79       1.0  0.57875  0.08197  0.76050  1.0000
  Fe  Fe40      1.0  0.63212  0.11480  0.67392  1.0000
  S   S80       1.0  0.65457  0.11633  0.70836  1.0000
  S   S81       1.0  0.63042  0.12662  0.61282  1.0000
  Fe  Fe41      1.0  0.63954  0.08962  0.72750  1.0000
  S   S82       1.0  0.64745  0.06739  0.72096  1.0000
  Fe  Fe42      1.0  0.63975  0.12185  0.76456  1.0000
  H   H295      1.0  0.58715  0.05161  0.75550  1.0000
  S   S83       1.0  0.61865  0.08796  0.68831  1.0000
  S   S84       1.0  0.61836  0.12210  0.72836  1.0000
  C   C190      1.0  0.62328  0.04810  0.78108  1.0000
  C   C191      1.0  0.63210  0.04878  0.74207  1.0000
  C   C192      1.0  0.62905  0.03431  0.72032  1.0000
  H   H296      1.0  0.62567  0.05915  0.79821  1.0000
  H   H297      1.0  0.63589  0.03476  0.69022  1.0000
  C   C193      1.0  0.63718  0.11976  0.56567  1.0000
  C   C194      1.0  0.64352  0.10685  0.56450  1.0000
  H   H298      1.0  0.56784  0.02519  0.78494  1.0000
  H   H299      1.0  0.59225  0.13417  0.79002  1.0000
  H   H300      1.0  0.54676  0.11936  0.77006  1.0000
  H   H301      1.0  0.56195  0.10903  0.51118  1.0000
  H   H302      1.0  0.63104  0.13733  0.52914  1.0000
  C   C195      1.0  0.56992  0.10585  0.53285  1.0000
  C   C196      1.0  0.51050  0.14745  0.85510  1.0000
  H   H303      1.0  0.65359  0.09166  0.52557  1.0000
  C   C197      1.0  0.55124  0.09255  0.65647  1.0000
  C   C198      1.0  0.56894  0.09981  0.65470  1.0000
  C   C199      1.0  0.57759  0.09585  0.68554  1.0000
  C   C200      1.0  0.56848  0.08498  0.71859  1.0000
  C   C201      1.0  0.55093  0.07706  0.71898  1.0000
  C   C202      1.0  0.54243  0.08049  0.68720  1.0000
  H   H304      1.0  0.57589  0.10901  0.63068  1.0000
  H   H305      1.0  0.59120  0.10178  0.68446  1.0000
  H   H306      1.0  0.54384  0.06843  0.74405  1.0000
  H   H307      1.0  0.52901  0.07391  0.68676  1.0000
  H   H308      1.0  0.45237  0.11943  0.71379  1.0000
  H   H309      1.0  0.58824  0.00845  0.49551  1.0000
  C   C203      1.0  0.45827  0.02272  0.68873  1.0000
  C   C204      1.0  0.58461  0.14075  0.71519  1.0000
  H   H310      1.0  0.44680  0.05674  0.52140  1.0000
  S   S85       1.0  0.53968  0.15089  0.89397  1.0000
  C   C205      1.0  0.47125  0.13709  0.61965  1.0000
  H   H311      1.0  0.43988  0.03476  0.69893  1.0000
  C   C206      1.0  0.64036  0.15283  0.96514  1.0000
  C   C207      1.0  0.56782  0.02002  0.75379  1.0000
  C   C208      1.0  0.45285  0.14572  0.66828  1.0000
  H   H312      1.0  0.45451  0.06193  0.59223  1.0000
  C   C209      1.0  0.46010  0.09242  0.53515  1.0000
  H   H313      1.0  0.55032  0.13026  0.72091  1.0000
  C   C210      1.0  0.61208  0.03296  0.79893  1.0000
  H   H314      1.0  0.47335  0.00736  0.67644  1.0000
  H   H315      1.0  0.44805  0.14590  0.70128  1.0000
  H   H316      1.0  0.57980  0.14745  0.69296  1.0000
  H   H317      1.0  0.66643  0.12803  0.84570  1.0000
  C   C211      1.0  0.57048  0.14950  0.77367  1.0000
  H   H318      1.0  0.53577  0.12448  0.83970  1.0000
  N   N19       1.0  0.58467  0.10294  0.51048  1.0000
  H   H319      1.0  0.45366  0.01882  0.59459  1.0000
  C   C212      1.0  0.55652  0.03915  0.72463  1.0000
  C   C213      1.0  0.62077  0.15281  0.91561  1.0000
  C   C214      1.0  0.52408  0.14200  0.85958  1.0000
  H   H320      1.0  0.57358  0.03476  0.65447  1.0000
  H   H321      1.0  0.65019  0.15285  0.93977  1.0000
  H   H322      1.0  0.56155  0.09477  0.55182  1.0000
  H   H323      1.0  0.52533  0.12758  0.96758  1.0000
  C   C215      1.0  0.57148  0.02548  0.68009  1.0000
  C   C216      1.0  0.51402  0.12199  0.80664  1.0000
  C   C217      1.0  0.44201  0.02369  0.68920  1.0000
  H   H324      1.0  0.45797  0.04637  0.62285  1.0000
  C   C218      1.0  0.66216  0.15095  0.83969  1.0000
  H   H325      1.0  0.64479  0.10108  0.59300  1.0000
  H   H326      1.0  0.46055  0.13059  0.60130  1.0000
  N   N20       1.0  0.57069  0.03274  0.72076  1.0000
  H   H327      1.0  0.60602  0.09635  0.52465  1.0000
  H   H328      1.0  0.51534  0.11205  0.78848  1.0000
  H   H329      1.0  0.57090  0.12174  0.81033  1.0000
  C   C219      1.0  0.52560  0.12909  0.83563  1.0000
  H   H330      1.0  0.61322  0.13961  0.92320  1.0000
  H   H331      1.0  0.57791  0.01448  0.75081  1.0000
  H   H332      1.0  0.45867  0.15869  0.65605  1.0000
  S   S86       1.0  0.64673  0.14448  0.80404  1.0000
  C   C220      1.0  0.57958  0.12625  0.78141  1.0000
  H   H333      1.0  0.55720  0.11311  0.72666  1.0000
  H   H334      1.0  0.46599  0.11325  0.67748  1.0000
  N   N21       1.0  0.62892  0.16106  0.95161  1.0000
  C   C221      1.0  0.44251  0.04331  0.52945  1.0000
  H   H335      1.0  0.47759  0.14977  0.60592  1.0000
  H   H336      1.0  0.47574  0.05891  0.53764  1.0000
  C   C222      1.0  0.61734  0.01926  0.73755  1.0000
  C   C223      1.0  0.64847  0.10150  0.52627  1.0000
  H   H337      1.0  0.48461  0.08964  0.52411  1.0000
  C   C224      1.0  0.58692  0.04629  0.72447  1.0000
  C   C225      1.0  0.50063  0.12762  0.80152  1.0000
  H   H338      1.0  0.43678  0.04427  0.61229  1.0000
  H   H339      1.0  0.48847  0.14467  0.82277  1.0000
  H   H340      1.0  0.48946  0.13934  0.68437  1.0000
  C   C226      1.0  0.55601  0.12404  0.74222  1.0000
  H   H341      1.0  0.43549  0.09485  0.53552  1.0000
  C   C227      1.0  0.49884  0.14027  0.82624  1.0000
  Fe  Fe43      1.0  0.54083  0.16928  0.94479  1.0000
  H   H342      1.0  0.58700  0.08729  0.55950  1.0000
  H   H343      1.0  0.44763  0.01485  0.54326  1.0000
  N   N22       1.0  0.57267  0.13514  0.75313  1.0000
  C   C228      1.0  0.66951  0.14041  0.85623  1.0000
  C   C229      1.0  0.44633  0.02186  0.57100  1.0000
  H   H344      1.0  0.44597  0.11308  0.66333  1.0000
  H   H345      1.0  0.55588  0.04509  0.75460  1.0000
  H   H346      1.0  0.59797  0.04206  0.71982  1.0000
  H   H347      1.0  0.58133  0.11533  0.76686  1.0000
  C   C230      1.0  0.63570  0.12718  0.52842  1.0000
  H   H348      1.0  0.55812  0.04855  0.69965  1.0000
  H   H349      1.0  0.56175  0.14574  0.80279  1.0000
  C   C231      1.0  0.60914  0.01849  0.77735  1.0000
  H   H350      1.0  0.54403  0.02915  0.72273  1.0000
  H   H351      1.0  0.55539  0.00988  0.75269  1.0000
  H   H352      1.0  0.43268  0.01716  0.58385  1.0000
  N   N23       1.0  0.45244  0.03975  0.56100  1.0000
  H   H353      1.0  0.58209  0.02056  0.67619  1.0000
  H   H354      1.0  0.60583  0.03247  0.82975  1.0000
  H   H355      1.0  0.47275  0.03930  0.51610  1.0000
  H   H356      1.0  0.58906  0.05650  0.70132  1.0000
  C   C232      1.0  0.47066  0.04542  0.54495  1.0000
  N   N24       1.0  0.46524  0.13710  0.66382  1.0000
  C   C233      1.0  0.45695  0.11999  0.68039  1.0000
  C   C234      1.0  0.47335  0.08956  0.51054  1.0000
  C   C235      1.0  0.47987  0.14555  0.68704  1.0000
  H   H357      1.0  0.47964  0.10513  0.95667  1.0000
  C   C236      1.0  0.46078  0.00817  0.67701  1.0000
  H   H358      1.0  0.59739  0.14906  0.72220  1.0000
  H   H359      1.0  0.42871  0.03923  0.54051  1.0000
  H   H360      1.0  0.57404  0.11610  0.55421  1.0000
  H   H361      1.0  0.63042  0.15328  0.88922  1.0000
  H   H362      1.0  0.58657  0.13021  0.69901  1.0000
  H   H363      1.0  0.58285  0.15824  0.78184  1.0000
  C   C237      1.0  0.61571  0.16019  0.98580  1.0000
  H   H364      1.0  0.51544  0.10562  0.96898  1.0000
  H   H365      1.0  0.57006  0.07785  0.49950  1.0000
  H   H366      1.0  0.61207  0.15873  0.90453  1.0000
  C   C238      1.0  0.44578  0.09264  0.51696  1.0000
  H   H367      1.0  0.48645  0.15855  0.67567  1.0000
  H   H368      1.0  0.47583  0.14550  0.72065  1.0000
  C   C239      1.0  0.51316  0.11736  0.96434  1.0000
  H   H369      1.0  0.59959  0.10859  0.56216  1.0000
  H   H370      1.0  0.48054  0.13057  0.61510  1.0000
  C   C240      1.0  0.59473  0.09857  0.54047  1.0000
  C   C241      1.0  0.45031  0.04844  0.59875  1.0000
  H   H371      1.0  0.60089  0.12838  0.50644  1.0000
  H   H372      1.0  0.56499  0.15634  0.75349  1.0000
  H   H373      1.0  0.63323  0.13977  0.97517  1.0000
  H   H374      1.0  0.50912  0.15735  0.87334  1.0000
  H   H375      1.0  0.47853  0.04284  0.56788  1.0000
  H   H376      1.0  0.61525  0.00814  0.72078  1.0000
  H   H377      1.0  0.49365  0.13555  0.95441  1.0000
  H   H378      1.0  0.41561  0.01059  0.68111  1.0000
  H   H379      1.0  0.55944  0.01513  0.67638  1.0000
  H   H380      1.0  0.51035  0.11821  0.93183  1.0000
  C   C242      1.0  0.42827  0.00996  0.67936  1.0000
  H   H381      1.0  0.60692  0.16643  0.97689  1.0000
  C   C243      1.0  0.66632  0.16699  0.85373  1.0000
  H   H382      1.0  0.44393  0.03711  0.50030  1.0000
  C   C244      1.0  0.49673  0.13424  0.98646  1.0000
  H   H383      1.0  0.50842  0.14476  0.99085  1.0000
  C   C245      1.0  0.48332  0.10476  0.98853  1.0000
  H   H384      1.0  0.64720  0.15905  0.99139  1.0000
  H   H385      1.0  0.59173  0.26403  0.04168  1.0000
  H   H386      1.0  0.54255  0.23871  0.04293  1.0000
  H   H387      1.0  0.58197  0.23440  0.06045  1.0000
  H   H388      1.0  0.48981  0.31063  0.15158  1.0000
  C   C246      1.0  0.61258  0.24731  0.01620  1.0000
  N   N25       1.0  0.59583  0.24562  0.00247  1.0000
  C   C247      1.0  0.60860  0.19678  0.02043  1.0000
  H   H389      1.0  0.51960  0.28834  0.12146  1.0000
  H   H390      1.0  0.67157  0.18592  0.21928  1.0000
  H   H391      1.0  0.64937  0.20736  0.04529  1.0000
  H   H392      1.0  0.54501  0.26579  0.07182  1.0000
  S   S87       1.0  0.54646  0.19514  0.04449  1.0000
  H   H393      1.0  0.51680  0.29588  0.17184  1.0000
  C   C248      1.0  0.54632  0.26472  0.03872  1.0000
  H   H394      1.0  0.49858  0.28595  0.14457  1.0000
  C   C249      1.0  0.51205  0.29444  0.14085  1.0000
  C   C250      1.0  0.63898  0.20673  0.02741  1.0000
  H   H395      1.0  0.49403  0.29958  0.08217  1.0000
  C   C251      1.0  0.54493  0.24931  0.02241  1.0000
  C   C252      1.0  0.53173  0.32125  0.11747  1.0000
  H   H396      1.0  0.50801  0.32060  0.17902  1.0000
  H   H397      1.0  0.61972  0.19142  0.07323  1.0000
  C   C253      1.0  0.50356  0.31834  0.14778  1.0000
  H   H398      1.0  0.56959  0.23049  0.01732  1.0000
  H   H399      1.0  0.50814  0.31988  0.06568  1.0000
  Fe  Fe44      1.0  0.56452  0.18423  0.01177  1.0000
  C   C254      1.0  0.62218  0.19775  0.04324  1.0000
  C   C255      1.0  0.54927  0.27871  0.01265  1.0000
  C   C256      1.0  0.50749  0.30802  0.08046  1.0000
  N   N26       1.0  0.51367  0.31048  0.12172  1.0000
  S   S88       1.0  0.55091  0.29785  0.03517  1.0000
  H   H400      1.0  0.53988  0.31559  0.09887  1.0000
  H   H401      1.0  0.61526  0.23568  0.01322  1.0000
  S   S89       1.0  0.58791  0.18467  0.04092  1.0000
  H   H402      1.0  0.51530  0.30268  0.05947  1.0000
  C   C257      1.0  0.67215  0.17522  0.20336  1.0000
  H   H403      1.0  0.53677  0.32397  0.14797  1.0000
  C   C258      1.0  0.58239  0.23209  0.02690  1.0000
  H   H404      1.0  0.50468  0.33052  0.13386  1.0000
  H   H405      1.0  0.58447  0.22016  0.02298  1.0000
  H   H406      1.0  0.53339  0.33317  0.10170  1.0000
  H   H407      1.0  0.61314  0.25045  0.04921  1.0000
  Fe  Fe45      1.0  0.55487  0.32334  0.00573  1.0000
  C   C259      1.0  0.59254  0.26116  0.00849  1.0000
  H   H408      1.0  0.62312  0.25708  0.99764  1.0000
  H   H409      1.0  0.58032  0.26052  0.99698  1.0000
  S   S90       1.0  0.56268  0.19321  0.94841  1.0000
  H   H410      1.0  0.55088  0.26063  0.92048  1.0000
  C   C260      1.0  0.55090  0.27706  0.96992  1.0000
  C   C261      1.0  0.63886  0.17848  0.93992  1.0000
  S   S91       1.0  0.54577  0.22882  0.95680  1.0000
  C   C262      1.0  0.54958  0.26168  0.95361  1.0000
  H   H411      1.0  0.64558  0.18499  0.96594  1.0000
  H   H412      1.0  0.60145  0.20392  0.96358  1.0000
  H   H413      1.0  0.63127  0.22048  0.93600  1.0000
  H   H414      1.0  0.55316  0.28763  0.94936  1.0000
  C   C263      1.0  0.59576  0.24192  0.95826  1.0000
  S   S92       1.0  0.53204  0.32929  0.99071  1.0000
  C   C264      1.0  0.64230  0.21497  0.98880  1.0000
  C   C265      1.0  0.62870  0.21425  0.96613  1.0000
  S   S93       1.0  0.66338  0.22543  0.96763  1.0000
  S   S94       1.0  0.52119  0.17949  0.97223  1.0000
  H   H415      1.0  0.63057  0.18517  0.93052  1.0000
  H   H416      1.0  0.58321  0.24047  0.94711  1.0000
  Fe  Fe46      1.0  0.54326  0.20295  0.98051  1.0000
  C   C266      1.0  0.54657  0.24769  0.97961  1.0000
  H   H417      1.0  0.64868  0.17973  0.91365  1.0000
  H   H418      1.0  0.59816  0.23028  0.95251  1.0000
  H   H419      1.0  0.60567  0.25188  0.93874  1.0000
  H   H420      1.0  0.66084  0.17528  0.84071  1.0000
  C   C267      1.0  0.61186  0.20496  0.98169  1.0000
  S   S95       1.0  0.57115  0.33752  0.94932  1.0000
  H   H421      1.0  0.60272  0.27173  0.99150  1.0000
  C   C268      1.0  0.61733  0.47854  0.00321  1.0000
  C   C269      1.0  0.52436  0.41076  0.46217  1.0000
  S   S96       1.0  0.64966  0.48988  0.07525  1.0000
  C   C270      1.0  0.60127  0.44661  0.20423  1.0000
  C   C271      1.0  0.62028  0.47181  0.16938  1.0000
  Fe  Fe47      1.0  0.54214  0.35162  0.02812  1.0000
  H   H422      1.0  0.59401  0.41793  0.07359  1.0000
  S   S97       1.0  0.52265  0.35858  0.06919  1.0000
  H   H423      1.0  0.59893  0.43757  0.23058  1.0000
  H   H424      1.0  0.58575  0.39188  0.03679  1.0000
  H   H425      1.0  0.47848  0.37565  0.42655  1.0000
  Fe  Fe48      1.0  0.54759  0.43800  0.29700  1.0000
  S   S98       1.0  0.53852  0.41363  0.33158  1.0000
  S   S99       1.0  0.57476  0.45490  0.29270  1.0000
  Fe  Fe49      1.0  0.51315  0.43382  0.26959  1.0000
  S   S100      1.0  0.50126  0.40863  0.30049  1.0000
  S   S101      1.0  0.49686  0.44444  0.23562  1.0000
  Fe  Fe50      1.0  0.51565  0.42006  0.35365  1.0000
  S   S102      1.0  0.50046  0.41589  0.41631  1.0000
  Fe  Fe51      1.0  0.52514  0.40439  0.27529  1.0000
  S   S103      1.0  0.52769  0.38050  0.25406  1.0000
  S   S104      1.0  0.52602  0.44548  0.32423  1.0000
  S   S105      1.0  0.53580  0.42855  0.23927  1.0000
  S   S106      1.0  0.58955  0.48590  0.46516  1.0000
  H   H426      1.0  0.39095  0.48400  0.28570  1.0000
  S   S107      1.0  0.42843  0.48954  0.30516  1.0000
  H   H427      1.0  0.44131  0.48470  0.47044  1.0000
  H   H428      1.0  0.34980  0.45131  0.32139  1.0000
  H   H429      1.0  0.43617  0.46471  0.44960  1.0000
  H   H430      1.0  0.63113  0.47819  0.24536  1.0000
  C   C272      1.0  0.37726  0.47618  0.28837  1.0000
  C   C273      1.0  0.49198  0.46126  0.25579  1.0000
  C   C274      1.0  0.47796  0.46458  0.24322  1.0000
  C   C275      1.0  0.47391  0.47804  0.25829  1.0000
  C   C276      1.0  0.48410  0.48845  0.28538  1.0000
  C   C277      1.0  0.49821  0.48523  0.29776  1.0000
  C   C278      1.0  0.50207  0.47161  0.28325  1.0000
  H   H431      1.0  0.47019  0.45669  0.22176  1.0000
  H   H432      1.0  0.46305  0.48046  0.24846  1.0000
  C   C279      1.0  0.61080  0.39668  0.00553  1.0000
  H   H433      1.0  0.51300  0.46929  0.29266  1.0000
  C   C280      1.0  0.57966  0.46212  0.34160  1.0000
  C   C281      1.0  0.59435  0.47568  0.34509  1.0000
  C   C282      1.0  0.59758  0.48255  0.38343  1.0000
  C   C283      1.0  0.58635  0.47572  0.41868  1.0000
  C   C284      1.0  0.57193  0.46175  0.41548  1.0000
  C   C285      1.0  0.56847  0.45508  0.37684  1.0000
  H   H434      1.0  0.60305  0.48127  0.31810  1.0000
  H   H435      1.0  0.54856  0.48240  0.24672  1.0000
  H   H436      1.0  0.56310  0.45640  0.44232  1.0000
  H   H437      1.0  0.55706  0.44460  0.37432  1.0000
  C   C286      1.0  0.52592  0.36658  0.11869  1.0000
  C   C287      1.0  0.53839  0.36455  0.14147  1.0000
  C   C288      1.0  0.53909  0.36919  0.18277  1.0000
  C   C289      1.0  0.52787  0.37657  0.20092  1.0000
  C   C290      1.0  0.51593  0.37928  0.17752  1.0000
  C   C291      1.0  0.51478  0.37404  0.13682  1.0000
  H   H438      1.0  0.54731  0.35916  0.12769  1.0000
  H   H439      1.0  0.54839  0.36710  0.20070  1.0000
  H   H440      1.0  0.50714  0.38485  0.19127  1.0000
  H   H441      1.0  0.50511  0.37567  0.11941  1.0000
  S   S108      1.0  0.40517  0.49159  0.20166  1.0000
  N   N27       1.0  0.49501  0.36634  0.38791  1.0000
  C   C292      1.0  0.60344  0.41524  0.05285  1.0000
  S   S109      1.0  0.56418  0.34511  0.04632  1.0000
  H   H442      1.0  0.47747  0.34145  0.39516  1.0000
  H   H443      1.0  0.59059  0.45145  0.20724  1.0000
  C   C293      1.0  0.37125  0.49021  0.34826  1.0000
  C   C294      1.0  0.46752  0.50026  0.41389  1.0000
  H   H444      1.0  0.49886  0.34406  0.40521  1.0000
  H   H445      1.0  0.51478  0.38960  0.39237  1.0000
  N   N28       1.0  0.61792  0.45999  0.20430  1.0000
  C   C295      1.0  0.63171  0.45306  0.19997  1.0000
  C   C296      1.0  0.61846  0.46852  0.24349  1.0000
  H   H446      1.0  0.63029  0.44397  0.22558  1.0000
  H   H447      1.0  0.36565  0.48906  0.38101  1.0000
  Fe  Fe52      1.0  0.66852  0.49414  0.12225  1.0000
  C   C297      1.0  0.59871  0.40045  0.03199  1.0000
  H   H448      1.0  0.55648  0.47751  0.31481  1.0000
  H   H449      1.0  0.60877  0.47458  0.24677  1.0000
  H   H450      1.0  0.63184  0.44676  0.17032  1.0000
  H   H451      1.0  0.60050  0.43981  0.17519  1.0000
  H   H452      1.0  0.36486  0.49678  0.32994  1.0000
  Fe  Fe53      1.0  0.65163  0.46474  0.07129  1.0000
  H   H453      1.0  0.54044  0.49766  0.26697  1.0000
  H   H454      1.0  0.61963  0.46571  0.13938  1.0000
  H   H455      1.0  0.54864  0.49277  0.33648  1.0000
  H   H456      1.0  0.39783  0.49720  0.11912  1.0000
  N   N29       1.0  0.36965  0.47399  0.33177  1.0000
  C   C298      1.0  0.49951  0.36512  0.34337  1.0000
  C   C299      1.0  0.55998  0.49086  0.32015  1.0000
  H   H457      1.0  0.50979  0.35983  0.33775  1.0000
  H   H458      1.0  0.64444  0.46289  0.20029  1.0000
  H   H459      1.0  0.37651  0.46426  0.27476  1.0000
  C   C300      1.0  0.48887  0.34979  0.40851  1.0000
  C   C301      1.0  0.44222  0.47810  0.44164  1.0000
  H   H460      1.0  0.37085  0.48219  0.26845  1.0000
  H   H461      1.0  0.59135  0.50090  0.28234  1.0000
  C   C302      1.0  0.63232  0.42278  0.02055  1.0000
  H   H462      1.0  0.53275  0.41289  0.43378  1.0000
  H   H463      1.0  0.48837  0.35741  0.32805  1.0000
  H   H464      1.0  0.50615  0.49326  0.31868  1.0000
  H   H465      1.0  0.61039  0.47765  0.17210  1.0000
  H   H466      1.0  0.45387  0.47683  0.36184  1.0000
  H   H467      1.0  0.57013  0.49400  0.34142  1.0000
  C   C303      1.0  0.55217  0.49570  0.25315  1.0000
  S   S110      1.0  0.66931  0.46848  0.12067  1.0000
  C   C304      1.0  0.48149  0.37361  0.39344  1.0000
  C   C305      1.0  0.46993  0.47787  0.45420  1.0000
  H   H468      1.0  0.60879  0.49321  0.38550  1.0000
  C   C306      1.0  0.35146  0.46361  0.33387  1.0000
  H   H469      1.0  0.57831  0.48519  0.25238  1.0000
  C   C307      1.0  0.51020  0.37689  0.40636  1.0000
  N   N30       1.0  0.46011  0.48239  0.42387  1.0000
  C   C308      1.0  0.58118  0.49814  0.26114  1.0000
  C   C309      1.0  0.50824  0.41201  0.46208  1.0000
  H   H470      1.0  0.38483  0.49824  0.34772  1.0000
  H   H471      1.0  0.39253  0.47329  0.35456  1.0000
  H   H472      1.0  0.46956  0.36569  0.38141  1.0000
  H   H473      1.0  0.34431  0.46938  0.31554  1.0000
  H   H474      1.0  0.63291  0.48182  0.16798  1.0000
  H   H475      1.0  0.37742  0.45353  0.34564  1.0000
  H   H476      1.0  0.43445  0.48145  0.41968  1.0000
  H   H477      1.0  0.52092  0.37217  0.40166  1.0000
  H   H478      1.0  0.48547  0.38581  0.37675  1.0000
  H   H479      1.0  0.50433  0.37744  0.32710  1.0000
  C   C310      1.0  0.62027  0.42640  0.04754  1.0000
  H   H480      1.0  0.45505  0.45984  0.39190  1.0000
  C   C311      1.0  0.46078  0.47338  0.38581  1.0000
  C   C312      1.0  0.39228  0.50409  0.13981  1.0000
  H   H481      1.0  0.37376  0.46470  0.38982  1.0000
  S   S111      1.0  0.62543  0.44484  0.07448  1.0000
  H   H482      1.0  0.47413  0.47616  0.37195  1.0000
  H   H483      1.0  0.61587  0.45983  0.27071  1.0000
  C   C313      1.0  0.37868  0.46597  0.35653  1.0000
  S   S112      1.0  0.66623  0.50184  0.18879  1.0000
  Fe  Fe54      1.0  0.42142  0.50242  0.25288  1.0000
  H   H484      1.0  0.50739  0.37783  0.44018  1.0000
  H   H485      1.0  0.55622  0.50276  0.22297  1.0000
  H   H486      1.0  0.62748  0.49085  0.00284  1.0000
  N   N31       1.0  0.56583  0.50078  0.28090  1.0000
  H   H487      1.0  0.48353  0.48105  0.44190  1.0000
  H   H488      1.0  0.64533  0.43125  0.01625  1.0000
  H   H489      1.0  0.40077  0.48727  0.49235  1.0000
  H   H490      1.0  0.48530  0.35034  0.44216  1.0000
  S   S113      1.0  0.40872  0.49947  0.40736  1.0000
  H   H491      1.0  0.60489  0.48047  0.00531  1.0000
  H   H492      1.0  0.46473  0.46444  0.46234  1.0000
  H   H493      1.0  0.34534  0.46165  0.36626  1.0000
  H   H494      1.0  0.61769  0.47168  0.03198  1.0000
  H   H495      1.0  0.46958  0.48441  0.48340  1.0000
  S   S114      1.0  0.67321  0.47236  0.02093  1.0000
  C   C314      1.0  0.41308  0.49701  0.48960  1.0000
  C   C315      1.0  0.62758  0.40797  0.99965  1.0000
  Fe  Fe55      1.0  0.67242  0.49780  0.02751  1.0000
  H   H496      1.0  0.48087  0.50388  0.39921  1.0000
  C   C316      1.0  0.39416  0.50366  0.18215  1.0000
  H   H497      1.0  0.46014  0.50414  0.39186  1.0000
  H   H498      1.0  0.60673  0.44589  0.99676  1.0000
  H   H499      1.0  0.47329  0.39205  0.77220  1.0000
  H   H500      1.0  0.62047  0.47247  0.90018  1.0000
  N   N32       1.0  0.37444  0.46951  0.76252  1.0000
  C   C317      1.0  0.46073  0.36748  0.85965  1.0000
  H   H501      1.0  0.41701  0.49444  0.55374  1.0000
  Fe  Fe56      1.0  0.51604  0.40824  0.73505  1.0000
  S   S115      1.0  0.53335  0.42225  0.68018  1.0000
  S   S116      1.0  0.52506  0.40470  0.79697  1.0000
  Fe  Fe57      1.0  0.48440  0.40885  0.69735  1.0000
  S   S117      1.0  0.49898  0.42295  0.63981  1.0000
  S   S118      1.0  0.45589  0.40046  0.71022  1.0000
  Fe  Fe58      1.0  0.51410  0.40624  0.64129  1.0000
  S   S119      1.0  0.52571  0.39908  0.58237  1.0000
  Fe  Fe59      1.0  0.51709  0.43794  0.68244  1.0000
  S   S120      1.0  0.52770  0.46534  0.67152  1.0000
  S   S121      1.0  0.49796  0.39051  0.69609  1.0000
  S   S122      1.0  0.50114  0.42538  0.74005  1.0000
  H   H502      1.0  0.51460  0.48328  0.72909  1.0000
  Fe  Fe60      1.0  0.42997  0.47766  0.68870  1.0000
  H   H503      1.0  0.45552  0.38983  0.80931  1.0000
  S   S123      1.0  0.41620  0.45041  0.69823  1.0000
  H   H504      1.0  0.50371  0.49424  0.81146  1.0000
  H   H505      1.0  0.59344  0.45403  0.97020  1.0000
  S   S124      1.0  0.41636  0.49238  0.65909  1.0000
  H   H506      1.0  0.59949  0.50464  0.55992  1.0000
  H   H507      1.0  0.36240  0.47014  0.70744  1.0000
  C   C318      1.0  0.36465  0.45190  0.77212  1.0000
  C   C319      1.0  0.51546  0.49631  0.73160  1.0000
  C   C320      1.0  0.37531  0.47316  0.71777  1.0000
  H   H508      1.0  0.52450  0.45409  0.58673  1.0000
  Fe  Fe61      1.0  0.57832  0.35973  0.98851  1.0000
  C   C321      1.0  0.42810  0.43726  0.70121  1.0000
  C   C322      1.0  0.41918  0.42044  0.70892  1.0000
  C   C323      1.0  0.42792  0.40943  0.71158  1.0000
  C   C324      1.0  0.44572  0.41505  0.70633  1.0000
  C   C325      1.0  0.45480  0.43191  0.69858  1.0000
  C   C326      1.0  0.44598  0.44304  0.69612  1.0000
  H   H509      1.0  0.40541  0.41587  0.71282  1.0000
  H   H510      1.0  0.42082  0.39646  0.71751  1.0000
  H   H511      1.0  0.46857  0.43636  0.69453  1.0000
  H   H512      1.0  0.45298  0.45602  0.69018  1.0000
  C   C327      1.0  0.54889  0.47340  0.68225  1.0000
  C   C328      1.0  0.55630  0.46357  0.70163  1.0000
  C   C329      1.0  0.57366  0.46968  0.70689  1.0000
  C   C330      1.0  0.58342  0.48594  0.69474  1.0000
  C   C331      1.0  0.57579  0.49607  0.67731  1.0000
  C   C332      1.0  0.55861  0.48972  0.67036  1.0000
  H   H513      1.0  0.54867  0.45136  0.71334  1.0000
  H   H514      1.0  0.57940  0.46195  0.72145  1.0000
  H   H515      1.0  0.55108  0.43799  0.51299  1.0000
  H   H516      1.0  0.53598  0.44123  0.60083  1.0000
  H   H517      1.0  0.56991  0.38403  0.82162  1.0000
  H   H518      1.0  0.49409  0.37887  0.78487  1.0000
  C   C333      1.0  0.50287  0.40552  0.53613  1.0000
  C   C334      1.0  0.51882  0.40393  0.53622  1.0000
  H   H519      1.0  0.39962  0.48643  0.76619  1.0000
  H   H520      1.0  0.38240  0.48646  0.70976  1.0000
  H   H521      1.0  0.53565  0.37299  0.90922  1.0000
  H   H522      1.0  0.49445  0.40339  0.56444  1.0000
  H   H523      1.0  0.63413  0.48789  0.57048  1.0000
  N   N33       1.0  0.52524  0.50409  0.76591  1.0000
  C   C335      1.0  0.53570  0.36085  0.85195  1.0000
  C   C336      1.0  0.53332  0.36141  0.80990  1.0000
  C   C337      1.0  0.52976  0.37462  0.79249  1.0000
  C   C338      1.0  0.52871  0.38742  0.81709  1.0000
  C   C339      1.0  0.53078  0.38668  0.85925  1.0000
  C   C340      1.0  0.53410  0.37339  0.87671  1.0000
  S   S125      1.0  0.43520  0.49301  0.74431  1.0000
  H   H524      1.0  0.52818  0.37507  0.75997  1.0000
  H   H525      1.0  0.52987  0.39649  0.87854  1.0000
  C   C341      1.0  0.48339  0.39381  0.84805  1.0000
  H   H526      1.0  0.47736  0.35933  0.79357  1.0000
  H   H527      1.0  0.51679  0.48175  0.80363  1.0000
  C   C342      1.0  0.54258  0.46486  0.51294  1.0000
  C   C343      1.0  0.39186  0.47337  0.77428  1.0000
  H   H528      1.0  0.63907  0.46122  0.93645  1.0000
  H   H529      1.0  0.37077  0.44399  0.75501  1.0000
  H   H530      1.0  0.55045  0.47848  0.58565  1.0000
  H   H531      1.0  0.58182  0.40470  0.83398  1.0000
  N   N34       1.0  0.47321  0.37885  0.82824  1.0000
  C   C344      1.0  0.46416  0.38348  0.79625  1.0000
  H   H532      1.0  0.47515  0.39979  0.86501  1.0000
  H   H533      1.0  0.45185  0.37323  0.87463  1.0000
  C   C345      1.0  0.55799  0.47095  0.57314  1.0000
  H   H534      1.0  0.45640  0.37263  0.78011  1.0000
  H   H535      1.0  0.60641  0.48086  0.92950  1.0000
  H   H536      1.0  0.63702  0.40512  0.97934  1.0000
  H   H537      1.0  0.38200  0.46604  0.69934  1.0000
  S   S126      1.0  0.60501  0.49358  0.70206  1.0000
  H   H538      1.0  0.48507  0.41036  0.49924  1.0000
  H   H539      1.0  0.46722  0.36387  0.88435  1.0000
  S   S127      1.0  0.55697  0.36791  0.97334  1.0000
  H   H540      1.0  0.61683  0.48575  0.60956  1.0000
  H   H541      1.0  0.57016  0.45550  0.51463  1.0000
  H   H542      1.0  0.49211  0.40311  0.82475  1.0000
  H   H543      1.0  0.36573  0.47770  0.81976  1.0000
  H   H544      1.0  0.56957  0.47932  0.55439  1.0000
  H   H545      1.0  0.45291  0.35604  0.84568  1.0000
  H   H546      1.0  0.61293  0.48325  0.55614  1.0000
  H   H547      1.0  0.52408  0.50028  0.83152  1.0000
  H   H548      1.0  0.53450  0.47213  0.52356  1.0000
  H   H549      1.0  0.56214  0.46590  0.60006  1.0000
  N   N35       1.0  0.61978  0.46959  0.96615  1.0000
  C   C346      1.0  0.62212  0.49048  0.57731  1.0000
  H   H550      1.0  0.56164  0.44155  0.55901  1.0000
  H   H551      1.0  0.39188  0.47131  0.80803  1.0000
  H   H552      1.0  0.35281  0.47693  0.77827  1.0000
  H   H553      1.0  0.36386  0.44877  0.80566  1.0000
  C   C347      1.0  0.36610  0.47968  0.78580  1.0000
  H   H554      1.0  0.52446  0.43696  0.55627  1.0000
  H   H555      1.0  0.54187  0.40520  0.49906  1.0000
  S   S128      1.0  0.45529  0.49088  0.65266  1.0000
  H   H556      1.0  0.64710  0.47996  0.96286  1.0000
  S   S129      1.0  0.54151  0.34481  0.87204  1.0000
  H   H557      1.0  0.53447  0.35170  0.79058  1.0000
  C   C348      1.0  0.55816  0.44776  0.53305  1.0000
  H   H558      1.0  0.49148  0.39105  0.87012  1.0000
  C   C349      1.0  0.48458  0.37066  0.80888  1.0000
  H   H559      1.0  0.37307  0.49304  0.77845  1.0000
  Fe  Fe62      1.0  0.54885  0.34507  0.93746  1.0000
  H   H560      1.0  0.49186  0.36718  0.83193  1.0000
  N   N36       1.0  0.59172  0.38641  0.85403  1.0000
  C   C350      1.0  0.57737  0.39163  0.84535  1.0000
  C   C351      1.0  0.60373  0.38895  0.81635  1.0000
  C   C352      1.0  0.58513  0.36881  0.86720  1.0000
  C   C353      1.0  0.60057  0.39617  0.88737  1.0000
  H   H561      1.0  0.56840  0.39033  0.87362  1.0000
  C   C354      1.0  0.60635  0.45314  0.96866  1.0000
  C   C355      1.0  0.52950  0.40642  0.49910  1.0000
  H   H562      1.0  0.61461  0.38497  0.82189  1.0000
  H   H563      1.0  0.59734  0.38177  0.79064  1.0000
  H   H564      1.0  0.60904  0.40212  0.80561  1.0000
  H   H565      1.0  0.57863  0.36094  0.84262  1.0000
  H   H566      1.0  0.57558  0.36643  0.89461  1.0000
  H   H567      1.0  0.59544  0.36452  0.87580  1.0000
  H   H568      1.0  0.61149  0.39256  0.89476  1.0000
  H   H569      1.0  0.59190  0.39423  0.91653  1.0000
  H   H570      1.0  0.60557  0.40954  0.87891  1.0000
  N   N37       1.0  0.54783  0.45766  0.54827  1.0000
  H   H571      1.0  0.39847  0.46572  0.75791  1.0000
  C   C356      1.0  0.51709  0.49466  0.80494  1.0000
  H   H572      1.0  0.35143  0.44849  0.76351  1.0000
  C   C357      1.0  0.63665  0.46778  0.96418  1.0000
  H   H573      1.0  0.62896  0.49127  0.92577  1.0000
  C   C358      1.0  0.61882  0.47890  0.92878  1.0000
  H   H574      1.0  0.60789  0.44593  0.94149  1.0000
  S   S130      1.0  0.60533  0.37812  0.97906  1.0000
  C   C359      1.0  0.53252  0.44702  0.57411  1.0000
  H   H575      1.0  0.55286  0.49744  0.65582  1.0000
  H   H576      1.0  0.40587  0.50375  0.88764  1.0000
  H   H577      1.0  0.50221  0.49637  0.73593  1.0000
  C   C360      1.0  0.42225  0.50103  0.52439  1.0000
  H   H578      1.0  0.54320  0.49159  0.75498  1.0000
  H   H579      1.0  0.52146  0.50282  0.70142  1.0000
  C   C361      1.0  0.49757  0.40944  0.49914  1.0000
  C   C362      1.0  0.54288  0.50424  0.75812  1.0000
  H   H580      1.0  0.53514  0.45514  0.49311  1.0000
  H   H581      1.0  0.63774  0.46068  0.99177  1.0000
  H   H582      1.0  0.55381  0.47327  0.49317  1.0000
  C   C363      1.0  0.47369  0.65455  0.35797  1.0000
  S   S131      1.0  0.60138  0.53326  0.48366  1.0000
  Fe  Fe63      1.0  0.35293  0.55526  0.99857  1.0000
  Fe  Fe64      1.0  0.61480  0.53382  0.36489  1.0000
  S   S132      1.0  0.58819  0.52054  0.39450  1.0000
  C   C364      1.0  0.57153  0.61506  0.44383  1.0000
  Fe  Fe65      1.0  0.62688  0.54608  0.44878  1.0000
  C   C365      1.0  0.41026  0.61538  0.02242  1.0000
  Fe  Fe66      1.0  0.45472  0.50831  0.29197  1.0000
  H   H583      1.0  0.45595  0.64079  0.04796  1.0000
  Fe  Fe67      1.0  0.59138  0.54280  0.43124  1.0000
  S   S133      1.0  0.57031  0.55268  0.44858  1.0000
  N   N38       1.0  0.47683  0.65260  0.31321  1.0000
  S   S134      1.0  0.61702  0.55711  0.39834  1.0000
  Fe  Fe68      1.0  0.44100  0.53591  0.27832  1.0000
  C   C366      1.0  0.64213  0.51787  0.28434  1.0000
  S   S135      1.0  0.44826  0.56143  0.25120  1.0000
  S   S136      1.0  0.36856  0.56654  0.05043  1.0000
  Fe  Fe69      1.0  0.53848  0.64630  0.31063  1.0000
  S   S137      1.0  0.52502  0.64896  0.37182  1.0000
  C   C367      1.0  0.42266  0.60803  0.02102  1.0000
  Fe  Fe70      1.0  0.54023  0.61296  0.33648  1.0000
  S   S138      1.0  0.52634  0.61239  0.39886  1.0000
  S   S139      1.0  0.55030  0.59331  0.31321  1.0000
  Fe  Fe71      1.0  0.50964  0.62238  0.36569  1.0000
  S   S140      1.0  0.48141  0.61226  0.38196  1.0000
  Fe  Fe72      1.0  0.54294  0.63883  0.40018  1.0000
  S   S141      1.0  0.55626  0.64712  0.45739  1.0000
  S   S142      1.0  0.52178  0.62032  0.30282  1.0000
  S   S143      1.0  0.55812  0.63881  0.33950  1.0000
  C   C368      1.0  0.45689  0.57566  0.28765  1.0000
  C   C369      1.0  0.45214  0.57170  0.32980  1.0000
  C   C370      1.0  0.45945  0.58315  0.35881  1.0000
  C   C371      1.0  0.47189  0.59827  0.34564  1.0000
  C   C372      1.0  0.47679  0.60207  0.30346  1.0000
  C   C373      1.0  0.46911  0.59087  0.27445  1.0000
  H   H584      1.0  0.44261  0.55996  0.34003  1.0000
  H   H585      1.0  0.45564  0.58021  0.39146  1.0000
  H   H586      1.0  0.48633  0.61372  0.29296  1.0000
  H   H587      1.0  0.47289  0.59386  0.24182  1.0000
  H   H588      1.0  0.48644  0.54022  0.27513  1.0000
  H   H589      1.0  0.51997  0.63002  0.47490  1.0000
  N   N39       1.0  0.50114  0.55907  0.31276  1.0000
  C   C374      1.0  0.56444  0.56327  0.40999  1.0000
  C   C375      1.0  0.57174  0.56468  0.36910  1.0000
  C   C376      1.0  0.56705  0.57364  0.33928  1.0000
  C   C377      1.0  0.55538  0.58151  0.35049  1.0000
  C   C378      1.0  0.54792  0.57987  0.39122  1.0000
  C   C379      1.0  0.55233  0.57065  0.42079  1.0000
  H   H590      1.0  0.58107  0.55896  0.36054  1.0000
  H   H591      1.0  0.57282  0.57484  0.30771  1.0000
  H   H592      1.0  0.53868  0.58559  0.40002  1.0000
  H   H593      1.0  0.54654  0.56943  0.45233  1.0000
  H   H594      1.0  0.66212  0.50766  0.27470  1.0000
  H   H595      1.0  0.47976  0.55469  0.35853  1.0000
  C   C380      1.0  0.46350  0.63772  0.30075  1.0000
  H   H596      1.0  0.49520  0.58111  0.32012  1.0000
  H   H597      1.0  0.55889  0.52089  0.30481  1.0000
  H   H598      1.0  0.59841  0.60558  0.44956  1.0000
  S   S144      1.0  0.44840  0.51907  0.23556  1.0000
  H   H599      1.0  0.44880  0.61167  0.02953  1.0000
  H   H600      1.0  0.60573  0.64626  0.39790  1.0000
  C   C381      1.0  0.49123  0.55114  0.35195  1.0000
  H   H601      1.0  0.63972  0.51430  0.16591  1.0000
  H   H602      1.0  0.60126  0.62045  0.36150  1.0000
  H   H603      1.0  0.46395  0.66878  0.29542  1.0000
  S   S145      1.0  0.35088  0.52936  0.01559  1.0000
  S   S146      1.0  0.64936  0.56046  0.48220  1.0000
  H   H604      1.0  0.56155  0.61678  0.42610  1.0000
  H   H605      1.0  0.52441  0.55771  0.33163  1.0000
  H   H606      1.0  0.51282  0.54081  0.30219  1.0000
  H   H607      1.0  0.61436  0.62434  0.42817  1.0000
  H   H608      1.0  0.56813  0.60166  0.45037  1.0000
  S   S147      1.0  0.54567  0.66308  0.25315  1.0000
  H   H609      1.0  0.58605  0.60147  0.38371  1.0000
  S   S148      1.0  0.61701  0.53191  0.29476  1.0000
  C   C382      1.0  0.44325  0.63383  0.04062  1.0000
  C   C383      1.0  0.63051  0.52319  0.26585  1.0000
  C   C384      1.0  0.47650  0.66716  0.28989  1.0000
  C   C385      1.0  0.41449  0.63204  0.03179  1.0000
  H   H610      1.0  0.46599  0.63544  0.26756  1.0000
  H   H611      1.0  0.51418  0.58150  0.34144  1.0000
  C   C386      1.0  0.38334  0.51348  0.12399  1.0000
  S   S149      1.0  0.39184  0.54442  0.02414  1.0000
  H   H612      1.0  0.46759  0.50745  0.44206  1.0000
  C   C387      1.0  0.57003  0.51839  0.28922  1.0000
  H   H613      1.0  0.38766  0.51196  0.24132  1.0000
  C   C388      1.0  0.64035  0.51512  0.19886  1.0000
  C   C389      1.0  0.43577  0.51799  0.44817  1.0000
  H   H614      1.0  0.47404  0.64379  0.37637  1.0000
  H   H615      1.0  0.51423  0.58356  0.28662  1.0000
  H   H616      1.0  0.38202  0.51375  0.09129  1.0000
  H   H617      1.0  0.58050  0.52263  0.30947  1.0000
  C   C390      1.0  0.50639  0.57709  0.31532  1.0000
  C   C391      1.0  0.43104  0.64141  0.04040  1.0000
  S   S150      1.0  0.41386  0.51983  0.29363  1.0000
  N   N40       1.0  0.58862  0.62234  0.42090  1.0000
  H   H618      1.0  0.49677  0.64980  0.27069  1.0000
  N   N41       1.0  0.42261  0.56468  0.14675  1.0000
  C   C392      1.0  0.43893  0.57862  0.14467  1.0000
  C   C393      1.0  0.41370  0.56571  0.11037  1.0000
  C   C394      1.0  0.41184  0.56531  0.18481  1.0000
  C   C395      1.0  0.42594  0.54905  0.14730  1.0000
  H   H619      1.0  0.44592  0.57821  0.17184  1.0000
  H   H620      1.0  0.43689  0.59063  0.14410  1.0000
  H   H621      1.0  0.44740  0.57849  0.11638  1.0000
  H   H622      1.0  0.40126  0.55542  0.11120  1.0000
  H   H623      1.0  0.41106  0.57741  0.10870  1.0000
  H   H624      1.0  0.42138  0.56518  0.08099  1.0000
  H   H625      1.0  0.39933  0.55507  0.18702  1.0000
  H   H626      1.0  0.40924  0.57703  0.18576  1.0000
  H   H627      1.0  0.41808  0.56429  0.21291  1.0000
  H   H628      1.0  0.41390  0.53828  0.14903  1.0000
  H   H629      1.0  0.43260  0.54784  0.17448  1.0000
  H   H630      1.0  0.43399  0.54806  0.11904  1.0000
  C   C396      1.0  0.49367  0.65093  0.30430  1.0000
  S   S151      1.0  0.43622  0.66271  0.04750  1.0000
  C   C397      1.0  0.37577  0.52209  0.15069  1.0000
  S   S152      1.0  0.44973  0.52691  0.33354  1.0000
  H   H631      1.0  0.39754  0.60838  0.01517  1.0000
  H   H632      1.0  0.64300  0.51897  0.31718  1.0000
  H   H633      1.0  0.44097  0.52482  0.41930  1.0000
  H   H634      1.0  0.37147  0.52796  0.21393  1.0000
  C   C398      1.0  0.62959  0.52167  0.22306  1.0000
  H   H635      1.0  0.49762  0.55972  0.24832  1.0000
  C   C399      1.0  0.37741  0.52144  0.19305  1.0000
  H   H636      1.0  0.40495  0.63778  0.03168  1.0000
  S   S153      1.0  0.62727  0.52424  0.41228  1.0000
  C   C400      1.0  0.38672  0.51245  0.20863  1.0000
  H   H637      1.0  0.46290  0.62664  0.31919  1.0000
  H   H638      1.0  0.57449  0.52625  0.26028  1.0000
  H   H639      1.0  0.60151  0.62445  0.47551  1.0000
  C   C401      1.0  0.60131  0.61905  0.44463  1.0000
  C   C402      1.0  0.65225  0.51015  0.21728  1.0000
  C   C403      1.0  0.51638  0.55431  0.30560  1.0000
  C   C404      1.0  0.43913  0.61728  0.03037  1.0000
  H   H640      1.0  0.48693  0.53751  0.35100  1.0000
  H   H641      1.0  0.52457  0.56066  0.27719  1.0000
  H   H642      1.0  0.49895  0.55486  0.37849  1.0000
  C   C405      1.0  0.49056  0.55376  0.27824  1.0000
  H   H643      1.0  0.57889  0.61665  0.36194  1.0000
  C   C406      1.0  0.58873  0.61492  0.38025  1.0000
  H   H644      1.0  0.47887  0.55703  0.28278  1.0000
  H   H645      1.0  0.62075  0.52588  0.20839  1.0000
  H   H646      1.0  0.58356  0.64317  0.39723  1.0000
  Fe  Fe73      1.0  0.36791  0.54099  0.06445  1.0000
  S   S154      1.0  0.36417  0.53379  0.13255  1.0000
  H   H647      1.0  0.48355  0.66567  0.36839  1.0000
  H   H648      1.0  0.59263  0.64625  0.44504  1.0000
  C   C407      1.0  0.59291  0.64028  0.41498  1.0000
  H   H649      1.0  0.49429  0.63995  0.32089  1.0000
  H   H650      1.0  0.47909  0.66619  0.25596  1.0000
  S   S155      1.0  0.41845  0.58767  0.00536  1.0000
  H   H651      1.0  0.45069  0.63883  0.30548  1.0000
  Fe  Fe74      1.0  0.60078  0.51241  0.44351  1.0000
  C   C408      1.0  0.44486  0.52206  0.48285  1.0000
  H   H652      1.0  0.57071  0.62090  0.47389  1.0000
  H   H653      1.0  0.50397  0.66174  0.31438  1.0000
  Fe  Fe75      1.0  0.39156  0.56928  0.00635  1.0000
  H   H654      1.0  0.46104  0.65573  0.36605  1.0000
  C   C409      1.0  0.65298  0.51149  0.26013  1.0000
  Fe  Fe76      1.0  0.42324  0.50869  0.34461  1.0000
  H   H655      1.0  0.45710  0.53191  0.48016  1.0000
  H   H656      1.0  0.58667  0.50623  0.23286  1.0000
  S   S156      1.0  0.48296  0.67126  0.07856  1.0000
  C   C410      1.0  0.52521  0.66677  0.19541  1.0000
  H   H657      1.0  0.52934  0.65808  0.17781  1.0000
  H   H658      1.0  0.34189  0.55699  0.14065  1.0000
  H   H659      1.0  0.64805  0.52016  0.99688  1.0000
  H   H660      1.0  0.50980  0.67037  0.14920  1.0000
  C   C411      1.0  0.41989  0.50539  0.45127  1.0000
  C   C412      1.0  0.53096  0.67104  0.23427  1.0000
  S   S157      1.0  0.47948  0.50545  0.30488  1.0000
  Fe  Fe77      1.0  0.62991  0.55331  0.72168  1.0000
  S   S158      1.0  0.60540  0.53779  0.69984  1.0000
  S   S159      1.0  0.64821  0.57198  0.67491  1.0000
  Fe  Fe78      1.0  0.62056  0.53681  0.80884  1.0000
  S   S160      1.0  0.59515  0.52004  0.79195  1.0000
  H   H661      1.0  0.53103  0.52843  0.73960  1.0000
  Fe  Fe79      1.0  0.44218  0.50692  0.62722  1.0000
  Fe  Fe80      1.0  0.59337  0.54237  0.76048  1.0000
  S   S161      1.0  0.56831  0.54635  0.75874  1.0000
  S   S162      1.0  0.63540  0.53243  0.75153  1.0000
  S   S163      1.0  0.61770  0.55957  0.78076  1.0000
  H   H662      1.0  0.49308  0.58898  0.58793  1.0000
  S   S164      1.0  0.44809  0.52466  0.67794  1.0000
  C   C413      1.0  0.40100  0.52078  0.79719  1.0000
  H   H663      1.0  0.48559  0.55202  0.65764  1.0000
  S   S165      1.0  0.48414  0.51906  0.73203  1.0000
  H   H664      1.0  0.38583  0.53614  0.79233  1.0000
  Fe  Fe81      1.0  0.51634  0.62440  0.68914  1.0000
  S   S166      1.0  0.51900  0.60215  0.71878  1.0000
  S   S167      1.0  0.50811  0.62229  0.62472  1.0000
  Fe  Fe82      1.0  0.51839  0.64212  0.77055  1.0000
  S   S168      1.0  0.52120  0.62128  0.80662  1.0000
  Fe  Fe83      1.0  0.53919  0.62008  0.75222  1.0000
  S   S169      1.0  0.56431  0.61794  0.76549  1.0000
  Fe  Fe84      1.0  0.50095  0.60519  0.77055  1.0000
  S   S170      1.0  0.47819  0.58449  0.79961  1.0000
  S   S171      1.0  0.53807  0.64238  0.71824  1.0000
  S   S172      1.0  0.49659  0.62602  0.73866  1.0000
  H   H665      1.0  0.61482  0.57246  0.67823  1.0000
  N   N42       1.0  0.60921  0.59362  0.66006  1.0000
  C   C414      1.0  0.52201  0.62928  0.57903  1.0000
  C   C415      1.0  0.53954  0.63738  0.57950  1.0000
  H   H666      1.0  0.56619  0.67072  0.79740  1.0000
  H   H667      1.0  0.46775  0.55313  0.60294  1.0000
  H   H668      1.0  0.54495  0.63961  0.60862  1.0000
  H   H669      1.0  0.61065  0.52428  0.57951  1.0000
  C   C416      1.0  0.46518  0.56355  0.61845  1.0000
  H   H670      1.0  0.43834  0.63886  0.95532  1.0000
  H   H671      1.0  0.63270  0.60892  0.68163  1.0000
  C   C417      1.0  0.48279  0.53636  0.75714  1.0000
  C   C418      1.0  0.49753  0.54980  0.76169  1.0000
  C   C419      1.0  0.49620  0.56447  0.77655  1.0000
  C   C420      1.0  0.48015  0.56566  0.78682  1.0000
  C   C421      1.0  0.46548  0.55192  0.78444  1.0000
  C   C422      1.0  0.46680  0.53730  0.76958  1.0000
  H   H672      1.0  0.50992  0.54914  0.75218  1.0000
  H   H673      1.0  0.50759  0.57492  0.77953  1.0000
  H   H674      1.0  0.45304  0.55274  0.79206  1.0000
  H   H675      1.0  0.45537  0.52690  0.76670  1.0000
  C   C423      1.0  0.56726  0.56621  0.76305  1.0000
  C   C424      1.0  0.58057  0.57930  0.77647  1.0000
  C   C425      1.0  0.57949  0.59511  0.77780  1.0000
  C   C426      1.0  0.56507  0.59788  0.76591  1.0000
  C   C427      1.0  0.55167  0.58469  0.75336  1.0000
  C   C428      1.0  0.55277  0.56895  0.75186  1.0000
  H   H676      1.0  0.59164  0.57722  0.78608  1.0000
  H   H677      1.0  0.58983  0.60521  0.78807  1.0000
  H   H678      1.0  0.54046  0.58656  0.74445  1.0000
  H   H679      1.0  0.54240  0.55892  0.74153  1.0000
  H   H680      1.0  0.62947  0.61451  0.63053  1.0000
  C   C429      1.0  0.64768  0.56814  0.62169  1.0000
  C   C430      1.0  0.63250  0.55977  0.60446  1.0000
  H   H681      1.0  0.53324  0.52759  0.79368  1.0000
  H   H682      1.0  0.62062  0.55516  0.62389  1.0000
  H   H683      1.0  0.51494  0.64340  0.86728  1.0000
  H   H684      1.0  0.58926  0.57875  0.62567  1.0000
  C   C431      1.0  0.62742  0.60395  0.65247  1.0000
  H   H685      1.0  0.61023  0.57925  0.60712  1.0000
  H   H686      1.0  0.59374  0.57169  0.69590  1.0000
  H   H687      1.0  0.62331  0.50736  0.50677  1.0000
  H   H688      1.0  0.46258  0.57123  0.59425  1.0000
  C   C432      1.0  0.48289  0.56258  0.67191  1.0000
  C   C433      1.0  0.65118  0.52339  0.87695  1.0000
  C   C434      1.0  0.63861  0.52764  0.90026  1.0000
  H   H689      1.0  0.65226  0.52450  0.84360  1.0000
  C   C435      1.0  0.51509  0.62655  0.54111  1.0000
  H   H690      1.0  0.50153  0.62039  0.54052  1.0000
  Fe  Fe85      1.0  0.42351  0.50879  0.71252  1.0000
  H   H691      1.0  0.62789  0.52966  0.96188  1.0000
  H   H692      1.0  0.46461  0.65763  0.98510  1.0000
  N   N43       1.0  0.43454  0.56287  0.89648  1.0000
  C   C436      1.0  0.45068  0.55969  0.89674  1.0000
  C   C437      1.0  0.42825  0.55945  0.85546  1.0000
  C   C438      1.0  0.43745  0.58024  0.90535  1.0000
  C   C439      1.0  0.42178  0.55208  0.92839  1.0000
  H   H693      1.0  0.45556  0.56174  0.92753  1.0000
  H   H694      1.0  0.46074  0.56794  0.87383  1.0000
  H   H695      1.0  0.44906  0.54683  0.88874  1.0000
  H   H696      1.0  0.42615  0.54650  0.84746  1.0000
  H   H697      1.0  0.41591  0.56140  0.85435  1.0000
  H   H698      1.0  0.43750  0.56759  0.83075  1.0000
  H   H699      1.0  0.44241  0.58332  0.93587  1.0000
  H   H700      1.0  0.42540  0.58293  0.90639  1.0000
  H   H701      1.0  0.44685  0.58871  0.88147  1.0000
  H   H702      1.0  0.42563  0.55497  0.95998  1.0000
  H   H703      1.0  0.41989  0.53889  0.92391  1.0000
  H   H704      1.0  0.40915  0.55345  0.92759  1.0000
  C   C440      1.0  0.60292  0.58679  0.62087  1.0000
  S   S173      1.0  0.51703  0.66557  0.79783  1.0000
  C   C441      1.0  0.47140  0.65808  0.95392  1.0000
  C   C442      1.0  0.64805  0.56356  0.53580  1.0000
  Fe  Fe86      1.0  0.60981  0.51738  0.73311  1.0000
  H   H705      1.0  0.54537  0.65752  0.81773  1.0000
  C   C443      1.0  0.66266  0.51808  0.89689  1.0000
  C   C444      1.0  0.66286  0.57443  0.59564  1.0000
  H   H706      1.0  0.49397  0.56946  0.68856  1.0000
  H   H707      1.0  0.47642  0.64951  0.87669  1.0000
  N   N44       1.0  0.46005  0.65678  0.92121  1.0000
  C   C445      1.0  0.63266  0.55769  0.56149  1.0000
  H   H708      1.0  0.62094  0.55162  0.54821  1.0000
  C   C446      1.0  0.63746  0.52623  0.94361  1.0000
  H   H709      1.0  0.58551  0.59603  0.68409  1.0000
  H   H710      1.0  0.63523  0.59675  0.63924  1.0000
  H   H711      1.0  0.60380  0.60905  0.70657  1.0000
  H   H712      1.0  0.46371  0.58164  0.68426  1.0000
  H   H713      1.0  0.61177  0.58466  0.71993  1.0000
  C   C447      1.0  0.55890  0.65841  0.81243  1.0000
  C   C448      1.0  0.63732  0.51734  0.60108  1.0000
  H   H714      1.0  0.47315  0.59521  0.63940  1.0000
  H   H715      1.0  0.45328  0.55820  0.63973  1.0000
  H   H716      1.0  0.58421  0.64696  0.82134  1.0000
  C   C449      1.0  0.51533  0.65510  0.87892  1.0000
  H   H717      1.0  0.51529  0.64779  0.94246  1.0000
  S   S174      1.0  0.62413  0.53487  0.87710  1.0000
  H   H718      1.0  0.47686  0.64810  0.95312  1.0000
  C   C450      1.0  0.39086  0.51925  0.88280  1.0000
  S   S175      1.0  0.45065  0.51884  0.56283  1.0000
  C   C451      1.0  0.55003  0.64287  0.54205  1.0000
  C   C452      1.0  0.55506  0.63960  0.87065  1.0000
  C   C453      1.0  0.40164  0.51099  0.86691  1.0000
  C   C454      1.0  0.39047  0.52928  0.81317  1.0000
  S   S176      1.0  0.40541  0.52051  0.74305  1.0000
  S   S177      1.0  0.38387  0.51685  0.93612  1.0000
  H   H719      1.0  0.60413  0.59671  0.59764  1.0000
  H   H720      1.0  0.54156  0.63860  0.87819  1.0000
  C   C455      1.0  0.43822  0.51357  0.52099  1.0000
  C   C456      1.0  0.38558  0.52870  0.85589  1.0000
  N   N45       1.0  0.47958  0.57330  0.64085  1.0000
  H   H721      1.0  0.55516  0.62955  0.84963  1.0000
  C   C457      1.0  0.59926  0.60360  0.67716  1.0000
  H   H722      1.0  0.37722  0.53505  0.86778  1.0000
  H   H723      1.0  0.63441  0.52738  0.52436  1.0000
  H   H724      1.0  0.48223  0.66993  0.95066  1.0000
  C   C458      1.0  0.60725  0.58001  0.68986  1.0000
  H   H725      1.0  0.50611  0.58781  0.62722  1.0000
  C   C459      1.0  0.51539  0.65757  0.92147  1.0000
  H   H726      1.0  0.45156  0.63036  0.92366  1.0000
  H   H727      1.0  0.58317  0.50871  0.66838  1.0000
  C   C460      1.0  0.64881  0.52076  0.96353  1.0000
  H   H728      1.0  0.58877  0.65493  0.87134  1.0000
  H   H729      1.0  0.64023  0.53082  0.59754  1.0000
  H   H730      1.0  0.55061  0.50994  0.78353  1.0000
  Fe  Fe87      1.0  0.37531  0.53512  0.97318  1.0000
  C   C461      1.0  0.52554  0.63197  0.50383  1.0000
  C   C462      1.0  0.49496  0.58047  0.61127  1.0000
  C   C463      1.0  0.66151  0.51672  0.94022  1.0000
  C   C464      1.0  0.40692  0.51196  0.82439  1.0000
  S   S178      1.0  0.37641  0.56027  0.95247  1.0000
  H   H731      1.0  0.64964  0.51524  0.59558  1.0000
  H   H732      1.0  0.48584  0.59406  0.67952  1.0000
  H   H733      1.0  0.60019  0.61388  0.65536  1.0000
  H   H734      1.0  0.43770  0.63896  0.90058  1.0000
  H   H735      1.0  0.55959  0.64902  0.78997  1.0000
  H   H736      1.0  0.47177  0.55748  0.69557  1.0000
  H   H737      1.0  0.49840  0.57078  0.59449  1.0000
  C   C465      1.0  0.60885  0.51099  0.58170  1.0000
  C   C466      1.0  0.54303  0.64020  0.50413  1.0000
  C   C467      1.0  0.66308  0.57198  0.55313  1.0000
  C   C468      1.0  0.44633  0.64051  0.92527  1.0000
  C   C469      1.0  0.47533  0.58660  0.66189  1.0000
  Fe  Fe88      1.0  0.45928  0.50762  0.70568  1.0000
  H   H738      1.0  0.64457  0.51237  0.52120  1.0000
  H   H739      1.0  0.56354  0.64933  0.54249  1.0000
  H   H740      1.0  0.46184  0.65747  0.85476  1.0000
  H   H741      1.0  0.51243  0.52147  0.77624  1.0000
  C   C470      1.0  0.47001  0.65877  0.88036  1.0000
  H   H742      1.0  0.54949  0.51153  0.72927  1.0000
  N   N46       1.0  0.62514  0.50824  0.57231  1.0000
  H   H743      1.0  0.67254  0.51513  0.87857  1.0000
  N   N47       1.0  0.56549  0.65591  0.85144  1.0000
  C   C471      1.0  0.52547  0.52113  0.76904  1.0000
  H   H744      1.0  0.55982  0.63718  0.89987  1.0000
  C   C472      1.0  0.51594  0.66785  0.85160  1.0000
  C   C473      1.0  0.63215  0.51406  0.52932  1.0000
  H   H745      1.0  0.44502  0.66872  0.95623  1.0000
  H   H746      1.0  0.41534  0.50566  0.81274  1.0000
  H   H747      1.0  0.55141  0.66874  0.88655  1.0000
  C   C474      1.0  0.58332  0.65671  0.84261  1.0000
  H   H748      1.0  0.56928  0.66724  0.91002  1.0000
  H   H749      1.0  0.59154  0.66877  0.82764  1.0000
  C   C475      1.0  0.56469  0.66886  0.87990  1.0000
  H   H750      1.0  0.44383  0.66925  0.90145  1.0000
  H   H751      1.0  0.63219  0.51355  0.63389  1.0000
  C   C476      1.0  0.45252  0.66982  0.92550  1.0000
  H   H752      1.0  0.48017  0.67111  0.87596  1.0000
  H   H753      1.0  0.60311  0.50638  0.61359  1.0000
  H   H754      1.0  0.44746  0.80941  0.04283  1.0000
  S   S179      1.0  0.46834  0.70123  0.09861  1.0000
  H   H755      1.0  0.53098  0.68660  0.28527  1.0000
  H   H756      1.0  0.49233  0.79939  0.02208  1.0000
  S   S180      1.0  0.50711  0.81209  0.09825  1.0000
  Fe  Fe89      1.0  0.49007  0.69374  0.11595  1.0000
  C   C477      1.0  0.43962  0.83587  0.99410  1.0000
  C   C478      1.0  0.51518  0.68978  0.23973  1.0000
  H   H757      1.0  0.51159  0.69894  0.25666  1.0000
  S   S181      1.0  0.49443  0.69358  0.18377  1.0000
  C   C479      1.0  0.49922  0.76355  0.08144  1.0000
  Fe  Fe90      1.0  0.46293  0.67986  0.05687  1.0000
  S   S182      1.0  0.50913  0.71001  0.06620  1.0000
  H   H758      1.0  0.52272  0.82394  0.01681  1.0000
  H   H759      1.0  0.50904  0.78142  0.12687  1.0000
  H   H760      1.0  0.42212  0.77186  0.10803  1.0000
  H   H761      1.0  0.50117  0.75363  0.09818  1.0000
  C   C480      1.0  0.45054  0.77969  0.05499  1.0000
  H   H762      1.0  0.43964  0.77131  0.13481  1.0000
  C   C481      1.0  0.50917  0.68532  0.20126  1.0000
  C   C482      1.0  0.49006  0.77377  0.02222  1.0000
  C   C483      1.0  0.50368  0.77935  0.09763  1.0000
  C   C484      1.0  0.43848  0.80096  0.06740  1.0000
  H   H763      1.0  0.54545  0.83285  0.00908  1.0000
  H   H764      1.0  0.45686  0.77168  0.06815  1.0000
  C   C485      1.0  0.49436  0.78952  0.03862  1.0000
  H   H765      1.0  0.43077  0.78719  0.14445  1.0000
  H   H766      1.0  0.47150  0.80828  0.07946  1.0000
  C   C486      1.0  0.49243  0.76065  0.04352  1.0000
  Fe  Fe91      1.0  0.50023  0.68791  0.02700  1.0000
  H   H767      1.0  0.39243  0.83227  0.02075  1.0000
  C   C487      1.0  0.50129  0.79242  0.07638  1.0000
  H   H768      1.0  0.43897  0.77152  0.04190  1.0000
  H   H769      1.0  0.45937  0.78722  0.02886  1.0000
  N   N48       1.0  0.44627  0.79017  0.08653  1.0000
  Fe  Fe92      1.0  0.48696  0.71631  0.04665  1.0000
  C   C488      1.0  0.43415  0.77966  0.11995  1.0000
  S   S183      1.0  0.35189  0.81139  0.00576  1.0000
  C   C489      1.0  0.41702  0.83786  0.04316  1.0000
  H   H770      1.0  0.42681  0.79376  0.05310  1.0000
  S   S184      1.0  0.48675  0.74108  0.02116  1.0000
  C   C490      1.0  0.46194  0.80038  0.10386  1.0000
  H   H771      1.0  0.43479  0.80882  0.09050  1.0000
  Fe  Fe93      1.0  0.50316  0.83546  0.07646  1.0000
  H   H772      1.0  0.46815  0.79271  0.11893  1.0000
  H   H773      1.0  0.45930  0.80867  0.12729  1.0000
  S   S185      1.0  0.47972  0.69537  0.00319  1.0000
  C   C491      1.0  0.52607  0.68274  0.25610  1.0000
  C   C492      1.0  0.51427  0.67382  0.17901  1.0000
  H   H774      1.0  0.48633  0.67862  0.29871  1.0000
  S   S186      1.0  0.49047  0.83698  0.01987  1.0000
  Fe  Fe94      1.0  0.34969  0.83544  0.02478  1.0000
  C   C493      1.0  0.40555  0.83326  0.01312  1.0000
  C   C494      1.0  0.53358  0.83157  0.99481  1.0000
  C   C495      1.0  0.51591  0.68284  0.86727  1.0000
  H   H775      1.0  0.52454  0.79947  0.98050  1.0000
  H   H776      1.0  0.43233  0.82840  0.93351  1.0000
  H   H777      1.0  0.51563  0.69682  0.92182  1.0000
  H   H778      1.0  0.57254  0.68133  0.86656  1.0000
  S   S187      1.0  0.39665  0.82377  0.93584  1.0000
  H   H779      1.0  0.53483  0.80183  0.92876  1.0000
  Fe  Fe95      1.0  0.37111  0.82607  0.95518  1.0000
  H   H780      1.0  0.51668  0.81699  0.90621  1.0000
  C   C496      1.0  0.41101  0.82978  0.97358  1.0000
  C   C497      1.0  0.51545  0.67259  0.93713  1.0000
  H   H781      1.0  0.50608  0.81422  0.95767  1.0000
  C   C498      1.0  0.51545  0.68515  0.90998  1.0000
  H   H782      1.0  0.51636  0.69275  0.84627  1.0000
  S   S188      1.0  0.35169  0.82297  0.91017  1.0000
  H   H783      1.0  0.46255  0.68227  0.92288  1.0000
  N   N49       1.0  0.53340  0.82419  0.95410  1.0000
  H   H784      1.0  0.45275  0.83690  0.98659  1.0000
  C   C499      1.0  0.54775  0.83507  0.92573  1.0000
  C   C500      1.0  0.42806  0.83108  0.96410  1.0000
  C   C501      1.0  0.53508  0.80788  0.95879  1.0000
  C   C502      1.0  0.51719  0.82236  0.93716  1.0000
  H   H785      1.0  0.54809  0.82992  0.89464  1.0000
  H   H786      1.0  0.51547  0.83445  0.93368  1.0000
  H   H787      1.0  0.38736  0.83491  0.86143  1.0000
  H   H788      1.0  0.54721  0.80883  0.97140  1.0000
  H   H789      1.0  0.56019  0.83692  0.93775  1.0000
  S   S189      1.0  0.51630  0.67544  0.99040  1.0000
  H   H790      1.0  0.48480  0.77165  0.99287  1.0000
  H   H791      1.0  0.41633  0.96493  0.19637  1.0000
  S   S190      1.0  0.51137  0.89346  0.14025  1.0000
  Fe  Fe96      1.0  0.40526  0.90997  0.32205  1.0000
  S   S191      1.0  0.39076  0.92228  0.28730  1.0000
  S   S192      1.0  0.39397  0.89805  0.38532  1.0000
  Fe  Fe97      1.0  0.43550  0.92126  0.25806  1.0000
  S   S193      1.0  0.42411  0.93504  0.21901  1.0000
  S   S194      1.0  0.46126  0.92020  0.23846  1.0000
  Fe  Fe98      1.0  0.41539  0.94364  0.27862  1.0000
  Fe  Fe99      1.0  0.40039  0.91257  0.22986  1.0000
  S   S195      1.0  0.38752  0.90747  0.17050  1.0000
  S   S196      1.0  0.42916  0.93199  0.31709  1.0000
  S   S197      1.0  0.41263  0.89812  0.26535  1.0000
  Fe  Fe100     1.0  0.54426  0.93877  0.34233  1.0000
  S   S198      1.0  0.55319  0.96315  0.30682  1.0000
  S   S199      1.0  0.53984  0.91376  0.31439  1.0000
  Fe  Fe101     1.0  0.53992  0.95409  0.42606  1.0000
  S   S200      1.0  0.54768  0.97935  0.39632  1.0000
  C   C503      1.0  0.39790  0.94412  0.39453  1.0000
  Fe  Fe102     1.0  0.53193  0.96737  0.34642  1.0000
  S   S201      1.0  0.51368  0.97793  0.32273  1.0000
  Fe  Fe103     1.0  0.56835  0.97306  0.36015  1.0000
  S   S202      1.0  0.59460  0.99241  0.35954  1.0000
  S   S203      1.0  0.52201  0.94259  0.37896  1.0000
  S   S204      1.0  0.56159  0.94823  0.39275  1.0000
  H   H792      1.0  0.48344  0.91729  0.32817  1.0000
  H   H793      1.0  0.57374  0.00405  0.31069  1.0000
  H   H794      1.0  0.40026  0.93235  0.39699  1.0000
  C   C504      1.0  0.44720  0.98580  0.26306  1.0000
  H   H795      1.0  0.45946  0.87268  0.34212  1.0000
  H   H796      1.0  0.40335  0.97709  0.20818  1.0000
  C   C505      1.0  0.37497  0.88740  0.10759  1.0000
  H   H797      1.0  0.39864  0.94726  0.36108  1.0000
  H   H798      1.0  0.50684  0.88791  0.32779  1.0000
  C   C506      1.0  0.47661  0.93749  0.25599  1.0000
  C   C507      1.0  0.47215  0.95079  0.26989  1.0000
  C   C508      1.0  0.48384  0.96364  0.28889  1.0000
  C   C509      1.0  0.49988  0.96303  0.29448  1.0000
  C   C510      1.0  0.50458  0.95008  0.27899  1.0000
  C   C511      1.0  0.49305  0.93747  0.25898  1.0000
  H   H799      1.0  0.45966  0.95112  0.26636  1.0000
  H   H800      1.0  0.48022  0.97372  0.30050  1.0000
  H   H801      1.0  0.51705  0.94972  0.28280  1.0000
  H   H802      1.0  0.49666  0.92740  0.24743  1.0000
  H   H803      1.0  0.45417  0.86291  0.14860  1.0000
  N   N50       1.0  0.45884  0.88880  0.14092  1.0000
  C   C512      1.0  0.53293  0.90858  0.26478  1.0000
  C   C513      1.0  0.52908  0.91966  0.23964  1.0000
  C   C514      1.0  0.52264  0.91481  0.20156  1.0000
  C   C515      1.0  0.52014  0.89890  0.18785  1.0000
  C   C516      1.0  0.52409  0.88782  0.21284  1.0000
  C   C517      1.0  0.53043  0.89265  0.25112  1.0000
  H   H804      1.0  0.53101  0.93197  0.24955  1.0000
  H   H805      1.0  0.51963  0.92350  0.18254  1.0000
  H   H806      1.0  0.52226  0.87554  0.20274  1.0000
  H   H807      1.0  0.53342  0.88398  0.27025  1.0000
  H   H808      1.0  0.43330  0.87671  0.16956  1.0000
  H   H809      1.0  0.44811  0.88850  0.20359  1.0000
  C   C518      1.0  0.37783  0.88800  0.14949  1.0000
  C   C519      1.0  0.37221  0.87334  0.17367  1.0000
  H   H810      1.0  0.37918  0.89865  0.08861  1.0000
  H   H811      1.0  0.37420  0.87361  0.20601  1.0000
  N   N51       1.0  0.39322  0.95774  0.16669  1.0000
  C   C520      1.0  0.38335  0.94577  0.20038  1.0000
  C   C521      1.0  0.40772  0.97043  0.18299  1.0000
  C   C522      1.0  0.42778  0.95949  0.39737  1.0000
  C   C523      1.0  0.39964  0.94909  0.13383  1.0000
  H   H812      1.0  0.37221  0.93603  0.18941  1.0000
  H   H813      1.0  0.40816  0.94310  0.14564  1.0000
  H   H814      1.0  0.60446  0.96778  0.46890  1.0000
  H   H815      1.0  0.38459  0.94175  0.40809  1.0000
  H   H816      1.0  0.41619  0.98301  0.42549  1.0000
  H   H817      1.0  0.38327  0.89681  0.47244  1.0000
  H   H818      1.0  0.39127  0.93937  0.21294  1.0000
  H   H819      1.0  0.36427  0.87214  0.05781  1.0000
  C   C524      1.0  0.57749  0.97755  0.47073  1.0000
  Fe  Fe104     1.0  0.51055  0.86235  0.00935  1.0000
  H   H820      1.0  0.38902  0.93908  0.12173  1.0000
  H   H821      1.0  0.46555  0.88693  0.38243  1.0000
  H   H822      1.0  0.35873  0.84710  0.17544  1.0000
  Fe  Fe105     1.0  0.50677  0.87099  0.10064  1.0000
  H   H823      1.0  0.41552  0.97970  0.15850  1.0000
  S   S205      1.0  0.48704  0.84617  0.11774  1.0000
  C   C525      1.0  0.44447  0.88814  0.17157  1.0000
  C   C526      1.0  0.48298  0.89110  0.28263  1.0000
  H   H824      1.0  0.43001  0.91482  0.39247  1.0000
  H   H825      1.0  0.47735  0.87809  0.27417  1.0000
  H   H826      1.0  0.48808  0.86988  0.33591  1.0000
  C   C527      1.0  0.36652  0.87236  0.09000  1.0000
  C   C528      1.0  0.36340  0.85832  0.15627  1.0000
  C   C529      1.0  0.40553  0.90528  0.42811  1.0000
  C   C530      1.0  0.49349  0.88311  0.34271  1.0000
  H   H827      1.0  0.50419  0.91557  0.32070  1.0000
  H   H828      1.0  0.45779  0.89269  0.33740  1.0000
  H   H829      1.0  0.60860  0.98409  0.43075  1.0000
  H   H830      1.0  0.46911  0.91527  0.13864  1.0000
  C   C531      1.0  0.36046  0.85775  0.11439  1.0000
  N   N52       1.0  0.41031  0.95728  0.41551  1.0000
  H   H831      1.0  0.37695  0.97210  0.17382  1.0000
  H   H832      1.0  0.49236  0.91140  0.37084  1.0000
  H   H833      1.0  0.44021  0.89877  0.16695  1.0000
  H   H834      1.0  0.49419  0.88399  0.37660  1.0000
  H   H835      1.0  0.42958  0.96293  0.36377  1.0000
  Fe  Fe106     1.0  0.47586  0.84948  0.06002  1.0000
  N   N53       1.0  0.48334  0.89249  0.32774  1.0000
  H   H836      1.0  0.44880  0.89778  0.09133  1.0000
  H   H837      1.0  0.44251  0.87577  0.09612  1.0000
  H   H838      1.0  0.47523  0.87501  0.12657  1.0000
  C   C532      1.0  0.45321  0.88752  0.09904  1.0000
  S   S206      1.0  0.41349  0.96863  0.29028  1.0000
  H   H839      1.0  0.46370  0.88777  0.07515  1.0000
  C   C533      1.0  0.46461  0.87498  0.14965  1.0000
  H   H840      1.0  0.39394  0.97154  0.42318  1.0000
  H   H841      1.0  0.48398  0.90554  0.11983  1.0000
  H   H842      1.0  0.46944  0.87578  0.18047  1.0000
  H   H843      1.0  0.47811  0.90555  0.17405  1.0000
  S   S207      1.0  0.52425  0.86019  0.06417  1.0000
  C   C534      1.0  0.47310  0.90448  0.14336  1.0000
  C   C535      1.0  0.46576  0.88588  0.34835  1.0000
  C   C536      1.0  0.49116  0.90994  0.33727  1.0000
  H   H844      1.0  0.43066  0.94800  0.40095  1.0000
  C   C537      1.0  0.43209  0.98631  0.28378  1.0000
  H   H845      1.0  0.44778  0.97434  0.25156  1.0000
  H   H846      1.0  0.47544  0.89804  0.27033  1.0000
  S   S208      1.0  0.49460  0.87483  0.04446  1.0000
  H   H847      1.0  0.37104  0.95630  0.13708  1.0000
  H   H848      1.0  0.49601  0.89618  0.26613  1.0000
  C   C538      1.0  0.39690  0.90322  0.46801  1.0000
  H   H849      1.0  0.41262  0.84038  0.07380  1.0000
  C   C539      1.0  0.42316  0.91349  0.42278  1.0000
  C   C540      1.0  0.43204  0.91971  0.45690  1.0000
  C   C541      1.0  0.38209  0.96558  0.14965  1.0000
  H   H850      1.0  0.61999  0.98767  0.47569  1.0000
  H   H851      1.0  0.38912  0.97473  0.12419  1.0000
  H   H852      1.0  0.44568  0.92602  0.45243  1.0000
  H   H853      1.0  0.40839  0.97659  0.37680  1.0000
  C   C542      1.0  0.40705  0.97280  0.41011  1.0000
  C   C543      1.0  0.43405  0.83920  0.03375  1.0000
  H   H854      1.0  0.37868  0.95182  0.22646  1.0000
  S   S209      1.0  0.44774  0.84446  0.07301  1.0000
  H   H855      1.0  0.40695  0.95761  0.10748  1.0000
  C   C544      1.0  0.60736  0.98126  0.46461  1.0000
  H   H856      1.0  0.43749  0.96932  0.41241  1.0000
  H   H857      1.0  0.41782  0.96211  0.47689  1.0000
  H   H858      1.0  0.41068  0.94089  0.46483  1.0000
  N   N54       1.0  0.59393  0.98634  0.48665  1.0000
  H   H859      1.0  0.57787  0.98077  0.43754  1.0000
  C   C545      1.0  0.40849  0.95265  0.45996  1.0000
  C   C546      1.0  0.43153  0.00128  0.29858  1.0000
  H   H860      1.0  0.56686  0.98059  0.48741  1.0000
  H   H861      1.0  0.50408  0.00375  0.28678  1.0000
  H   H862      1.0  0.47303  0.99990  0.23909  1.0000
  H   H863      1.0  0.41986  0.00179  0.31448  1.0000
  H   H864      1.0  0.39548  0.95090  0.47482  1.0000
  H   H865      1.0  0.57422  0.96403  0.47359  1.0000
  C   C547      1.0  0.46150  0.00030  0.25605  1.0000
  S   S210      1.0  0.34845  0.83878  0.09414  1.0000
  C   C548      1.0  0.59820  0.00423  0.47965  1.0000
  S   S211      1.0  0.52564  0.86957  0.94593  1.0000
  Fe  Fe107     1.0  0.39885  0.91523  0.68190  1.0000
  S   S212      1.0  0.42240  0.91057  0.65583  1.0000
  Fe  Fe108     1.0  0.41524  0.95232  0.66032  1.0000
  S   S213      1.0  0.43974  0.94999  0.63399  1.0000
  Fe  Fe109     1.0  0.42354  0.92787  0.60308  1.0000
  S   S214      1.0  0.43519  0.92657  0.53799  1.0000
  Fe  Fe110     1.0  0.43613  0.93297  0.68871  1.0000
  S   S215      1.0  0.45578  0.93191  0.72931  1.0000
  S   S216      1.0  0.39888  0.93110  0.62600  1.0000
  S   S217      1.0  0.41272  0.93679  0.71803  1.0000
  Fe  Fe111     1.0  0.54687  0.94936  0.78796  1.0000
  S   S218      1.0  0.55054  0.97617  0.79243  1.0000
  S   S219      1.0  0.53280  0.93624  0.84880  1.0000
  Fe  Fe112     1.0  0.56536  0.95578  0.70049  1.0000
  S   S220      1.0  0.57115  0.98306  0.70015  1.0000
  S   S221      1.0  0.57227  0.94484  0.64178  1.0000
  Fe  Fe113     1.0  0.57729  0.98108  0.76507  1.0000
  H   H866      1.0  0.42216  0.97730  0.79208  1.0000
  Fe  Fe114     1.0  0.54412  0.97576  0.72783  1.0000
  S   S222      1.0  0.52720  0.98861  0.70678  1.0000
  S   S223      1.0  0.57417  0.95429  0.76357  1.0000
  S   S224      1.0  0.53777  0.94852  0.72476  1.0000
  H   H867      1.0  0.47523  0.98416  0.77204  1.0000
  C   C549      1.0  0.55137  0.95739  0.60339  1.0000
  C   C550      1.0  0.56117  0.94726  0.60030  1.0000
  H   H868      1.0  0.60467  0.98892  0.54472  1.0000
  C   C551      1.0  0.37121  0.89254  0.83469  1.0000
  H   H869      1.0  0.55049  0.96375  0.63143  1.0000
  C   C552      1.0  0.43067  0.99516  0.66933  1.0000
  H   H870      1.0  0.54671  0.84745  0.92158  1.0000
  H   H871      1.0  0.37443  0.90150  0.85821  1.0000
  S   S225      1.0  0.37730  0.89222  0.70867  1.0000
  Fe  Fe115     1.0  0.35011  0.84657  0.93489  1.0000
  H   H872      1.0  0.60329  0.97961  0.87069  1.0000
  H   H873      1.0  0.59011  0.97412  0.94345  1.0000
  C   C553      1.0  0.43419  0.98228  0.77117  1.0000
  N   N55       1.0  0.40388  0.85965  0.84414  1.0000
  C   C554      1.0  0.56928  0.96635  0.88355  1.0000
  C   C555      1.0  0.44468  0.96114  0.79185  1.0000
  H   H874      1.0  0.39901  0.90800  0.53280  1.0000
  C   C556      1.0  0.36222  0.86977  0.77358  1.0000
  C   C557      1.0  0.42340  0.91786  0.49670  1.0000
  C   C558      1.0  0.47497  0.94861  0.72456  1.0000
  C   C559      1.0  0.48742  0.94874  0.75010  1.0000
  C   C560      1.0  0.50322  0.96147  0.74565  1.0000
  C   C561      1.0  0.50665  0.97408  0.71554  1.0000
  C   C562      1.0  0.49400  0.97434  0.69094  1.0000
  C   C563      1.0  0.47815  0.96152  0.69532  1.0000
  H   H875      1.0  0.48500  0.93882  0.77289  1.0000
  H   H876      1.0  0.51282  0.96139  0.76539  1.0000
  H   H877      1.0  0.49663  0.98413  0.66769  1.0000
  H   H878      1.0  0.46856  0.96158  0.67580  1.0000
  C   C564      1.0  0.52758  0.88810  0.91886  1.0000
  C   C565      1.0  0.51990  0.89888  0.93556  1.0000
  C   C566      1.0  0.52156  0.91344  0.91337  1.0000
  C   C567      1.0  0.53089  0.91743  0.87424  1.0000
  C   C568      1.0  0.53871  0.90673  0.85752  1.0000
  C   C569      1.0  0.53704  0.89212  0.87978  1.0000
  H   H879      1.0  0.51262  0.89600  0.96556  1.0000
  H   H880      1.0  0.51550  0.92165  0.92662  1.0000
  H   H881      1.0  0.54593  0.90964  0.82742  1.0000
  H   H882      1.0  0.54302  0.88385  0.86654  1.0000
  H   H883      1.0  0.53529  0.96735  0.57287  1.0000
  C   C570      1.0  0.58477  0.96083  0.93700  1.0000
  H   H884      1.0  0.59570  0.96471  0.83319  1.0000
  C   C571      1.0  0.56227  0.93917  0.56356  1.0000
  H   H885      1.0  0.60735  0.96058  0.87276  1.0000
  H   H886      1.0  0.44289  0.95565  0.76118  1.0000
  C   C572      1.0  0.54265  0.95933  0.57019  1.0000
  C   C573      1.0  0.41936  0.85523  0.84323  1.0000
  C   C574      1.0  0.59770  0.96614  0.86644  1.0000
  C   C575      1.0  0.55339  0.94100  0.53037  1.0000
  H   H887      1.0  0.34927  0.85203  0.82383  1.0000
  H   H888      1.0  0.55392  0.93436  0.50262  1.0000
  C   C576      1.0  0.36144  0.87606  0.84629  1.0000
  H   H889      1.0  0.56978  0.93126  0.56107  1.0000
  H   H890      1.0  0.58342  0.93438  0.89226  1.0000
  H   H891      1.0  0.41155  0.87756  0.89035  1.0000
  H   H892      1.0  0.50951  0.92964  0.56035  1.0000
  H   H893      1.0  0.49451  0.91158  0.58722  1.0000
  C   C577      1.0  0.37195  0.88625  0.76196  1.0000
  H   H894      1.0  0.38394  0.91032  0.78436  1.0000
  C   C578      1.0  0.50085  0.92507  0.58928  1.0000
  C   C579      1.0  0.37664  0.89758  0.79283  1.0000
  H   H895      1.0  0.57280  0.95525  0.95797  1.0000
  H   H896      1.0  0.50900  0.92717  0.61520  1.0000
  H   H897      1.0  0.39931  0.85712  0.91030  1.0000
  N   N56       1.0  0.44843  0.97907  0.78845  1.0000
  H   H898      1.0  0.48673  0.93562  0.52988  1.0000
  C   C580      1.0  0.57444  0.94075  0.88603  1.0000
  H   H899      1.0  0.48378  0.92847  0.66089  1.0000
  H   H900      1.0  0.48816  0.95789  0.60459  1.0000
  N   N57       1.0  0.48829  0.93347  0.59514  1.0000
  H   H901      1.0  0.50566  0.95683  0.57017  1.0000
  C   C581      1.0  0.45055  0.98596  0.82970  1.0000
  C   C582      1.0  0.49728  0.95125  0.59894  1.0000
  H   H902      1.0  0.46971  0.91322  0.63142  1.0000
  H   H903      1.0  0.47085  0.91775  0.55598  1.0000
  C   C583      1.0  0.47833  0.93097  0.55921  1.0000
  C   C584      1.0  0.47671  0.92663  0.63305  1.0000
  H   H904      1.0  0.39063  0.83984  0.80693  1.0000
  H   H905      1.0  0.46697  0.93259  0.63822  1.0000
  H   H906      1.0  0.46907  0.93757  0.56217  1.0000
  H   H907      1.0  0.50537  0.95365  0.62502  1.0000
  S   S226      1.0  0.35414  0.87060  0.89921  1.0000
  H   H908      1.0  0.42196  0.85009  0.81322  1.0000
  H   H909      1.0  0.45526  0.95813  0.80386  1.0000
  H   H910      1.0  0.58222  0.98545  0.54878  1.0000
  S   S227      1.0  0.59581  0.99957  0.80179  1.0000
  S   S228      1.0  0.41287  0.97764  0.66155  1.0000
  H   H911      1.0  0.43158  0.97633  0.74118  1.0000
  C   C585      1.0  0.46432  0.98686  0.76093  1.0000
  H   H912      1.0  0.40827  0.86764  0.77992  1.0000
  H   H913      1.0  0.46785  0.00047  0.75837  1.0000
  H   H914      1.0  0.43701  0.99568  0.76546  1.0000
  H   H915      1.0  0.59396  0.95502  0.94545  1.0000
  H   H916      1.0  0.44915  0.98324  0.65919  1.0000
  H   H917      1.0  0.39475  0.87585  0.81112  1.0000
  H   H918      1.0  0.41800  0.84578  0.86800  1.0000
  H   H919      1.0  0.56233  0.93462  0.90614  1.0000
  H   H920      1.0  0.56651  0.96459  0.85097  1.0000
  C   C586      1.0  0.40578  0.90956  0.50223  1.0000
  H   H921      1.0  0.38903  0.86938  0.88681  1.0000
  H   H922      1.0  0.57428  0.97985  0.88769  1.0000
  H   H923      1.0  0.55687  0.96091  0.90296  1.0000
  H   H924      1.0  0.35837  0.86095  0.74991  1.0000
  C   C587      1.0  0.38912  0.84485  0.83777  1.0000
  C   C588      1.0  0.40617  0.87223  0.81103  1.0000
  C   C589      1.0  0.54351  0.95107  0.53369  1.0000
  H   H925      1.0  0.46128  0.98380  0.84335  1.0000
  H   H926      1.0  0.41721  0.88359  0.81470  1.0000
  C   C590      1.0  0.35710  0.86466  0.81549  1.0000
  H   H927      1.0  0.46293  0.98228  0.72927  1.0000
  H   H928      1.0  0.43075  0.86610  0.84804  1.0000
  C   C591      1.0  0.40083  0.86624  0.88464  1.0000
  H   H929      1.0  0.43281  0.95476  0.81245  1.0000
  N   N58       1.0  0.58157  0.95851  0.89327  1.0000
  H   H930      1.0  0.57140  0.93855  0.85355  1.0000
  S   S229      1.0  0.37056  0.85015  0.97736  1.0000
  S   S230      1.0  0.53094  0.95268  0.49454  1.0000
  H   H931      1.0  0.58970  0.96888  0.53742  1.0000
  C   C592      1.0  0.59260  0.98227  0.53133  1.0000
  H   H932      1.0  0.43884  0.98027  0.85141  1.0000
  H   H933      1.0  0.37711  0.84759  0.84005  1.0000
  C   C593      1.0  0.44707  0.99446  0.66726  1.0000
  H   H934      1.0  0.45331  0.99947  0.82804  1.0000
  H   H935      1.0  0.53273  0.84403  0.99214  1.0000
  H   H936      1.0  0.68456  0.16408  0.10932  1.0000
  C   C594      1.0  0.67944  0.16297  0.14139  1.0000
  H   H937      1.0  0.67480  0.13695  0.14743  1.0000
  C   C595      1.0  0.68434  0.16172  0.90200  1.0000
  C   C596      1.0  0.68061  0.14582  0.88718  1.0000
  S   S231      1.0  0.69751  0.16784  0.94255  1.0000
  H   H938      1.0  0.68606  0.13752  0.90020  1.0000
  H   H939      1.0  0.74959  0.25217  0.17771  1.0000
  S   S232      1.0  0.84928  0.33051  0.02393  1.0000
  S   S233      1.0  0.69933  0.22787  0.04379  1.0000
  H   H940      1.0  0.75926  0.23736  0.16253  1.0000
  Fe  Fe116     1.0  0.69280  0.20153  0.06685  1.0000
  H   H941      1.0  0.72063  0.24868  0.15960  1.0000
  H   H942      1.0  0.75953  0.29737  0.03138  1.0000
  S   S234      1.0  0.79560  0.31502  0.01752  1.0000
  N   N59       1.0  0.73499  0.23328  0.14014  1.0000
  H   H943      1.0  0.72284  0.21108  0.10980  1.0000
  H   H944      1.0  0.74152  0.23186  0.20191  1.0000
  C   C597      1.0  0.74257  0.24292  0.10102  1.0000
  C   C598      1.0  0.71873  0.23558  0.15389  1.0000
  H   H945      1.0  0.70952  0.23154  0.13039  1.0000
  H   H946      1.0  0.74538  0.25631  0.10468  1.0000
  C   C599      1.0  0.76527  0.28869  0.01971  1.0000
  H   H947      1.0  0.74368  0.21338  0.12327  1.0000
  H   H948      1.0  0.72571  0.20795  0.16231  1.0000
  H   H949      1.0  0.75471  0.24128  0.08913  1.0000
  C   C600      1.0  0.75476  0.27229  0.01412  1.0000
  S   S235      1.0  0.71526  0.19860  0.02931  1.0000
  C   C601      1.0  0.74686  0.23892  0.17201  1.0000
  H   H950      1.0  0.71241  0.22812  0.18277  1.0000
  Fe  Fe117     1.0  0.82391  0.33214  0.01061  1.0000
  H   H951      1.0  0.73388  0.23910  0.07640  1.0000
  C   C602      1.0  0.73175  0.21567  0.13364  1.0000
  Fe  Fe118     1.0  0.72081  0.22431  0.00292  1.0000
  S   S236      1.0  0.68664  0.19674  0.13640  1.0000
  Fe  Fe119     1.0  0.68279  0.21660  0.99374  1.0000
  C   C603      1.0  0.78311  0.29399  0.01027  1.0000
  H   H952      1.0  0.74111  0.26856  0.02129  1.0000
  C   C604      1.0  0.76192  0.26086  0.99890  1.0000
  C   C605      1.0  0.79026  0.28253  0.99521  1.0000
  S   S237      1.0  0.67474  0.19067  0.01957  1.0000
  C   C606      1.0  0.67873  0.17691  0.16156  1.0000
  H   H953      1.0  0.76062  0.20225  0.83277  1.0000
  Fe  Fe120     1.0  0.69766  0.18990  0.97966  1.0000
  S   S238      1.0  0.70468  0.21515  0.95059  1.0000
  H   H954      1.0  0.77580  0.33001  0.96960  1.0000
  H   H955      1.0  0.68031  0.18472  0.89537  1.0000
  N   N60       1.0  0.74408  0.20087  0.88825  1.0000
  H   H956      1.0  0.73042  0.20031  0.83524  1.0000
  H   H957      1.0  0.75215  0.19745  0.94742  1.0000
  C   C607      1.0  0.74070  0.19309  0.93022  1.0000
  H   H958      1.0  0.75405  0.18304  0.86207  1.0000
  H   H959      1.0  0.76974  0.20094  0.87983  1.0000
  H   H960      1.0  0.71779  0.19777  0.88412  1.0000
  C   C608      1.0  0.74947  0.21892  0.89112  1.0000
  H   H961      1.0  0.76111  0.22387  0.90750  1.0000
  H   H962      1.0  0.75220  0.22527  0.86008  1.0000
  H   H963      1.0  0.73947  0.22258  0.90881  1.0000
  C   C609      1.0  0.75774  0.19659  0.86467  1.0000
  H   H964      1.0  0.73037  0.19598  0.94852  1.0000
  S   S239      1.0  0.74935  0.23990  0.99104  1.0000
  C   C610      1.0  0.72840  0.19481  0.86713  1.0000
  H   H965      1.0  0.78553  0.25748  0.97790  1.0000
  C   C611      1.0  0.67735  0.17237  0.88468  1.0000
  H   H966      1.0  0.72383  0.18118  0.86513  1.0000
  H   H967      1.0  0.73648  0.17944  0.92945  1.0000
  H   H968      1.0  0.77862  0.33625  0.91574  1.0000
  H   H969      1.0  0.79657  0.33677  0.94220  1.0000
  C   C612      1.0  0.77975  0.26613  0.98960  1.0000
  H   H970      1.0  0.80391  0.28631  0.98781  1.0000
  H   H971      1.0  0.74400  0.46193  0.03781  1.0000
  H   H972      1.0  0.97002  0.39896  0.08665  1.0000
  C   C613      1.0  0.90294  0.48865  0.28684  1.0000
  H   H973      1.0  0.92973  0.48065  0.21221  1.0000
  H   H974      1.0  0.95715  0.37881  0.14605  1.0000
  H   H975      1.0  0.82056  0.40897  0.10665  1.0000
  H   H976      1.0  0.92895  0.47830  0.26705  1.0000
  H   H977      1.0  0.83619  0.44631  0.00893  1.0000
  H   H978      1.0  0.88571  0.42148  0.15874  1.0000
  C   C614      1.0  0.98160  0.40420  0.10312  1.0000
  H   H979      1.0  0.87430  0.39082  0.07860  1.0000
  C   C615      1.0  0.75973  0.50242  0.09503  1.0000
  H   H980      1.0  0.85689  0.39051  0.14632  1.0000
  S   S240      1.0  0.82817  0.48749  0.12010  1.0000
  H   H981      1.0  0.91119  0.46626  0.24160  1.0000
  Fe  Fe121     1.0  0.93693  0.39548  0.26509  1.0000
  S   S241      1.0  0.92749  0.39615  0.33254  1.0000
  S   S242      1.0  0.92886  0.37884  0.21119  1.0000
  Fe  Fe122     1.0  0.96825  0.42602  0.26920  1.0000
  S   S243      1.0  0.96170  0.42986  0.33532  1.0000
  S   S244      1.0  0.99102  0.44359  0.23093  1.0000
  Fe  Fe123     1.0  0.95490  0.40276  0.34567  1.0000
  S   S245      1.0  0.96741  0.39683  0.39966  1.0000
  Fe  Fe124     1.0  0.93513  0.42335  0.31852  1.0000
  S   S246      1.0  0.92149  0.43985  0.34310  1.0000
  S   S247      1.0  0.96369  0.39934  0.27996  1.0000
  S   S248      1.0  0.94224  0.42221  0.25103  1.0000
  C   C616      1.0  0.83216  0.40582  0.00489  1.0000
  S   S249      1.0  0.82788  0.35430  0.04958  1.0000
  H   H982      1.0  0.86151  0.39992  0.05321  1.0000
  H   H983      1.0  0.85933  0.42607  0.07642  1.0000
  C   C617      1.0  0.96920  0.38451  0.16048  1.0000
  H   H984      1.0  0.89762  0.50139  0.21603  1.0000
  C   C618      1.0  0.95715  0.49284  0.31747  1.0000
  C   C619      1.0  0.96008  0.48029  0.29492  1.0000
  C   C620      1.0  0.94945  0.46390  0.30367  1.0000
  C   C621      1.0  0.93575  0.46007  0.33459  1.0000
  C   C622      1.0  0.93328  0.47256  0.35821  1.0000
  C   C623      1.0  0.94422  0.48886  0.35021  1.0000
  H   H985      1.0  0.97023  0.48323  0.26990  1.0000
  H   H986      1.0  0.95158  0.45434  0.28548  1.0000
  H   H987      1.0  0.92302  0.46960  0.38293  1.0000
  C   C624      1.0  0.90339  0.49168  0.21285  1.0000
  H   H988      1.0  0.95002  0.44492  0.48057  1.0000
  S   S250      1.0  0.82746  0.44354  0.09787  1.0000
  H   H989      1.0  0.72380  0.50463  0.03047  1.0000
  H   H990      1.0  0.88795  0.40298  0.13933  1.0000
  C   C625      1.0  0.87294  0.40273  0.07040  1.0000
  C   C626      1.0  0.76578  0.48057  0.05914  1.0000
  C   C627      1.0  0.82475  0.41265  0.07447  1.0000
  C   C628      1.0  0.73640  0.48043  0.06912  1.0000
  H   H991      1.0  0.77471  0.47483  0.04726  1.0000
  H   H992      1.0  0.96575  0.38257  0.19451  1.0000
  C   C629      1.0  0.87973  0.36643  0.14663  1.0000
  C   C630      1.0  0.89436  0.36455  0.12664  1.0000
  C   C631      1.0  0.90936  0.36862  0.14662  1.0000
  C   C632      1.0  0.91004  0.37499  0.18627  1.0000
  C   C633      1.0  0.89560  0.37744  0.20560  1.0000
  C   C634      1.0  0.88048  0.37297  0.18608  1.0000
  H   H993      1.0  0.92040  0.36655  0.13149  1.0000
  H   H994      1.0  0.99913  0.42274  0.16156  1.0000
  H   H995      1.0  0.89587  0.38215  0.23626  1.0000
  H   H996      1.0  0.97102  0.42420  0.15315  1.0000
  H   H997      1.0  0.91043  0.48849  0.31318  1.0000
  H   H998      1.0  0.91120  0.49405  0.18236  1.0000
  H   H999      1.0  0.86921  0.37434  0.20201  1.0000
  H   H1000     1.0  0.93257  0.39131  0.43473  1.0000
  H   H1001     1.0  0.88183  0.43573  0.07602  1.0000
  H   H1002     1.0  0.86799  0.43480  0.12243  1.0000
  C   C635      1.0  0.83346  0.43370  0.01945  1.0000
  H   H1003     1.0  0.84441  0.39893  0.11819  1.0000
  Fe  Fe125     1.0  0.85390  0.35392  0.05851  1.0000
  H   H1004     1.0  0.95325  0.40568  0.14615  1.0000
  H   H1005     1.0  0.73328  0.50066  0.10240  1.0000
  H   H1006     1.0  0.89846  0.42210  0.11063  1.0000
  Fe  Fe126     1.0  0.83202  0.46947  0.07428  1.0000
  H   H1007     1.0  0.98134  0.39910  0.47739  1.0000
  S   S251      1.0  0.81784  0.47651  0.02645  1.0000
  H   H1008     1.0  0.94276  0.49828  0.36982  1.0000
  H   H1009     1.0  0.00238  0.40330  0.16026  1.0000
  N   N61       1.0  0.87140  0.41193  0.10763  1.0000
  H   H1010     1.0  0.00106  0.41810  0.26608  1.0000
  S   S252      1.0  0.86013  0.36057  0.12438  1.0000
  H   H1011     1.0  0.96173  0.40927  0.19469  1.0000
  S   S253      1.0  0.79362  0.50519  0.08673  1.0000
  H   H1012     1.0  0.82423  0.38854  0.05712  1.0000
  C   C636      1.0  0.77164  0.49523  0.07979  1.0000
  H   H1013     1.0  0.97778  0.37756  0.15144  1.0000
  C   C637      1.0  0.96531  0.41075  0.16086  1.0000
  H   H1014     1.0  0.99062  0.39788  0.09258  1.0000
  H   H1015     1.0  0.89395  0.35944  0.09642  1.0000
  Fe  Fe127     1.0  0.84373  0.49475  0.00280  1.0000
  Fe  Fe128     1.0  0.81578  0.49587  0.07003  1.0000
  S   S254      1.0  0.85794  0.48616  0.04755  1.0000
  S   S255      1.0  0.86651  0.37088  0.00308  1.0000
  H   H1016     1.0  0.99001  0.40785  0.20322  1.0000
  N   N62       1.0  0.97727  0.40218  0.14834  1.0000
  H   H1017     1.0  0.78681  0.35036  0.02128  1.0000
  C   C638      1.0  0.82834  0.42903  0.06116  1.0000
  C   C639      1.0  0.74224  0.49506  0.08996  1.0000
  C   C640      1.0  0.95787  0.39560  0.45101  1.0000
  Fe  Fe129     1.0  0.69112  0.47864  0.07061  1.0000
  C   C641      1.0  0.82686  0.40110  0.04652  1.0000
  S   S256      1.0  0.71462  0.47093  0.05965  1.0000
  C   C642      1.0  0.88656  0.41481  0.13008  1.0000
  Fe  Fe130     1.0  0.85316  0.50481  0.08984  1.0000
  C   C643      1.0  0.92121  0.47864  0.24154  1.0000
  H   H1018     1.0  0.99668  0.42665  0.41527  1.0000
  H   H1019     1.0  0.79653  0.37197  0.00610  1.0000
  C   C644      1.0  0.74831  0.47326  0.05384  1.0000
  C   C645      1.0  0.96793  0.39710  0.48386  1.0000
  C   C646      1.0  0.99291  0.40930  0.16909  1.0000
  H   H1020     1.0  0.88423  0.40975  0.04871  1.0000
  C   C647      1.0  0.94046  0.39265  0.45977  1.0000
  H   H1021     1.0  0.89234  0.47660  0.28804  1.0000
  C   C648      1.0  0.87013  0.42784  0.09520  1.0000
  H   H1022     1.0  0.89723  0.49836  0.29221  1.0000
  N   N63       1.0  0.91377  0.49170  0.24701  1.0000
  C   C649      1.0  0.85598  0.40224  0.13479  1.0000
  H   H1023     1.0  0.98767  0.41742  0.09307  1.0000
  H   H1024     1.0  0.85387  0.40911  0.16220  1.0000
  H   H1025     1.0  0.89278  0.47973  0.21202  1.0000
  S   S257      1.0  0.69148  0.50455  0.07470  1.0000
  C   C650      1.0  0.79460  0.35927  0.99602  1.0000
  H   H1026     1.0  0.83916  0.42574  0.95906  1.0000
  C   C651      1.0  0.93309  0.39069  0.50103  1.0000
  H   H1027     1.0  0.94004  0.44609  0.61153  1.0000
  H   H1028     1.0  0.92104  0.36386  0.66026  1.0000
  H   H1029     1.0  0.74320  0.49308  0.93351  1.0000
  H   H1030     1.0  0.89033  0.45466  0.83575  1.0000
  S   S258      1.0  0.83480  0.39163  0.96899  1.0000
  H   H1031     1.0  0.90513  0.34380  0.66002  1.0000
  Fe  Fe131     1.0  0.97641  0.40558  0.69671  1.0000
  S   S259      1.0  0.97637  0.41696  0.63456  1.0000
  H   H1032     1.0  0.87541  0.46678  0.88932  1.0000
  Fe  Fe132     1.0  0.94148  0.40580  0.73021  1.0000
  S   S260      1.0  0.93913  0.41795  0.67092  1.0000
  S   S261      1.0  0.91819  0.40148  0.77704  1.0000
  Fe  Fe133     1.0  0.94913  0.40024  0.63782  1.0000
  S   S262      1.0  0.93340  0.38971  0.58527  1.0000
  Fe  Fe134     1.0  0.96635  0.43366  0.67209  1.0000
  S   S263      1.0  0.97521  0.46017  0.65098  1.0000
  S   S264      1.0  0.94980  0.38689  0.69690  1.0000
  S   S265      1.0  0.96816  0.42356  0.73439  1.0000
  C   C652      1.0  0.94316  0.39226  0.53385  1.0000
  H   H1033     1.0  0.75303  0.49951  0.98023  1.0000
  H   H1034     1.0  0.96851  0.39672  0.55011  1.0000
  C   C653      1.0  0.91210  0.49533  0.84473  1.0000
  C   C654      1.0  0.93682  0.48226  0.70648  1.0000
  C   C655      1.0  0.93583  0.46659  0.72001  1.0000
  C   C656      1.0  0.94792  0.45996  0.70373  1.0000
  C   C657      1.0  0.96077  0.46883  0.67326  1.0000
  C   C658      1.0  0.96173  0.48445  0.65952  1.0000
  C   C659      1.0  0.90165  0.46612  0.83540  1.0000
  H   H1035     1.0  0.92583  0.45963  0.74338  1.0000
  H   H1036     1.0  0.94729  0.44800  0.71502  1.0000
  H   H1037     1.0  0.91007  0.46410  0.85763  1.0000
  H   H1038     1.0  0.91385  0.38630  0.69485  1.0000
  H   H1039     1.0  0.87373  0.47180  0.81551  1.0000
  C   C660      1.0  0.90202  0.35678  0.73395  1.0000
  H   H1040     1.0  0.88346  0.48844  0.89618  1.0000
  C   C661      1.0  0.89166  0.36166  0.88061  1.0000
  C   C662      1.0  0.88575  0.37454  0.87337  1.0000
  C   C663      1.0  0.89418  0.38668  0.84191  1.0000
  C   C664      1.0  0.90876  0.38628  0.81767  1.0000
  C   C665      1.0  0.91491  0.37359  0.82540  1.0000
  C   C666      1.0  0.90627  0.36125  0.85639  1.0000
  H   H1041     1.0  0.88933  0.39644  0.83632  1.0000
  H   H1042     1.0  0.92624  0.37321  0.80743  1.0000
  H   H1043     1.0  0.90874  0.46785  0.80400  1.0000
  C   C667      1.0  0.88563  0.48266  0.81516  1.0000
  S   S266      1.0  0.92189  0.49057  0.72779  1.0000
  H   H1044     1.0  0.91771  0.43288  0.54152  1.0000
  H   H1045     1.0  0.91952  0.38790  0.50747  1.0000
  H   H1046     1.0  0.80084  0.38075  0.93220  1.0000
  H   H1047     1.0  0.92945  0.42066  0.51956  1.0000
  H   H1048     1.0  0.93853  0.45747  0.50181  1.0000
  C   C668      1.0  0.96066  0.39569  0.52511  1.0000
  H   H1049     1.0  0.97069  0.44654  0.55631  1.0000
  H   H1050     1.0  0.91939  0.49779  0.81362  1.0000
  H   H1051     1.0  0.92527  0.42076  0.57449  1.0000
  H   H1052     1.0  0.89518  0.47601  0.91135  1.0000
  H   H1053     1.0  0.95473  0.46378  0.58290  1.0000
  H   H1054     1.0  0.89223  0.48457  0.78327  1.0000
  H   H1055     1.0  0.87457  0.35536  0.66284  1.0000
  H   H1056     1.0  0.95030  0.50303  0.66482  1.0000
  H   H1057     1.0  0.92078  0.49414  0.86728  1.0000
  H   H1058     1.0  0.88193  0.49357  0.82138  1.0000
  H   H1059     1.0  0.00097  0.49802  0.66726  1.0000
  N   N64       1.0  0.94464  0.44264  0.54672  1.0000
  H   H1060     1.0  0.70806  0.49471  0.97071  1.0000
  H   H1061     1.0  0.91100  0.35140  0.86191  1.0000
  C   C669      1.0  0.87874  0.35220  0.69221  1.0000
  H   H1062     1.0  0.87079  0.35512  0.71818  1.0000
  C   C670      1.0  0.77024  0.35859  0.96182  1.0000
  H   H1063     1.0  0.79280  0.36595  0.89394  1.0000
  H   H1064     1.0  0.76395  0.35627  0.93282  1.0000
  H   H1065     1.0  0.90390  0.36062  0.62930  1.0000
  H   H1066     1.0  0.87454  0.37503  0.89170  1.0000
  H   H1067     1.0  0.95541  0.42820  0.58115  1.0000
  C   C671      1.0  0.94978  0.49118  0.67625  1.0000
  N   N65       1.0  0.78682  0.35616  0.95677  1.0000
  N   N66       1.0  0.89666  0.48046  0.84573  1.0000
  H   H1068     1.0  0.97783  0.49537  0.74589  1.0000
  N   N67       1.0  0.89704  0.36131  0.69453  1.0000
  H   H1069     1.0  0.91567  0.36373  0.73721  1.0000
  H   H1070     1.0  0.93234  0.45790  0.57813  1.0000
  H   H1071     1.0  0.97153  0.49124  0.63556  1.0000
  C   C672      1.0  0.74089  0.49648  0.96577  1.0000
  H   H1072     1.0  0.89698  0.38317  0.66285  1.0000
  H   H1073     1.0  0.89285  0.38279  0.71841  1.0000
  H   H1074     1.0  0.76143  0.35013  0.98663  1.0000
  H   H1075     1.0  0.00111  0.49004  0.77932  1.0000
  H   H1076     1.0  0.81088  0.36613  0.91943  1.0000
  C   C673      1.0  0.94281  0.45305  0.58124  1.0000
  C   C674      1.0  0.88729  0.47776  0.88745  1.0000
  C   C675      1.0  0.79826  0.36772  0.92403  1.0000
  S   S267      1.0  0.88081  0.34563  0.91846  1.0000
  C   C676      1.0  0.00504  0.49499  0.69687  1.0000
  S   S268      1.0  0.83509  0.34780  0.95204  1.0000
  C   C677      1.0  0.90023  0.37915  0.69246  1.0000
  H   H1077     1.0  0.89448  0.35963  0.76093  1.0000
  Fe  Fe135     1.0  0.86059  0.34791  0.96744  1.0000
  S   S269      1.0  0.99832  0.39779  0.71017  1.0000
  S   S270      1.0  0.85150  0.49844  0.93358  1.0000
  C   C678      1.0  0.95851  0.43636  0.55280  1.0000
  C   C679      1.0  0.90716  0.35716  0.65957  1.0000
  H   H1078     1.0  0.73165  0.48529  0.98270  1.0000
  H   H1079     1.0  0.99633  0.48241  0.70750  1.0000
  C   C680      1.0  0.94870  0.45247  0.50732  1.0000
  H   H1080     1.0  0.96086  0.46306  0.50705  1.0000
  H   H1081     1.0  0.77179  0.37139  0.97034  1.0000
  H   H1082     1.0  0.71815  0.50111  0.91923  1.0000
  C   C681      1.0  0.83520  0.42206  0.99132  1.0000
  Fe  Fe136     1.0  0.84023  0.36954  0.99204  1.0000
  C   C682      1.0  0.92854  0.42865  0.54554  1.0000
  H   H1083     1.0  0.96074  0.42902  0.52648  1.0000
  H   H1084     1.0  0.90009  0.34346  0.73658  1.0000
  C   C683      1.0  0.78430  0.33908  0.94544  1.0000
  C   C684      1.0  0.71754  0.50513  0.95147  1.0000
  H   H1085     1.0  0.87589  0.33868  0.69386  1.0000
  H   H1086     1.0  0.80731  0.35806  0.99243  1.0000
  Fe  Fe137     1.0  0.92436  0.54114  0.32192  1.0000
  S   S271      1.0  0.95078  0.54915  0.28800  1.0000
  S   S272      1.0  0.89756  0.53220  0.30145  1.0000
  Fe  Fe138     1.0  0.93758  0.53826  0.40625  1.0000
  S   S273      1.0  0.96474  0.54580  0.37920  1.0000
  C   C685      1.0  0.87010  0.54160  0.45066  1.0000
  Fe  Fe139     1.0  0.95887  0.56474  0.34251  1.0000
  S   S274      1.0  0.97854  0.59019  0.34097  1.0000
  Fe  Fe140     1.0  0.95476  0.52977  0.32758  1.0000
  S   S275      1.0  0.93210  0.55846  0.37374  1.0000
  C   C686      1.0  0.85514  0.55322  0.11217  1.0000
  N   N68       1.0  0.88572  0.53795  0.45551  1.0000
  H   H1087     1.0  0.89221  0.53731  0.39013  1.0000
  C   C687      1.0  0.99938  0.59207  0.32082  1.0000
  H   H1088     1.0  0.72761  0.52533  0.01304  1.0000
  S   S276      1.0  0.92793  0.52057  0.35709  1.0000
  C   C688      1.0  0.88151  0.52456  0.16951  1.0000
  H   H1089     1.0  0.82451  0.55277  0.18860  1.0000
  S   S277      1.0  0.96862  0.51344  0.30217  1.0000
  H   H1090     1.0  0.83788  0.52170  0.13169  1.0000
  C   C689      1.0  0.73271  0.51509  0.01050  1.0000
  H   H1091     1.0  0.83841  0.56997  0.15626  1.0000
  S   S278      1.0  0.84072  0.51462  0.04264  1.0000
  S   S279      1.0  0.87530  0.52338  0.11870  1.0000
  H   H1092     1.0  0.85719  0.56548  0.09756  1.0000
  C   C690      1.0  0.90328  0.53709  0.21606  1.0000
  C   C691      1.0  0.89190  0.52919  0.25022  1.0000
  H   H1093     1.0  0.94141  0.56224  0.48500  1.0000
  H   H1094     1.0  0.90215  0.56203  0.43200  1.0000
  H   H1095     1.0  0.81178  0.53888  0.12669  1.0000
  H   H1096     1.0  0.82360  0.52432  0.17304  1.0000
  C   C692      1.0  0.87029  0.51624  0.20357  1.0000
  H   H1097     1.0  0.90677  0.54149  0.14991  1.0000
  H   H1098     1.0  0.91597  0.54527  0.22052  1.0000
  H   H1099     1.0  0.82562  0.55628  0.09464  1.0000
  H   H1100     1.0  0.90138  0.52634  0.42185  1.0000
  C   C693      1.0  0.83704  0.55765  0.16946  1.0000
  H   H1101     1.0  0.82525  0.53593  0.08427  1.0000
  C   C694      1.0  0.89802  0.53493  0.17603  1.0000
  H   H1102     1.0  0.86675  0.54813  0.47753  1.0000
  C   C695      1.0  0.83638  0.53024  0.15560  1.0000
  H   H1103     1.0  0.86570  0.55452  0.13160  1.0000
  H   H1104     1.0  0.84717  0.55942  0.19047  1.0000
  H   H1105     1.0  0.87170  0.54953  0.42237  1.0000
  H   H1106     1.0  0.85653  0.54503  0.08702  1.0000
  S   S280      1.0  0.92835  0.52696  0.47082  1.0000
  C   C696      1.0  0.82468  0.54436  0.10943  1.0000
  H   H1107     1.0  0.91207  0.55117  0.46163  1.0000
  C   C697      1.0  0.88978  0.52948  0.41896  1.0000
  N   N69       1.0  0.83831  0.54638  0.13663  1.0000
  H   H1108     1.0  0.99138  0.57341  0.27653  1.0000
  H   H1109     1.0  0.85904  0.53014  0.44790  1.0000
  H   H1110     1.0  0.84625  0.53130  0.17694  1.0000
  C   C698      1.0  0.90000  0.55348  0.45931  1.0000
  C   C699      1.0  0.87540  0.51874  0.24375  1.0000
  C   C700      1.0  0.00214  0.58234  0.28884  1.0000
  H   H1111     1.0  0.76404  0.51370  0.11128  1.0000
  H   H1112     1.0  0.87924  0.51782  0.41463  1.0000
  H   H1113     1.0  0.89772  0.55995  0.48738  1.0000
  C   C701      1.0  0.92759  0.50783  0.24696  1.0000
  H   H1114     1.0  0.74514  0.51904  0.02375  1.0000
  H   H1115     1.0  0.00091  0.54654  0.30029  1.0000
  H   H1116     1.0  0.86650  0.51255  0.26996  1.0000
  H   H1117     1.0  0.93598  0.51068  0.21730  1.0000
  H   H1118     1.0  0.92244  0.51795  0.25183  1.0000
  H   H1119     1.0  0.93582  0.50814  0.27195  1.0000
  H   H1120     1.0  0.99990  0.53863  0.35167  1.0000
  H   H1121     1.0  0.85757  0.50819  0.19906  1.0000
  H   H1122     1.0  0.00506  0.51430  0.32425  1.0000
  H   H1123     1.0  0.00627  0.52204  0.27260  1.0000
  H   H1124     1.0  0.87244  0.51539  0.49125  1.0000
  Fe  Fe141     1.0  0.96638  0.54685  0.73553  1.0000
  S   S281      1.0  0.95252  0.56467  0.74424  1.0000
  C   C702      1.0  0.98644  0.59137  0.58571  1.0000
  C   C703      1.0  0.87081  0.51342  0.91189  1.0000
  S   S282      1.0  0.91686  0.53352  0.73551  1.0000
  Fe  Fe142     1.0  0.93777  0.55165  0.69277  1.0000
  S   S283      1.0  0.93619  0.56599  0.63579  1.0000
  Fe  Fe143     1.0  0.93291  0.54479  0.78623  1.0000
  S   S284      1.0  0.92268  0.54815  0.85131  1.0000
  S   S285      1.0  0.95270  0.53499  0.68207  1.0000
  S   S286      1.0  0.94827  0.52815  0.78173  1.0000
  C   C704      1.0  0.93455  0.55523  0.58982  1.0000
  Fe  Fe144     1.0  0.93331  0.51801  0.72894  1.0000
  C   C705      1.0  0.92891  0.53807  0.59115  1.0000
  C   C706      1.0  0.87376  0.51601  0.86879  1.0000
  H   H1125     1.0  0.92538  0.53126  0.62058  1.0000
  C   C707      1.0  0.88364  0.52195  0.93614  1.0000
  C   C708      1.0  0.98267  0.58340  0.65805  1.0000
  C   C709      1.0  0.92734  0.52963  0.55433  1.0000
  H   H1126     1.0  0.89463  0.52432  0.49763  1.0000
  C   C710      1.0  0.74641  0.52445  0.94189  1.0000
  H   H1127     1.0  0.88153  0.52006  0.96938  1.0000
  C   C711      1.0  0.93901  0.56391  0.55140  1.0000
  H   H1128     1.0  0.75927  0.52854  0.95304  1.0000
  N   N70       1.0  0.99005  0.58086  0.61679  1.0000
  H   H1129     1.0  0.96827  0.55966  0.60754  1.0000
  C   C712      1.0  0.90248  0.53504  0.87403  1.0000
  C   C713      1.0  0.89935  0.53281  0.91724  1.0000
  H   H1130     1.0  0.98505  0.55517  0.62938  1.0000
  C   C714      1.0  0.00593  0.58435  0.74226  1.0000
  H   H1131     1.0  0.90889  0.50643  0.85229  1.0000
  C   C715      1.0  0.88955  0.52666  0.84988  1.0000
  H   H1132     1.0  0.90924  0.53933  0.93618  1.0000
  H   H1133     1.0  0.98731  0.56111  0.57547  1.0000
  H   H1134     1.0  0.89169  0.52847  0.81665  1.0000
  H   H1135     1.0  0.97244  0.58827  0.58515  1.0000
  H   H1136     1.0  0.74786  0.52132  0.90902  1.0000
  H   H1137     1.0  0.99289  0.58261  0.75356  1.0000
  C   C716      1.0  0.98236  0.56344  0.60679  1.0000
  C   C717      1.0  0.93176  0.53826  0.51592  1.0000
  S   S287      1.0  0.99466  0.55128  0.72532  1.0000
  H   H1138     1.0  0.74194  0.53512  0.94275  1.0000
  H   H1139     1.0  0.86381  0.50961  0.84990  1.0000
  H   H1140     1.0  0.94340  0.57720  0.55018  1.0000
  H   H1141     1.0  0.98323  0.51176  0.70732  1.0000
  H   H1142     1.0  0.92261  0.51633  0.55569  1.0000
  C   C718      1.0  0.93785  0.55546  0.51447  1.0000
  H   H1143     1.0  0.98905  0.59605  0.66826  1.0000
  H   H1144     1.0  0.98384  0.57465  0.68160  1.0000
  N   N71       1.0  0.73440  0.51029  0.96737  1.0000
  H   H1145     1.0  0.88009  0.53331  0.52131  1.0000
  H   H1146     1.0  0.96888  0.58142  0.65852  1.0000
  S   S288      1.0  0.67650  0.51038  0.96383  1.0000
  H   H1147     1.0  0.71236  0.51533  0.95175  1.0000
  H   H1148     1.0  0.98660  0.51650  0.75976  1.0000
  N   N72       1.0  0.00472  0.50714  0.72812  1.0000
  H   H1149     1.0  0.99193  0.60460  0.59251  1.0000
  H   H1150     1.0  0.99177  0.58979  0.55409  1.0000
  C   C719      1.0  0.98732  0.50767  0.73569  1.0000
  H   H1151     1.0  0.67461  0.58109  0.60843  1.0000
  H   H1152     1.0  0.67501  0.57669  0.53354  1.0000
  C   C720      1.0  0.88305  0.52727  0.49306  1.0000
