data_image0
_chemical_formula_structural       FeS2FeS2FeSFeS3FeS2FeS2FeSFeS3FeS2FeS2FeSFeS3FeS2FeS2FeSFeS3FeS2FeS2FeSFeS3FeS2FeS2FeSFeS3FeS2FeS2FeSFeS3FeS2FeS2FeSFeS3FeS2FeS2FeSFeS3FeS2FeS2FeSFeS3FeS2FeS2FeSFeS3FeS2FeS2FeSFeS3FeS2FeS2FeSFeS3FeS2FeS2FeSFeS3FeS2FeS2FeSFeS3FeS2FeS2FeSFeS3C6H4C6H4C6H4C6H4C6H4C6H4C6H4C6H4C6H4C6H4C6H4C6H4C6H4C6H4C6H4C6H4C6H4C6H4C6H4C6H4C6H4C6H4C6H4C6H4C6H4C6H4C6H4C6H4C6H4C6H4C6H4C6H4FeS2FeS2FeSFeS3FeS2FeS2FeSFeS3FeS2FeS2FeSFeS3FeS2FeS2FeSFeS3FeS2FeS2FeSFeS3FeS2FeS2FeSFeS3FeS2FeS2FeSFeS3FeS2FeS2FeSFeS3FeS2FeS2FeSFeS3FeS2FeS2FeSFeS3FeS2FeS2FeSFeS3FeS2FeS2FeSFeS3FeS2FeS2FeSFeS3FeS2FeS2FeSFeS3FeS2FeS2FeSFeS3FeS2FeS2FeSFeS3C6H4C6H4C6H4C6H4C6H4C6H4C6H4C6H4C6H4C6H4C6H4C6H4C6H4C6H4C6H4C6H4C6H4C6H4C6H4C6H4C6H4C6H4C6H4C6H4C6H4C6H4C6H4C6H4C6H4C6H4C6H4C6H4NC4H12NC4H12NC4H12NC4H12NC4H12NC4H12NC4H12NC4H12NC4H12NC4H12NC4H12NC4H12NC4H12NC4H12NC4H12NC4H12NC4H12NC4H12NC4H12NC4H12NC4H12NC4H12NC4H12NC4H12NC4H12NC4H12NC4H12NC4H12NC4H12NC4H12NC4H12NC4H12NC4H12NC4H12NC4H12NC4H12NC4H12NC4H12NC4H12NC4H12NC4H12NC4H12NC4H12NC4H12NC4H12NC4H12NC4H12NC4H12NC4H12NC4H12NC4H12NC4H12NC4H12NC4H12NC4H12NC4H12NC4H12NC4H12NC4H12NC4H12NC4H12NC4H12NC4H12NC4H12
_chemical_formula_sum              "Fe128 S256 C640 H1024 N64"
_cell_length_a       54.35906767489484
_cell_length_b       53.9283850135187
_cell_length_c       40.45336220450988
_cell_angle_alpha    90.74568885078763
_cell_angle_beta     90.67846798299814
_cell_angle_gamma    87.28875506542504

_space_group_name_H-M_alt    "P 1"
_space_group_IT_number       1

loop_
  _space_group_symop_operation_xyz
  'x, y, z'

loop_
  _atom_site_type_symbol
  _atom_site_label
  _atom_site_symmetry_multiplicity
  _atom_site_fract_x
  _atom_site_fract_y
  _atom_site_fract_z
  _atom_site_occupancy
  Fe  Fe1       1.0  0.6567847931310882  0.9175296084971167  0.5471115264079094  1.0000
  S   S1        1.0  0.6516276575912292  0.9014800098708043  0.5970672884737114  1.0000
  S   S2        1.0  0.6786633034345673  0.8921829143104812  0.5128156253550722  1.0000
  Fe  Fe2       1.0  0.6909045217710413  0.9724977472416907  0.057125531094664124  1.0000
  S   S3        1.0  0.6531997400499232  0.9768062710578754  0.0785378030442964  1.0000
  S   S4        1.0  0.7166560527254416  0.0036386945681039506  0.05316353093455262  1.0000
  Fe  Fe3       1.0  0.6638617503375216  0.9417103479871066  0.10547764509480867  1.0000
  S   S5        1.0  0.654390285381368  0.9391026077112858  0.1591532467830365  1.0000
  Fe  Fe4       1.0  0.6138895302387306  0.9193151621918696  0.5949866552473497  1.0000
  S   S6        1.0  0.5820036876070959  0.8974228471775881  0.6106887140782439  1.0000
  S   S7        1.0  0.7027292483751507  0.9393979174018157  0.08751721793397714  1.0000
  S   S8        1.0  0.617589489787753  0.931833330478496  0.5427818410026367  1.0000
  Fe  Fe5       1.0  0.46064769551223833  0.9617107309712764  0.5913707259289399  1.0000
  S   S9        1.0  0.45461153464169096  0.983295713731656  0.5450207045503244  1.0000
  S   S10       1.0  0.490737107768236  0.9717757468796366  0.6268160903317046  1.0000
  Fe  Fe6       1.0  0.43966558162110886  0.9478616016754686  0.07692041510281206  1.0000
  S   S11       1.0  0.4078306673489367  0.9476299054872125  0.5299248986365279  1.0000
  S   S12       1.0  0.4210413889262464  0.9143324704062411  0.0947917248038863  1.0000
  Fe  Fe7       1.0  0.44832612390878984  0.946856870709541  0.5204093661982948  1.0000
  S   S13       1.0  0.4645977951918407  0.9433242959411339  0.4697934322709023  1.0000
  Fe  Fe8       1.0  0.4146328507950172  0.9831872808350102  0.5572516779577739  1.0000
  S   S14       1.0  0.41240853053773174  0.0367624115108387  0.08334386515688645  1.0000
  S   S15       1.0  0.4584962499463525  0.9249059955857151  0.5654200166321989  1.0000
  S   S16       1.0  0.4504781932455737  0.9792941100578159  0.10970097121025188  1.0000
  Fe  Fe9       1.0  0.4442434722725149  0.20300795423908627  0.5480198160684413  1.0000
  S   S17       1.0  0.4426723050582913  0.17962268185382957  0.09880091310608344  1.0000
  S   S18       1.0  0.4968599396248046  0.22351935234077908  0.10422472054610277  1.0000
  Fe  Fe10      1.0  0.3954369757390217  0.18507905973377595  0.5237099354776531  1.0000
  S   S19       1.0  0.3914452131300824  0.16006109021675002  0.5671135423270519  1.0000
  S   S20       1.0  0.3645346073998427  0.19528530546849587  0.48837246529025  1.0000
  Fe  Fe11      1.0  0.4080919670273876  0.20378281114222105  0.0947864616412078  1.0000
  S   S21       1.0  0.381610057804601  0.20375897034870788  0.13695909732650396  1.0000
  Fe  Fe12      1.0  0.4317024685530199  0.15033929936180188  0.5604306560421307  1.0000
  S   S22       1.0  0.45179249809907535  0.11346379352215279  0.5685277339310614  1.0000
  S   S23       1.0  0.4056889033086082  0.21805517807292196  0.5540008884823664  1.0000
  S   S24       1.0  0.4345058349237344  0.17204399922481858  0.513688790356225  1.0000
  Fe  Fe13      1.0  0.6429976102667287  0.18415347481997527  0.10418399860179704  1.0000
  S   S25       1.0  0.615533939413886  0.17761069572668475  0.06338194905472383  1.0000
  S   S26       1.0  0.6450199392636738  0.22268641843146028  0.12575893258325108  1.0000
  Fe  Fe14      1.0  0.6626767633634446  0.13094918330410585  0.10337612455525634  1.0000
  S   S27       1.0  0.6338864732326831  0.14314945576625557  0.528789858422584  1.0000
  S   S28       1.0  0.6526553376205885  0.10221962055289575  0.6076133815791013  1.0000
  Fe  Fe15      1.0  0.6471548333077427  0.18117158992186977  0.539962532083327  1.0000
  S   S29       1.0  0.6738224500084078  0.1963016797652658  0.5040369976541476  1.0000
  Fe  Fe16      1.0  0.608675966685537  0.14263176835827393  0.0903566346791005  1.0000
  S   S30       1.0  0.5702935538249608  0.1295467870045619  0.09457826478681394  1.0000
  S   S31       1.0  0.6745102539427429  0.16489992708006598  0.07736507186255923  1.0000
  S   S32       1.0  0.6333443686018023  0.15102657732207614  0.1334642330343242  1.0000
  Fe  Fe17      1.0  0.9569158065944426  0.6626743913925419  0.110665876417341  1.0000
  S   S33       1.0  0.9329398611475719  0.6398455278195296  0.07821193678450214  1.0000
  S   S34       1.0  0.9505799253873471  0.6740973734485987  0.16367985178389274  1.0000
  Fe  Fe18      1.0  0.9915080242092739  0.6736287413809502  0.05548836865016593  1.0000
  S   S35       1.0  0.9515772210021847  0.6130855275164204  0.5118503869428945  1.0000
  S   S36       1.0  0.007527348923344945  0.5983755443908333  0.5656557757251813  1.0000
  Fe  Fe19      1.0  0.9455354997401941  0.6541894925806047  0.5085072938013072  1.0000
  S   S37       1.0  0.9545814313917503  0.6680170272088678  0.45821536856470485  1.0000
  Fe  Fe20      1.0  0.9683489295115532  0.6242064197206562  0.05678484885652547  1.0000
  S   S38       1.0  0.9765635712059121  0.5848880999767736  0.04085516203573692  1.0000
  S   S39       1.0  0.9577124201986645  0.6940665081342587  0.07505906667575901  1.0000
  S   S40       1.0  0.9921101140746037  0.6437192487154334  0.09340275435662913  1.0000
  Fe  Fe21      1.0  0.8914590866051658  0.49574131024442186  0.03483558979810586  1.0000
  S   S41       1.0  0.9239965181663445  0.4954034229655178  0.06948500068448463  1.0000
  S   S42       1.0  0.8797656163097258  0.5311485421358254  0.009366773877120815  1.0000
  Fe  Fe22      1.0  0.8948489782217771  0.4312796715795051  0.5694389364145019  1.0000
  S   S43       1.0  0.9176457847895273  0.4354788363813603  0.07614251460414934  1.0000
  S   S44       1.0  0.8626370880320651  0.4215330541251217  0.537079587604017  1.0000
  Fe  Fe23      1.0  0.9020733222328527  0.470525061827326  0.10037122204072443  1.0000
  S   S45       1.0  0.9030654124143727  0.4764625725078018  0.1556814568598839  1.0000
  Fe  Fe24      1.0  0.936479285548667  0.4608288226790684  0.04224854348547735  1.0000
  S   S46       1.0  0.9744762815205303  0.45494959425915693  0.02162173788553479  1.0000
  S   S47       1.0  0.8681894688988679  0.47381402865503575  0.06808508874836906  1.0000
  S   S48       1.0  0.9125120895266354  0.4676580539830325  0.5638068783154301  1.0000
  Fe  Fe25      1.0  0.14863818455849523  0.45601946446408087  0.11512630835099742  1.0000
  S   S49       1.0  0.11802236965142505  0.4493616301960746  0.07874170374764627  1.0000
  S   S50       1.0  0.17691338775258422  0.42802455944229895  0.13491630044745345  1.0000
  Fe  Fe26      1.0  0.12807951544381757  0.4792689706234614  0.6205522025309971  1.0000
  S   S51       1.0  0.10544720068637037  0.4647296626363904  0.5789272305473211  1.0000
  S   S52       1.0  0.11512020713034153  0.5139038684199694  0.6471434237524816  1.0000
  Fe  Fe27      1.0  0.09643650701174238  0.47833424641516736  0.10821404181656287  1.0000
  S   S53       1.0  0.05791982079001  0.4748206852910296  0.12704006948596777  1.0000
  Fe  Fe28      1.0  0.14116042904478762  0.45627148292291214  0.5534328010901882  1.0000
  S   S54       1.0  0.14064386664011688  0.4647985461217885  0.49910219166895614  1.0000
  S   S55       1.0  0.1259472526410554  0.4822085142847836  0.14692804144545554  1.0000
  S   S56       1.0  0.1633729318990065  0.47472028726151383  0.5926409530773278  1.0000
  Fe  Fe29      1.0  0.1326077416084597  0.6551921405897578  0.5989759963250783  1.0000
  S   S57       1.0  0.19548393880861398  0.6647772796350705  0.09199224044931105  1.0000
  S   S58       1.0  0.09370519840763779  0.6647979461107607  0.6151052682385405  1.0000
  Fe  Fe30      1.0  0.16729344681806696  0.6449631944810392  0.5416035580106392  1.0000
  S   S59       1.0  0.20123257526325336  0.6448881868106375  0.5735748239749783  1.0000
  S   S60       1.0  0.1689728364717204  0.6347858399082293  0.4875050761858112  1.0000
  Fe  Fe31      1.0  0.17946515334594765  0.6228668378860839  0.6082322954834662  1.0000
  S   S61       1.0  0.1980319683735892  0.5896455131384176  0.6320737414739023  1.0000
  Fe  Fe32      1.0  0.20784991337014014  0.6999262505915618  0.07055406662579547  1.0000
  S   S62       1.0  0.23760393466219792  0.716744892251514  0.10107289700537851  1.0000
  S   S63       1.0  0.14678621544549436  0.6200421884019437  0.5742545559010442  1.0000
  S   S64       1.0  0.15058033108187893  0.6802508048578763  0.5635638179417672  1.0000
  Fe  Fe33      1.0  0.6560955425507564  0.8504753551617102  0.3371207940473838  1.0000
  S   S65       1.0  0.6516116501549881  0.8130843670809443  0.35903585245301173  1.0000
  S   S66       1.0  0.6426713748628285  0.8852291837370574  0.3640813245975337  1.0000
  Fe  Fe34      1.0  0.6723461816097583  0.8286334701981022  0.27082823811615025  1.0000
  S   S67       1.0  0.6681116991408614  0.7893621520031519  0.2869672211039703  1.0000
  S   S68       1.0  0.6865690193549356  0.8347120117241914  0.21963240879426282  1.0000
  Fe  Fe35      1.0  0.633207461742946  0.8042918720341593  0.31063657963737357  1.0000
  S   S69       1.0  0.5972700440623198  0.7852672731479222  0.31404075493233613  1.0000
  Fe  Fe36      1.0  0.6869153435076619  0.8016653826046137  0.33356267580740784  1.0000
  S   S70       1.0  0.7188234277300621  0.7802252079457912  0.35800234526099856  1.0000
  S   S71       1.0  0.6357191083382362  0.8424211820430396  0.2900309972213402  1.0000
  S   S72       1.0  0.693299699875295  0.8402876137894186  0.3160709943893627  1.0000
  Fe  Fe37      1.0  0.41995815641436746  0.8726721263328456  0.2698179137762534  1.0000
  S   S73       1.0  0.4379485597082842  0.8417996391241551  0.239846698655774  1.0000
  S   S74       1.0  0.4028766557042831  0.907620813746024  0.24817723948901443  1.0000
  Fe  Fe38      1.0  0.435022856685865  0.8492232495003921  0.33530861642594256  1.0000
  S   S75       1.0  0.45481180605824834  0.8166636526955253  0.31073509034297037  1.0000
  S   S76       1.0  0.4303274013435468  0.8489575666601876  0.39058648823561587  1.0000
  Fe  Fe39      1.0  0.46912848312839184  0.8446890179435089  0.2762370546644204  1.0000
  S   S77       1.0  0.506882759730764  0.8492248900123579  0.2556729981419877  1.0000
  Fe  Fe40      1.0  0.42174328841926934  0.8166417520110373  0.2768890536127699  1.0000
  S   S78       1.0  0.4068681270933002  0.7790612501657977  0.2647403878684153  1.0000
  S   S79       1.0  0.452230563347983  0.8773894203815289  0.30378465304201  1.0000
  S   S80       1.0  0.40090955658494865  0.8475064338968671  0.30379519100871183  1.0000
  Fe  Fe41      1.0  0.8328676563542721  0.43779925540116293  0.35313697352068707  1.0000
  S   S81       1.0  0.7946452646178626  0.44233355671410207  0.3733635088513678  1.0000
  S   S82       1.0  0.8679521119731416  0.4393027833398582  0.3833408824669792  1.0000
  Fe  Fe42      1.0  0.8145246339847944  0.4285143798035603  0.2829914846590904  1.0000
  S   S83       1.0  0.7748462597295883  0.4320202486687849  0.297626911552437  1.0000
  S   S84       1.0  0.821298933874856  0.420608220966256  0.22909109229482294  1.0000
  Fe  Fe43      1.0  0.7865194975972811  0.4645536912267068  0.32782637711284157  1.0000
  S   S85       1.0  0.763047202070408  0.4998125829576989  0.3269696699125384  1.0000
  Fe  Fe44      1.0  0.7867024332080943  0.40922684249426905  0.34139870083817453  1.0000
  S   S86       1.0  0.767002537638233  0.377664522783365  0.363974066918927  1.0000
  S   S87       1.0  0.8253889976917557  0.46297018059255673  0.3098333381131153  1.0000
  S   S88       1.0  0.8256222225826312  0.40290019327781246  0.3244179689074836  1.0000
  Fe  Fe45      1.0  0.8453811668616145  0.6734460022413314  0.3355789175015527  1.0000
  S   S89       1.0  0.8101058515667111  0.659679750015429  0.35494435012956893  1.0000
  S   S90       1.0  0.8628966284617641  0.7013377206917849  0.36906966301819216  1.0000
  Fe  Fe46      1.0  0.8432732131946751  0.6417412245941523  0.27297285128351984  1.0000
  S   S91       1.0  0.8078579221561342  0.6254859489251722  0.2875832520184411  1.0000
  S   S92       1.0  0.858908398345957  0.6250165024428609  0.2258650740715823  1.0000
  Fe  Fe47      1.0  0.7962620131739077  0.6645475028658185  0.3028880293330699  1.0000
  S   S93       1.0  0.7584524681133089  0.6802599333245818  0.2884556216646925  1.0000
  Fe  Fe48      1.0  0.8251365328151239  0.6223759915063851  0.33786095868467986  1.0000
  S   S94       1.0  0.8286885239803513  0.5884592025768978  0.369540687564527  1.0000
  S   S95       1.0  0.8304785987738106  0.6811954413053006  0.28430489510943807  1.0000
  S   S96       1.0  0.8615733070138769  0.6357163455596533  0.3223282898952591  1.0000
  Fe  Fe49      1.0  0.4296919330326776  0.30323413360740686  0.33749504370963124  1.0000
  S   S97       1.0  0.42892831103915385  0.27191667130549996  0.30076635842310845  1.0000
  S   S98       1.0  0.4652404770456397  0.31330308191597067  0.36207845933917704  1.0000
  Fe  Fe50      1.0  0.37363606252717446  0.3102123908975511  0.3388735602625135  1.0000
  S   S99       1.0  0.36848151073053137  0.27853034612769756  0.30315877247798717  1.0000
  S   S100      1.0  0.3390098792837269  0.32977212564536157  0.3586391527030362  1.0000
  Fe  Fe51      1.0  0.398650895094462  0.25856934777708984  0.33204797126896196  1.0000
  S   S101      1.0  0.40326032099119236  0.21848596023977707  0.3459538743618931  1.0000
  Fe  Fe52      1.0  0.39912498964350007  0.29496836385961944  0.27560541520062465  1.0000
  S   S102      1.0  0.396584281433673  0.3011042478510271  0.22081477823981044  1.0000
  S   S103      1.0  0.4010127187121093  0.2885484051588915  0.37046409536971875  1.0000
  S   S104      1.0  0.4026257806196358  0.3279947024521839  0.3094553843255506  1.0000
  Fe  Fe53      1.0  0.6266745324990189  0.2855315747726259  0.36832937805767896  1.0000
  S   S105      1.0  0.6087070230589094  0.3190616331542072  0.34371041703817673  1.0000
  S   S106      1.0  0.6207678109372224  0.2828735563756848  0.4230768225596793  1.0000
  Fe  Fe54      1.0  0.6470042468068337  0.26416871352048626  0.30381415008406115  1.0000
  S   S107      1.0  0.6306028264160208  0.29591445876900346  0.2748527303562151  1.0000
  S   S108      1.0  0.6685904565893759  0.23260264823000715  0.2785589088963684  1.0000
  Fe  Fe55      1.0  0.6442964279014837  0.31984626940691  0.3161617136201793  1.0000
  S   S109      1.0  0.663708793438908  0.3538639949730038  0.30052666421200547  1.0000
  Fe  Fe56      1.0  0.5969766314278074  0.2916314279994791  0.3051512912266985  1.0000
  S   S110      1.0  0.5609284551478152  0.2892842148771555  0.2774502779381924  1.0000
  S   S111      1.0  0.6631569459133299  0.28826114380690854  0.34352560656365316  1.0000
  S   S112      1.0  0.6123512596420689  0.2579939128514457  0.3315927309634879  1.0000
  Fe  Fe57      1.0  0.2440997891965971  0.5049719173279911  0.3100214375266565  1.0000
  S   S113      1.0  0.2129115189948575  0.4916390466616771  0.339846485699805  1.0000
  S   S114      1.0  0.23801788094797335  0.5420916852815876  0.2850678077786894  1.0000
  Fe  Fe58      1.0  0.27379285129027464  0.455722129277677  0.31683167509192195  1.0000
  S   S115      1.0  0.2448318742379489  0.4384112866754117  0.3467128870632031  1.0000
  S   S116      1.0  0.31058911727133526  0.43699303963277997  0.3042019361239977  1.0000
  Fe  Fe59      1.0  0.21826007710958323  0.4563330836152772  0.3103184151597212  1.0000
  S   S117      1.0  0.18419232258116192  0.4389273884286785  0.2905515713731173  1.0000
  Fe  Fe60      1.0  0.24217370034256472  0.4751173350080411  0.3734857490863463  1.0000
  S   S118      1.0  0.24306967105381969  0.4759318900127552  0.42935380988002836  1.0000
  S   S119      1.0  0.2474077728625144  0.47067702323351535  0.2780226670677238  1.0000
  S   S120      1.0  0.273207430786127  0.49146047201556153  0.3461408545133344  1.0000
  Fe  Fe61      1.0  0.24509788070645344  0.703597823756708  0.36191903436074335  1.0000
  S   S121      1.0  0.28627352068085604  0.7011814104682546  0.35881250478201304  1.0000
  S   S122      1.0  0.229577959956438  0.7131321669595905  0.412000393477815  1.0000
  Fe  Fe62      1.0  0.23884738872532785  0.695511283880223  0.2875493223147668  1.0000
  S   S123      1.0  0.2795259804467836  0.6926729622982097  0.27841976634077925  1.0000
  S   S124      1.0  0.20970364954946003  0.693147732461767  0.24784120808368337  1.0000
  Fe  Fe63      1.0  0.28038743482345224  0.6691099114629574  0.32399801790304633  1.0000
  S   S125      1.0  0.30123793186414316  0.6323722803329473  0.3304840786588967  1.0000
  Fe  Fe64      1.0  0.281233536794299  0.7249715070069952  0.3140432416139024  1.0000
  S   S126      1.0  0.2976257793090027  0.7623125553720794  0.30802443555151215  1.0000
  S   S127      1.0  0.23950802660681295  0.6697267860362419  0.33073220761638367  1.0000
  S   S128      1.0  0.240254845260619  0.7295657937552603  0.31950987162925626  1.0000
  C   C1        1.0  0.28447264724343835  0.607066184482127  0.3165155655070303  1.0000
  C   C2        1.0  0.29103824020204316  0.5830642372042842  0.3274712619072494  1.0000
  C   C3        1.0  0.2768147772448817  0.5629454841604912  0.31821230882581747  1.0000
  C   C4        1.0  0.25617884299678945  0.5667555487193776  0.2975952836528923  1.0000
  C   C5        1.0  0.24981647573299626  0.5907077021525983  0.2863218075467721  1.0000
  C   C6        1.0  0.26385873257032966  0.6108302304140975  0.29584757653396293  1.0000
  H   H1        1.0  0.3070641556994488  0.5800298778959663  0.34327090795783627  1.0000
  H   H2        1.0  0.2819838460842797  0.5444906680550929  0.3267100105701292  1.0000
  H   H3        1.0  0.23386225660600105  0.593739731122646  0.27042377399779094  1.0000
  H   H4        1.0  0.2588253336445615  0.629230176464191  0.2870202541633405  1.0000
  C   C7        1.0  0.33139652987318785  0.3598824772026476  0.34447355360338805  1.0000
  C   C8        1.0  0.30665236056636  0.36851970318468247  0.3438147794954477  1.0000
  C   C9        1.0  0.30001691549907583  0.3920968245028727  0.33124226685087726  1.0000
  C   C10       1.0  0.31815724703338144  0.4073054356631625  0.31984570354619923  1.0000
  C   C11       1.0  0.34290588197264693  0.3987883772323274  0.32093452798917255  1.0000
  C   C12       1.0  0.3495370463443444  0.3751852160144191  0.33334717762317667  1.0000
  H   H5        1.0  0.29253397135594145  0.3567156961498057  0.3523576413307597  1.0000
  H   H6        1.0  0.2808529579224823  0.3983150216760134  0.32987805751037613  1.0000
  H   H7        1.0  0.35703217075833976  0.4105423051097726  0.3122658580583331  1.0000
  H   H8        1.0  0.3687032363989913  0.36886900020794344  0.33429893847010683  1.0000
  C   C13       1.0  0.491747759787717  0.3066097112134932  0.3383672233798901  1.0000
  C   C14       1.0  0.4898685290387091  0.3009565293556391  0.30459289225614383  1.0000
  C   C15       1.0  0.5112170969154791  0.2956378910042459  0.2860896194083013  1.0000
  C   C16       1.0  0.53452148737884  0.29599397408238953  0.3012523195505353  1.0000
  C   C17       1.0  0.5364334368624335  0.3015675794171738  0.3350187981990906  1.0000
  C   C18       1.0  0.515071162774531  0.3069568575824747  0.3535030423522835  1.0000
  H   H9        1.0  0.4720181364250319  0.30129414985964675  0.2925788755180676  1.0000
  H   H10       1.0  0.5097028824434671  0.2916764954090619  0.25990468500419844  1.0000
  H   H11       1.0  0.5543519489099811  0.3019436290715369  0.34687339006730156  1.0000
  H   H12       1.0  0.516639857232364  0.31149740872367704  0.3795498068677249  1.0000
  C   C19       1.0  0.7392440271605757  0.36935854846345356  0.3448777320901046  1.0000
  C   C20       1.0  0.7320024293333119  0.37894762761305767  0.31415735235350145  1.0000
  C   C21       1.0  0.7089728238306253  0.37361670594757174  0.3004885652180717  1.0000
  C   C22       1.0  0.6931105436358539  0.35856081830679953  0.31733656697394635  1.0000
  C   C23       1.0  0.700726094284938  0.3481080884262741  0.3474362865524429  1.0000
  C   C24       1.0  0.7237553863157363  0.3535485375821145  0.3612026346741322  1.0000
  H   H13       1.0  0.7440128539002809  0.39063628425420915  0.3009714967959388  1.0000
  H   H14       1.0  0.7032772853600155  0.3814518526193509  0.27694802559722254  1.0000
  H   H15       1.0  0.6885149040976287  0.33658844069450095  0.3607078431102479  1.0000
  H   H16       1.0  0.7292404117219409  0.34603070076841824  0.38499385930147356  1.0000
  C   C25       1.0  0.7803425952971014  0.5247381744547988  0.34037895694021225  1.0000
  C   C26       1.0  0.7730621280093725  0.5490641875334734  0.33158664358416545  1.0000
  C   C27       1.0  0.787818895132367  0.5688583841346636  0.3404064493295404  1.0000
  C   C28       1.0  0.809485666621356  0.564350292351761  0.35878690970375177  1.0000
  C   C29       1.0  0.8164260476314732  0.5401025816848589  0.36819538713981487  1.0000
  C   C30       1.0  0.8020560792286514  0.5202807475035027  0.3586498022153505  1.0000
  H   H17       1.0  0.7562744957510411  0.5525629562181786  0.31741786300111463  1.0000
  H   H18       1.0  0.7822804293160194  0.5876017897995954  0.33332462101475185  1.0000
  H   H19       1.0  0.833162536955558  0.5365623303124255  0.3824710725452057  1.0000
  H   H20       1.0  0.8077427668698172  0.5015639739794733  0.36563912600794224  1.0000
  C   C31       1.0  0.37593974306844896  0.7743895887033432  0.27420723741096537  1.0000
  C   C32       1.0  0.3597298202576016  0.7944868443403872  0.2816356134722819  1.0000
  C   C33       1.0  0.3357502587719577  0.7903862016478159  0.2918842102769155  1.0000
  C   C34       1.0  0.32774920743714014  0.7661862479350043  0.29454261295351186  1.0000
  C   C35       1.0  0.343647122328466  0.7460028326722723  0.28621447400395866  1.0000
  C   C36       1.0  0.3677283679297104  0.7501395579703599  0.27592732054072144  1.0000
  H   H21       1.0  0.3656871743331631  0.813217053722851  0.2796598484731398  1.0000
  H   H22       1.0  0.3234170477613482  0.8060649509580439  0.2980602970857332  1.0000
  H   H23       1.0  0.33749767251301627  0.7272744050924184  0.2879821943568056  1.0000
  H   H24       1.0  0.3801908437557708  0.7345184096765187  0.26995010656263024  1.0000
  C   C37       1.0  0.7290852541838024  0.7515649266252147  0.34020465219016005  1.0000
  C   C38       1.0  0.7529459169320781  0.7418902505719248  0.34740172751163934  1.0000
  C   C39       1.0  0.7620271261600977  0.7197725934622545  0.33211676218329805  1.0000
  C   C40       1.0  0.7472009774222401  0.7071449673748357  0.3096505687041899  1.0000
  C   C41       1.0  0.7232085903538038  0.716609355665945  0.30286662185376817  1.0000
  C   C42       1.0  0.7141577388314309  0.7387078125218475  0.3181459953947585  1.0000
  H   H25       1.0  0.7645653529268651  0.751681718265783  0.36455778411561607  1.0000
  H   H26       1.0  0.7805596662563908  0.7126321035130682  0.33750866710787675  1.0000
  H   H27       1.0  0.7115791012512097  0.7067895296663363  0.28575763189788367  1.0000
  H   H28       1.0  0.6955463643084504  0.7456361150224896  0.3130879755485471  1.0000
  C   C43       1.0  0.5719243096454896  0.8016266314645693  0.29594263580953767  1.0000
  C   C44       1.0  0.5753951607614385  0.8195103644010847  0.2719796890079559  1.0000
  C   C45       1.0  0.5552408835437755  0.8338598367974914  0.2596635919547519  1.0000
  C   C46       1.0  0.5314747318402717  0.8303443829435008  0.2711407423437104  1.0000
  C   C47       1.0  0.5278433696620068  0.8121222562049422  0.29465167441894524  1.0000
  C   C48       1.0  0.5480470142090578  0.7976329148641803  0.306832722891382  1.0000
  H   H29       1.0  0.5935531759706815  0.82205978345989  0.26250268855298575  1.0000
  H   H30       1.0  0.5581293939209323  0.8477065103566975  0.24117278126253702  1.0000
  H   H31       1.0  0.509521289355004  0.8091177025502627  0.30333010140804373  1.0000
  H   H32       1.0  0.545215132085467  0.7835320609229397  0.32499875219213054  1.0000
  C   C49       1.0  0.21145696944671238  0.6918719663539781  0.4319056304215344  1.0000
  C   C50       1.0  0.20041700509016175  0.6726912551175867  0.4144533863009001  1.0000
  C   C51       1.0  0.18696324776064402  0.6553281508623261  0.4314804759778099  1.0000
  C   C52       1.0  0.18455971337439964  0.6571979323751865  0.46592466572691044  1.0000
  C   C53       1.0  0.19532580831730825  0.6765778999111857  0.48319498026881647  1.0000
  C   C54       1.0  0.20866740903196096  0.6938955227041831  0.46620076379662356  1.0000
  H   H33       1.0  0.20208662854146608  0.6713983453974716  0.3878760950635199  1.0000
  H   H34       1.0  0.17845294758548505  0.6404777409253104  0.4180117087241093  1.0000
  H   H35       1.0  0.1935113921179337  0.6782306346558276  0.5097363930482229  1.0000
  H   H36       1.0  0.21706952835001733  0.7087939816102069  0.4797626516388527  1.0000
  C   C55       1.0  0.23023999867952052  0.711703651376169  0.14237739795757673  1.0000
  C   C56       1.0  0.24878562170099117  0.7050877923085143  0.16532278337940842  1.0000
  C   C57       1.0  0.24269290609609448  0.6999676162685918  0.1980752324534087  1.0000
  C   C58       1.0  0.2180749362238291  0.7015350046539456  0.20792579284171306  1.0000
  C   C59       1.0  0.1996097014780853  0.7084963472402471  0.18505105064141855  1.0000
  C   C60       1.0  0.20565727846530055  0.7134011383518933  0.1522757840872046  1.0000
  H   H37       1.0  0.2677655795512557  0.7033074384691301  0.15749836143853727  1.0000
  H   H38       1.0  0.2569530288310368  0.6939542741984288  0.21530777361291392  1.0000
  H   H39       1.0  0.18051093720398195  0.7095858455578004  0.1924683104527716  1.0000
  H   H40       1.0  0.19123561514395004  0.7184384062801624  0.13460873453568392  1.0000
  C   C61       1.0  0.1693676362248124  0.4665382761799418  0.4799490421829869  1.0000
  C   C62       1.0  0.1913065111412388  0.46536937039611836  0.4984049878442617  1.0000
  C   C63       1.0  0.21389078225407354  0.4683139656805671  0.48269333501871875  1.0000
  C   C64       1.0  0.2146366214875601  0.4719195339172279  0.4484398143320139  1.0000
  C   C65       1.0  0.19272724964332835  0.47258873197940304  0.4299741537515465  1.0000
  C   C66       1.0  0.17013085604616687  0.4701299316383779  0.4457496443931433  1.0000
  H   H41       1.0  0.19087698496237884  0.46244925699694406  0.5247927081630868  1.0000
  H   H42       1.0  0.2308032833520428  0.4676961703663645  0.4970861796503464  1.0000
  H   H43       1.0  0.19311949993971597  0.4752481938643259  0.40356534009888956  1.0000
  H   H44       1.0  0.15322262657246355  0.471034334867267  0.43134317356736585  1.0000
  C   C67       1.0  0.17892959766702468  0.42963689529745835  0.1782652157951247  1.0000
  C   C68       1.0  0.157604040487502  0.4325370685643302  0.19719580590954444  1.0000
  C   C69       1.0  0.15941623322594442  0.4347102307956145  0.23174889732245255  1.0000
  C   C70       1.0  0.18253531797467026  0.43452249679103283  0.2474505230132538  1.0000
  C   C71       1.0  0.20387776981412248  0.4315050466129594  0.22853503546345313  1.0000
  C   C72       1.0  0.20206358680170503  0.4287913163943952  0.19400081934831767  1.0000
  H   H45       1.0  0.13967868419669688  0.43297058393081117  0.18523215724076314  1.0000
  H   H46       1.0  0.142857315050391  0.43692802884095755  0.24629709426841506  1.0000
  H   H47       1.0  0.22175614703800764  0.4309304671672943  0.2405537610339606  1.0000
  H   H48       1.0  0.21859712333059853  0.4264454674256844  0.17945386317046808  1.0000
  C   C73       1.0  0.13833029130951302  0.5351185736259367  0.6467641048609483  1.0000
  C   C74       1.0  0.16357107000790927  0.590197871227394  0.10681271106546297  1.0000
  C   C75       1.0  0.15066208562587352  0.5774665984506188  0.6422909244323748  1.0000
  C   C76       1.0  0.17531506934076493  0.5689573615323037  0.6405087499751667  1.0000
  C   C77       1.0  0.18159306875243467  0.543627790753433  0.6432084097371039  1.0000
  C   C78       1.0  0.1630490493966567  0.5266747702470495  0.6460699549660893  1.0000
  H   H49       1.0  0.15094798792046296  0.5994396794911537  0.1240063120196728  1.0000
  H   H50       1.0  0.17035627691458535  0.6235252828334172  0.08109283628854777  1.0000
  H   H51       1.0  0.20069247931132034  0.537078887819009  0.6419582448796868  1.0000
  H   H52       1.0  0.16787402151664657  0.507083912658018  0.6477612113754426  1.0000
  C   C79       1.0  0.8782078670277886  0.4650085067510231  0.17719325132316754  1.0000
  C   C80       1.0  0.8802712482239314  0.4613068596490289  0.21137968027886794  1.0000
  C   C81       1.0  0.8620402225586141  0.44894020646977695  0.22811412268363804  1.0000
  C   C82       1.0  0.8417755345113919  0.4402695288799171  0.2105819877793859  1.0000
  C   C83       1.0  0.8390133507639245  0.4453405964887233  0.17687151023181208  1.0000
  C   C84       1.0  0.8571652785058389  0.4577073115972484  0.16020079120896405  1.0000
  H   H53       1.0  0.8965252460667972  0.4669543848643783  0.22464396385184252  1.0000
  H   H54       1.0  0.8643027089900127  0.4450064268158895  0.25416743046693396  1.0000
  H   H55       1.0  0.8230713828994278  0.4391074882318576  0.1634289366949  1.0000
  H   H56       1.0  0.8551967225740377  0.46088551517432785  0.1340117088718432  1.0000
  C   C85       1.0  0.8645358690976688  0.429756389110564  0.49531526368991347  1.0000
  C   C86       1.0  0.8872834088773256  0.4304713037036068  0.4796546730209535  1.0000
  C   C87       1.0  0.8881689757390584  0.4343133630006218  0.44537674596744276  1.0000
  C   C88       1.0  0.8663620723811276  0.43770848887534847  0.4267412215290423  1.0000
  C   C89       1.0  0.8436943045724271  0.43813593804297807  0.44275440526610255  1.0000
  C   C90       1.0  0.8427875703594767  0.43398213542835584  0.47690498501369327  1.0000
  H   H57       1.0  0.9041522083214609  0.42726382534097246  0.493744759866322  1.0000
  H   H58       1.0  0.9057793154222431  0.4340996958721687  0.4331560639058463  1.0000
  H   H59       1.0  0.8268568475996105  0.44134605729372656  0.42884293758760017  1.0000
  H   H60       1.0  0.8251879068637205  0.4339048042614758  0.4891073570643231  1.0000
  C   C91       1.0  0.9981780419980947  0.4582800622582248  0.05094600358605361  1.0000
  C   C92       1.0  0.01139251424603227  0.4148937109700127  0.5696575225625952  1.0000
  C   C93       1.0  0.033366035520045134  0.40306269577546594  0.5811783886133857  1.0000
  C   C94       1.0  0.03578837864196971  0.46654427630195994  0.09746978007412592  1.0000
  C   C95       1.0  0.040816664578932293  0.46704148593387024  0.06367935176711015  1.0000
  C   C96       1.0  0.022029797048322752  0.4627694565960299  0.04043834981789174  1.0000
  H   H61       1.0  0.9970846786448527  0.40407781004108445  0.5586186546730912  1.0000
  H   H62       1.0  0.03600909946929432  0.3830934674804565  0.5789646157264574  1.0000
  H   H63       1.0  0.05902270753098592  0.4711855236100409  0.05544147901612728  1.0000
  H   H64       1.0  0.025849129425404627  0.46351186127429483  0.014286263358817441  1.0000
  C   C97       1.0  0.9285052337077108  0.6763387001796356  0.4340564993041082  1.0000
  C   C98       1.0  0.9254942376578399  0.6656384145366606  0.40257550198414627  1.0000
  C   C99       1.0  0.9048790387182778  0.6725019293356185  0.3828608669539093  1.0000
  C   C100      1.0  0.8877345762579916  0.6907527648292833  0.39414340225217925  1.0000
  C   C101      1.0  0.8907630950496294  0.7013840247281353  0.42564615811278517  1.0000
  C   C102      1.0  0.9108960753830476  0.6939214787177627  0.4457938993320656  1.0000
  H   H65       1.0  0.939134908773121  0.6520908091133003  0.39337828862866486  1.0000
  H   H66       1.0  0.902779609756049  0.6644409938821031  0.35843097222946846  1.0000
  H   H67       1.0  0.8775654571238439  0.715567666706612  0.43437600558892625  1.0000
  H   H68       1.0  0.9131872360211262  0.7023319543989389  0.4699986355133892  1.0000
  C   C103      1.0  0.9263813736402058  0.6593173620520213  0.18261955442337544  1.0000
  C   C104      1.0  0.9170553955455153  0.637852127765477  0.16853016621290573  1.0000
  C   C105      1.0  0.8966348929412887  0.6271719912347102  0.18247687716088165  1.0000
  C   C106      1.0  0.8855138172457881  0.6378414202369328  0.21066356315362447  1.0000
  C   C107      1.0  0.8951109091164609  0.6590252057650297  0.22522185679179013  1.0000
  C   C108      1.0  0.9155707132363367  0.6697328777010392  0.21120140788668287  1.0000
  H   H69       1.0  0.92563768201047  0.6293690427051903  0.146999507595761  1.0000
  H   H70       1.0  0.8893385970910921  0.6106795672826406  0.17130764405562962  1.0000
  H   H71       1.0  0.8866018641682335  0.6673158426923896  0.247033654470264  1.0000
  H   H72       1.0  0.9227725892893097  0.6863020477080002  0.22227959129660171  1.0000
  C   C109      1.0  0.9501414159509285  0.5716008886035808  0.02454750580517362  1.0000
  C   C110      1.0  0.9512040335070125  0.546556192575429  0.015122343649981664  1.0000
  C   C111      1.0  0.9294908132143399  0.534585867421598  0.007833272373454658  1.0000
  C   C112      1.0  0.9067048939338859  0.5475989173996463  0.01008010800586612  1.0000
  C   C113      1.0  0.9057447984703116  0.5731374879979657  0.016607405349021276  1.0000
  C   C114      1.0  0.9275519100393124  0.5851842616413597  0.023547616381536685  1.0000
  H   H73       1.0  0.9686550501389444  0.536088750513443  0.014533677475510267  1.0000
  H   H74       1.0  0.9303750603750343  0.5149570534786492  0.0018527701903205964  1.0000
  H   H75       1.0  0.8763068264802683  0.505119882306296  0.5769009625205582  1.0000
  H   H76       1.0  0.8747451712374433  0.5363884605630843  0.5326091037358482  1.0000
  C   C115      1.0  0.03152446653793617  0.6159729753278074  0.5813098040658626  1.0000
  C   C116      1.0  0.026342590343359618  0.6385173280696658  0.5977789475154647  1.0000
  C   C117      1.0  0.04565228290204226  0.6529728046021405  0.6088785528000321  1.0000
  C   C118      1.0  0.07020120003810693  0.6451914120154404  0.603033840545218  1.0000
  C   C119      1.0  0.07770142846164643  0.6638858220601982  0.10207791351431339  1.0000
  C   C120      1.0  0.05524889658848875  0.6683571152936021  0.08529849455291322  1.0000
  H   H77       1.0  0.00746801178378087  0.6447584976560642  0.602245034369623  1.0000
  H   H78       1.0  0.04156352965361032  0.6704417066429899  0.6215903392727335  1.0000
  H   H79       1.0  0.07902750538544825  0.6506103173263909  0.12192807823064941  1.0000
  H   H80       1.0  0.03948415260187055  0.6584589134737837  0.09228472563822245  1.0000
  C   C121      1.0  0.6615214758540261  0.22214160395903035  0.48238724268285404  1.0000
  C   C122      1.0  0.6448430743721114  0.23899201611328438  0.4976846855870013  1.0000
  C   C123      1.0  0.6334905732847589  0.258401134007991  0.4795392699647935  1.0000
  C   C124      1.0  0.6384095092699189  0.26082973912254553  0.44587723993611705  1.0000
  C   C125      1.0  0.6555613528501664  0.24437484894148145  0.43062555793195506  1.0000
  C   C126      1.0  0.6672924479940423  0.22516492651991193  0.4490020843222678  1.0000
  H   H81       1.0  0.640792755761594  0.23716256896205298  0.5236034656840334  1.0000
  H   H82       1.0  0.6203627226988138  0.2712119202319721  0.4914508310084263  1.0000
  H   H83       1.0  0.6593925158631821  0.24613613351536098  0.4046072856109537  1.0000
  H   H84       1.0  0.6802282896786471  0.21214894354073482  0.43711699954603317  1.0000
  C   C127      1.0  0.6550256742623002  0.22527353489826785  0.16705293156283804  1.0000
  C   C128      1.0  0.6533428554165815  0.24861963529145706  0.18253409851971458  1.0000
  C   C129      1.0  0.6579918740568124  0.25103387967409596  0.21652155206822102  1.0000
  C   C130      1.0  0.6647168850657501  0.23016755418378615  0.2353014151310416  1.0000
  C   C131      1.0  0.6679165976911681  0.20696696038345452  0.21944217133722083  1.0000
  C   C132      1.0  0.6629469336181922  0.20446863996305342  0.18535262073504025  1.0000
  H   H85       1.0  0.6476525654146561  0.26482406832615507  0.16834122028919307  1.0000
  H   H86       1.0  0.6563193020443123  0.2691233623525017  0.2278989148565318  1.0000
  H   H87       1.0  0.6734919227217677  0.19075509363524126  0.2336737880467518  1.0000
  H   H88       1.0  0.6646968118042791  0.18640550020245908  0.17345402008981275  1.0000
  C   C133      1.0  0.37517876291557134  0.20160765060227578  0.44869041792786035  1.0000
  C   C134      1.0  0.3626676874002639  0.21963822242302217  0.42935135260821794  1.0000
  C   C135      1.0  0.3712687077929708  0.22507550356935366  0.39776817197299325  1.0000
  C   C136      1.0  0.39198635768491813  0.21195481263537463  0.3851606288850089  1.0000
  C   C137      1.0  0.404272105152849  0.19371586298247215  0.40434272276964917  1.0000
  C   C138      1.0  0.396123184200808  0.18882650716720276  0.4362672017803357  1.0000
  H   H89       1.0  0.34642891832000366  0.22953921360356538  0.4388461152455459  1.0000
  H   H90       1.0  0.3616960277906187  0.23914273658676768  0.382974361006281  1.0000
  H   H91       1.0  0.4202108415474114  0.18345544941309944  0.3945490875888908  1.0000
  H   H92       1.0  0.40559182803874383  0.17459626711163714  0.4508173607739912  1.0000
  C   C139      1.0  0.3893418789061135  0.27454580890754016  0.19800026790153738  1.0000
  C   C140      1.0  0.3880383026182288  0.2756873575663411  0.1634820840716847  1.0000
  C   C141      1.0  0.3845662312033918  0.25409889850184164  0.1446336666392116  1.0000
  C   C142      1.0  0.3823533885543338  0.23135018574312435  0.16028605256532807  1.0000
  C   C143      1.0  0.3823913624724015  0.23046312762230348  0.1948807263927353  1.0000
  C   C144      1.0  0.3860327512192113  0.2520406263747164  0.21376321790583286  1.0000
  H   H93       1.0  0.3904007962483751  0.29311860791033106  0.1512296001475942  1.0000
  H   H94       1.0  0.3838537163381546  0.2549933809982096  0.11796193599672278  1.0000
  H   H95       1.0  0.3804921323398686  0.2129057589335715  0.20705033563217262  1.0000
  H   H96       1.0  0.3869116839178246  0.2510507608409882  0.24043990793537195  1.0000
  C   C145      1.0  0.5175963281539804  0.19772363356551578  0.10066018417586578  1.0000
  C   C146      1.0  0.5096750442830219  0.17533965708274465  0.0874537956171678  1.0000
  C   C147      1.0  0.5258117827542497  0.15437687106725842  0.08598452762926546  1.0000
  C   C148      1.0  0.5501373107671047  0.15581726890686443  0.09712775241547025  1.0000
  C   C149      1.0  0.5583372704138212  0.17837179000876172  0.10961971156724813  1.0000
  C   C150      1.0  0.5420240625778777  0.19932174342245845  0.11139235908975462  1.0000
  H   H97       1.0  0.48124641811360214  0.18720963683249545  0.49018752868584  1.0000
  H   H98       1.0  0.5161675704999352  0.1572123103731571  0.47949000990280227  1.0000
  H   H99       1.0  0.5772179459820374  0.17964044409226737  0.11795379949835334  1.0000
  H   H100      1.0  0.5483652749908452  0.216846765165855  0.12045102782763449  1.0000
  C   C151      1.0  0.45518185452649346  0.9170010450209407  0.44805401920244653  1.0000
  C   C152      1.0  0.46182042136443063  0.9135186349109162  0.41492998988997815  1.0000
  C   C153      1.0  0.4541550135919074  0.8927302737763838  0.3970609257343779  1.0000
  C   C154      1.0  0.43992920487556103  0.8753118455056931  0.4123087412028206  1.0000
  C   C155      1.0  0.43340264223653957  0.8787834803694871  0.44552726262970344  1.0000
  C   C156      1.0  0.44090094597138363  0.8996751601887047  0.4633564124872493  1.0000
  H   H101      1.0  0.47288374197524574  0.9268818201098867  0.4030161443267183  1.0000
  H   H102      1.0  0.4595091359491876  0.8900592827160925  0.37163968861801877  1.0000
  H   H103      1.0  0.4224562920012379  0.8653295291715096  0.45747838323252304  1.0000
  H   H104      1.0  0.43575191358533727  0.9022184229969317  0.48897676495849524  1.0000
  C   C157      1.0  0.4075228530527373  0.9093156022371988  0.20557112493049243  1.0000
  C   C158      1.0  0.40735742386436297  0.8880342623947346  0.18547971596427082  1.0000
  C   C159      1.0  0.4114128336951501  0.8897643806285308  0.15141765480895986  1.0000
  C   C160      1.0  0.41635676399111166  0.9126254777175925  0.13757019453888852  1.0000
  C   C161      1.0  0.4165893228932055  0.9338629256197187  0.15778974609884402  1.0000
  C   C162      1.0  0.41181700867352616  0.9322717654651324  0.1916084033585743  1.0000
  H   H105      1.0  0.40354834169185183  0.870329947691554  0.19606805842490005  1.0000
  H   H106      1.0  0.41090732926909823  0.873299750554883  0.13587426673782743  1.0000
  H   H107      1.0  0.4202038202810565  0.9516025514101591  0.14762136515926708  1.0000
  H   H108      1.0  0.4119414230943894  0.9487563840335524  0.20715918207234107  1.0000
  C   C163      1.0  0.4212976118780323  0.06422835866273502  0.06505077010572768  1.0000
  C   C164      1.0  0.39821400679649466  0.067366118358167  0.5403723997764946  1.0000
  C   C165      1.0  0.41153623833333297  0.08883787309688956  0.5456056139448339  1.0000
  C   C166      1.0  0.43408412629530135  0.08730248604556196  0.5627072214468244  1.0000
  C   C167      1.0  0.4224157671144792  0.10930278816442392  0.06566974672514037  1.0000
  C   C168      1.0  0.41489145008884315  0.08727101770758461  0.07977906127913334  1.0000
  H   H109      1.0  0.3809392454092679  0.06850858364978074  0.5268072468708298  1.0000
  H   H110      1.0  0.40455386611930255  0.10645155444541178  0.5359996449230621  1.0000
  H   H111      1.0  0.41759530176698867  0.12704101237340423  0.07726702027380836  1.0000
  H   H112      1.0  0.40431432384215754  0.08807928948983101  0.1022986604721322  1.0000
  C   C169      1.0  0.6634458218619755  0.9101124204478543  0.17586847799621028  1.0000
  C   C170      1.0  0.675792853431296  0.8919349038826321  0.15648024189506346  1.0000
  C   C171      1.0  0.6829248854600225  0.8688555735137289  0.17014339053986732  1.0000
  C   C172      1.0  0.6776670438084121  0.8638458588607115  0.20316154540575942  1.0000
  C   C173      1.0  0.665488499513163  0.8821080094121871  0.2226116553314406  1.0000
  C   C174      1.0  0.658395767994541  0.9052138088230025  0.20897273144900647  1.0000
  H   H113      1.0  0.6797878449612276  0.8955693867605903  0.13091764435543993  1.0000
  H   H114      1.0  0.6923482747195445  0.8548057283029128  0.1550039046317228  1.0000
  H   H115      1.0  0.6615883077217434  0.8784829537647179  0.24818644583411523  1.0000
  H   H116      1.0  0.6488850937651159  0.9192204334439498  0.22407829788293263  1.0000
  C   C175      1.0  0.6682189269970373  0.8903614911172545  0.4716773466834035  1.0000
  C   C176      1.0  0.6506126895207474  0.9076527606566702  0.4592325156793941  1.0000
  C   C177      1.0  0.6430531628319547  0.9061362358800027  0.4259826076557304  1.0000
  C   C178      1.0  0.6528902288946665  0.8872056964840582  0.40528252667968745  1.0000
  C   C179      1.0  0.6702729587354178  0.8697725601849381  0.4178414556730194  1.0000
  C   C180      1.0  0.6780560626051911  0.8714731211264568  0.4509466738766223  1.0000
  H   H117      1.0  0.6431630997344213  0.922418137752779  0.47502287215344063  1.0000
  H   H118      1.0  0.6296573404374771  0.919687552783837  0.41623670250522676  1.0000
  H   H119      1.0  0.6779376594537291  0.8551282136007547  0.40197408511279975  1.0000
  H   H120      1.0  0.6916853113564834  0.8580600774992639  0.4604902646069319  1.0000
  C   C181      1.0  0.55651864236956  0.9168919736104915  0.6205570586962567  1.0000
  C   C182      1.0  0.5328855433356957  0.9087328766193281  0.6144184756288542  1.0000
  C   C183      1.0  0.5125060404694806  0.9254379295875796  0.6170368863299353  1.0000
  C   C184      1.0  0.51567149182759  0.9501079185218806  0.6264895040615975  1.0000
  C   C185      1.0  0.539123214575517  0.9577560538168022  0.6349854673885509  1.0000
  C   C186      1.0  0.5595713353090164  0.9411884534688538  0.6317432827796886  1.0000
  H   H121      1.0  0.6058055668738328  0.9539134479904622  0.07889880428595983  1.0000
  H   H122      1.0  0.5722974452031717  0.9634156616201662  0.11844254886013884  1.0000
  H   H123      1.0  0.5416276486235972  0.9767445087914717  0.6428625930740937  1.0000
  H   H124      1.0  0.5776573205611801  0.9473818385429866  0.6375778296897879  1.0000
  C   C187      1.0  0.708613976663138  0.031007913311761115  0.07498828775789525  1.0000
  C   C188      1.0  0.7274037438599557  0.0443734572036365  0.08954132378060686  1.0000
  C   C189      1.0  0.7218980985223893  0.06708017154933106  0.10551512296326183  1.0000
  C   C190      1.0  0.6976398374810455  0.0768621800386093  0.10637901390603903  1.0000
  C   C191      1.0  0.6787114152667897  0.06355777319155077  0.09184538347501701  1.0000
  C   C192      1.0  0.6841843447628478  0.040455165383630476  0.07636964814958704  1.0000
  H   H125      1.0  0.7463145075235817  0.037177032716433356  0.08834540394344653  1.0000
  H   H126      1.0  0.7365451476321263  0.07727185421970525  0.1168512672870574  1.0000
  H   H127      1.0  0.6641095137771842  0.05100783115907494  0.6226815754503957  1.0000
  H   H128      1.0  0.6696448638975994  0.030285085238433762  0.06478317226214791  1.0000
  Fe  Fe65      1.0  0.6877134012048944  0.9171677151199922  0.04537191154349629  1.0000
  S   S129      1.0  0.6496935130578707  0.9164202919992582  0.06610928221527357  1.0000
  S   S130      1.0  0.7048618020823033  0.8808073660070865  0.0275446460434543  1.0000
  Fe  Fe66      1.0  0.6311854485606292  0.9667354508212114  0.5663087770298988  1.0000
  S   S131      1.0  0.6248126022491307  0.9550690638643929  0.6184160143616158  1.0000
  S   S132      1.0  0.6143736527338377  0.0023949091644954734  0.545686134666443  1.0000
  Fe  Fe67      1.0  0.6632497204867575  0.9381615643554776  0.6162358448986777  1.0000
  S   S133      1.0  0.6891235779875824  0.9382574703527885  0.6600029932140881  1.0000
  Fe  Fe68      1.0  0.6423857823951444  0.9511374520861237  0.037288330100162526  1.0000
  S   S134      1.0  0.6072808923310945  0.9558555215439474  0.007742472406493839  1.0000
  S   S135      1.0  0.6710592594148277  0.9534597826793475  0.5662470055102523  1.0000
  S   S136      1.0  0.6792613183822491  0.9500565638782007  0.013090408439293322  1.0000
  Fe  Fe69      1.0  0.48557233454172505  0.9770724478528252  0.08166988565666622  1.0000
  S   S137      1.0  0.47277322814343614  0.004354844021093651  0.04325962996978383  1.0000
  S   S138      1.0  0.5214129993303445  0.9783375493513848  0.10875182335598921  1.0000
  Fe  Fe70      1.0  0.4183779524460888  0.9292552629495  0.5778406880110135  1.0000
  S   S139      1.0  0.4224805217064271  0.9721615015652775  0.03752343203329045  1.0000
  S   S140      1.0  0.4014418485081127  0.89548731017351  0.5980355452516465  1.0000
  Fe  Fe71      1.0  0.46027175006088533  0.9705906595772261  0.015850946493777718  1.0000
  S   S141      1.0  0.46772073466535385  0.9656995430339864  0.9617432412163204  1.0000
  Fe  Fe72      1.0  0.4363181609818226  0.003527742940893086  0.06845655153432961  1.0000
  S   S142      1.0  0.3913519237744154  0.017354980658689456  0.5444213589292677  1.0000
  S   S143      1.0  0.47633592649356216  0.9432948297928281  0.052301011290347255  1.0000
  S   S144      1.0  0.4211332043308148  0.9650098737431765  0.606454685811047  1.0000
  Fe  Fe73      1.0  0.4611403146909539  0.21306790455278274  0.08077271017022936  1.0000
  S   S145      1.0  0.4441534725013985  0.18069848768518937  0.5942615904203865  1.0000
  S   S146      1.0  0.4751725358569421  0.2273537870105145  0.5373231662949698  1.0000
  Fe  Fe74      1.0  0.42162987711576705  0.22455287496605436  0.028596888120571595  1.0000
  S   S147      1.0  0.39986576972810745  0.1920293924135522  0.042555771373459894  1.0000
  S   S148      1.0  0.4059517967736028  0.2497186110131039  0.9887208469188549  1.0000
  Fe  Fe75      1.0  0.40418079718376293  0.1924510335797724  0.5968462894406723  1.0000
  S   S149      1.0  0.3832875841445702  0.20415551514207853  0.6425394249150994  1.0000
  Fe  Fe76      1.0  0.4366049216545685  0.17128244201734177  0.04501496832237595  1.0000
  S   S150      1.0  0.44589209504007377  0.1352679340068618  0.018276551709712097  1.0000
  S   S151      1.0  0.4270656813887675  0.23806280156607967  0.08081957246761329  1.0000
  S   S152      1.0  0.45782513278748077  0.20303391679835725  0.027109813478835232  1.0000
  Fe  Fe77      1.0  0.6151661878361278  0.1881358326067346  0.6008248611650873  1.0000
  S   S153      1.0  0.6095078848576799  0.19892531539567918  0.5476941557506321  1.0000
  S   S154      1.0  0.6010404536868723  0.21083211235604485  0.6444870074113052  1.0000
  Fe  Fe78      1.0  0.6373654358084787  0.1370637256350777  0.5833318973314879  1.0000
  S   S155      1.0  0.6371494050269311  0.11954332230919662  0.06281506414747406  1.0000
  S   S156      1.0  0.691739963106394  0.10548291665642037  0.1263711575988562  1.0000
  Fe  Fe79      1.0  0.6461728545941945  0.15533386706383648  0.03911840879350814  1.0000
  S   S157      1.0  0.6505036715452562  0.1541416191643848  0.9837561822826272  1.0000
  Fe  Fe80      1.0  0.5967822971273355  0.16033641689875758  0.5406859816484613  1.0000
  S   S158      1.0  0.5643312434689857  0.1518052747459711  0.5086827790108501  1.0000
  S   S159      1.0  0.6542083497910552  0.173644044489517  0.5939017888511948  1.0000
  S   S160      1.0  0.5988530938983331  0.15090904687775966  0.594297078699122  1.0000
  Fe  Fe81      1.0  0.9326644355343281  0.65919597793599  0.5810127549644077  1.0000
  S   S161      1.0  0.9094716347352239  0.6550610925982652  0.5350520805568819  1.0000
  S   S162      1.0  0.9199957271529143  0.6842802674332054  0.6229858791763343  1.0000
  Fe  Fe82      1.0  0.9720198695532092  0.6210000793719049  0.5587299965311794  1.0000
  S   S163      1.0  0.9704874628538939  0.6525010394151831  0.01740490209697132  1.0000
  S   S164      1.0  0.024662373082540823  0.6945503181269234  0.04187857488437863  1.0000
  Fe  Fe83      1.0  0.9364907701737971  0.6697258228507438  0.04077147608795495  1.0000
  S   S165      1.0  0.9009524429205078  0.6822456570110141  0.015150353588858634  1.0000
  Fe  Fe84      1.0  0.9177492425597847  0.6144803033683691  0.5426780881959737  1.0000
  S   S166      1.0  0.8892239795825274  0.5866964701450958  0.5319911827424041  1.0000
  S   S167      1.0  0.9682520166272623  0.6623693506476415  0.5537120660906851  1.0000
  S   S168      1.0  0.9387773382159972  0.6183990739821857  0.5903067837572821  1.0000
  Fe  Fe85      1.0  0.9071055649536895  0.4717272704987541  0.6184173372190264  1.0000
  S   S169      1.0  0.9438257855190556  0.45394539367460696  0.6314900449863481  1.0000
  S   S170      1.0  0.8951143995622032  0.5074188800221302  0.6438182700603855  1.0000
  Fe  Fe86      1.0  0.8854086241818845  0.4407426505852487  0.04129463376924236  1.0000
  S   S171      1.0  0.9305699512428803  0.40934026157032816  0.5782471488455856  1.0000
  S   S172      1.0  0.8651651384042606  0.40835709582513924  0.021229185974365405  1.0000
  Fe  Fe87      1.0  0.9239602508835165  0.41858191624716506  0.6319743106349653  1.0000
  S   S173      1.0  0.9343088756477949  0.3917851382438664  0.6724734169244675  1.0000
  Fe  Fe88      1.0  0.9475176708723554  0.44646412145958  0.5772428794856984  1.0000
  S   S174      1.0  0.9826961023556785  0.45608476221670546  0.5529518747924526  1.0000
  S   S175      1.0  0.8867403976702544  0.4369719632764609  0.6234352090917106  1.0000
  S   S176      1.0  0.9056041632264445  0.46306582515804695  0.00522043207699352  1.0000
  Fe  Fe89      1.0  0.16587413899558306  0.4371504262072555  0.6161661638391225  1.0000
  S   S177      1.0  0.14628841756710284  0.4180315700871873  0.5743704704190571  1.0000
  S   S178      1.0  0.2031909497602685  0.4257124195660294  0.6368838031422498  1.0000
  Fe  Fe90      1.0  0.13956531105075948  0.5118310544388832  0.11460813746224541  1.0000
  S   S179      1.0  0.10807671949102837  0.5104984479724609  0.07838423699621178  1.0000
  S   S180      1.0  0.15217813621676937  0.5475021601829378  0.13693417619834802  1.0000
  Fe  Fe91      1.0  0.11196130403077617  0.42795101084824166  0.6031924158939413  1.0000
  S   S181      1.0  0.0803315532839565  0.40241533630802706  0.6065688840886811  1.0000
  Fe  Fe92      1.0  0.13225777057632307  0.4819385587873676  0.05181353815173395  1.0000
  S   S182      1.0  0.13514600941890945  0.48114506696112863  0.9962105734239838  1.0000
  S   S183      1.0  0.13207380912417302  0.4432603233202436  0.6471325213509551  1.0000
  S   S184      1.0  0.164683664567878  0.4859983203216429  0.08570570260131682  1.0000
  Fe  Fe93      1.0  0.15744974378913304  0.6793876429473635  0.07972477305003411  1.0000
  S   S185      1.0  0.16341502191491517  0.6555436374630004  0.6363989305736654  1.0000
  S   S186      1.0  0.12675170325591134  0.6696964782289534  0.11292533705171848  1.0000
  Fe  Fe94      1.0  0.1727554337481188  0.697923558592178  0.01285063458493152  1.0000
  S   S187      1.0  0.21217625529473705  0.684004458553767  0.01903855955715894  1.0000
  S   S188      1.0  0.15385117800186016  0.7142950269695507  0.9680618658854014  1.0000
  Fe  Fe95      1.0  0.1959029234688552  0.6501990162454764  0.040189264520912094  1.0000
  S   S189      1.0  0.20595173618979412  0.6099611208479291  0.030818707851226756  1.0000
  Fe  Fe96      1.0  0.1826689767967628  0.6777492488989163  0.5990956467251292  1.0000
  S   S190      1.0  0.20267013456592675  0.7106910178332541  0.617999447305905  1.0000
  S   S191      1.0  0.15706419767731158  0.662535293259282  0.029144558414220922  1.0000
  S   S192      1.0  0.16943493169315862  0.7163422726792245  0.06299652742901807  1.0000
  Fe  Fe97      1.0  0.69376414835989  0.8519727003611743  0.8491438810562844  1.0000
  S   S193      1.0  0.6720636741870648  0.8254340878339149  0.877524282630689  1.0000
  S   S194      1.0  0.7178092929206573  0.8798732530380009  0.8732670363955265  1.0000
  Fe  Fe98      1.0  0.674907314916105  0.8334157885730311  0.7834037123342641  1.0000
  S   S195      1.0  0.6511539847422488  0.805303133063257  0.8063300031422871  1.0000
  S   S196      1.0  0.6780433817535724  0.8349691462306216  0.7281347771550561  1.0000
  Fe  Fe99      1.0  0.6411826459069092  0.8360007785274643  0.842605411000554  1.0000
  S   S197      1.0  0.6045186395889114  0.8466393095479287  0.8657618401140615  1.0000
  Fe  Fe100     1.0  0.6842012289638911  0.7973372751521526  0.8390535595258019  1.0000
  S   S198      1.0  0.6978484636673722  0.7596801623269851  0.8571514690898763  1.0000
  S   S199      1.0  0.662027954733969  0.8648006296500128  0.8167893840308679  1.0000
  S   S200      1.0  0.7086659658352112  0.8231670865576196  0.8134959329532935  1.0000
  Fe  Fe101     1.0  0.4257627249610817  0.8711608119968988  0.7806090974104479  1.0000
  S   S201      1.0  0.4455504113242355  0.8391208414013887  0.755312299072676  1.0000
  S   S202      1.0  0.4022217350601397  0.9001076375938603  0.7541235815779523  1.0000
  Fe  Fe102     1.0  0.4449591430876743  0.8557759024150468  0.8486224685862744  1.0000
  S   S203      1.0  0.46661326853583535  0.82256059788763  0.8283697444983612  1.0000
  S   S204      1.0  0.44248452375680336  0.8602459926132663  0.9040479121354481  1.0000
  Fe  Fe103     1.0  0.47723742923567386  0.8483088616249124  0.7884549680243681  1.0000
  S   S205      1.0  0.5144677551298822  0.8501444893531246  0.7652471809814254  1.0000
  Fe  Fe104     1.0  0.43272646869665987  0.8167704124534061  0.7975721811132387  1.0000
  S   S206      1.0  0.4179335055870394  0.7790365593351836  0.7876993692211687  1.0000
  S   S207      1.0  0.4583562815331906  0.8821516213379869  0.8110079578914918  1.0000
  S   S208      1.0  0.41028513068127354  0.8482215481998879  0.820328540065957  1.0000
  Fe  Fe105     1.0  0.8027381411825603  0.4371619362066875  0.8594761975266062  1.0000
  S   S209      1.0  0.7754843687526553  0.44436492507082365  0.8182831390372871  1.0000
  S   S210      1.0  0.7915572268122344  0.4490734011984842  0.9106494830140845  1.0000
  Fe  Fe106     1.0  0.8437035575961177  0.42036106386753797  0.8126165384983822  1.0000
  S   S211      1.0  0.819908808023662  0.426580691323734  0.7676884168912272  1.0000
  S   S212      1.0  0.8834433947588277  0.4067947306255464  0.8120379453494985  1.0000
  Fe  Fe107     1.0  0.8069541192455129  0.46177776977196333  0.7937092015301483  1.0000
  S   S213      1.0  0.8020330738635195  0.49848905584060493  0.768131326661634  1.0000
  Fe  Fe108     1.0  0.7909774423099367  0.408412522474518  0.797106763438154  1.0000
  S   S214      1.0  0.7694659609661287  0.378190790256232  0.773124509882421  1.0000
  S   S215      1.0  0.8332362609427266  0.45700380501498217  0.8362822276120712  1.0000
  S   S216      1.0  0.8158275629337483  0.39965588332620955  0.8405869666505764  1.0000
  Fe  Fe109     1.0  0.8631463262923196  0.6588357121098356  0.8352208529742045  1.0000
  S   S217      1.0  0.8253847524931869  0.6642425169176803  0.8566868071892189  1.0000
  S   S218      1.0  0.8998442054012487  0.6623533163567689  0.860479720897991  1.0000
  Fe  Fe110     1.0  0.8436376587998561  0.6410646689622679  0.7683437762117875  1.0000
  S   S219      1.0  0.804440700922306  0.6438177048511181  0.7847082591510564  1.0000
  S   S220      1.0  0.8515610740771579  0.6265679348186761  0.7171252499073396  1.0000
  Fe  Fe111     1.0  0.8146456474221943  0.6803246831682062  0.8070152695748821  1.0000
  S   S221      1.0  0.7949504800478763  0.7155766749512569  0.789580914974587  1.0000
  Fe  Fe112     1.0  0.8189962236048032  0.6273241135141177  0.832093435558118  1.0000
  S   S222      1.0  0.8061816541061874  0.5943828130232623  0.8594523006136754  1.0000
  S   S223      1.0  0.8533517849329384  0.678199888254622  0.7880119918280117  1.0000
  S   S224      1.0  0.857337963201661  0.6212046249184862  0.8135451262899724  1.0000
  Fe  Fe113     1.0  0.46182942975271013  0.3190591356485303  0.8116153629003203  1.0000
  S   S225      1.0  0.4600254557843825  0.28487135568382926  0.780044821343813  1.0000
  S   S226      1.0  0.498471598065918  0.33587580938405454  0.8207326014789553  1.0000
  Fe  Fe114     1.0  0.4066002570380982  0.32081068387641715  0.825493051751078  1.0000
  S   S227      1.0  0.4004800982806386  0.28632654256526074  0.7951425294998731  1.0000
  S   S228      1.0  0.3748584624690449  0.33734852443244434  0.8555776596685133  1.0000
  Fe  Fe115     1.0  0.43538191352590105  0.27136522797905377  0.8191977556529695  1.0000
  S   S229      1.0  0.4417062158190786  0.23367140839484243  0.841656134844558  1.0000
  Fe  Fe116     1.0  0.42559365921511305  0.3032235535215826  0.7589034525094348  1.0000
  S   S230      1.0  0.421463667170073  0.30348509959281095  0.7035642369092943  1.0000
  S   S231      1.0  0.439669087695706  0.3042452128533457  0.8525402015807215  1.0000
  S   S232      1.0  0.42924289190292303  0.3389398887622597  0.7873496488980021  1.0000
  Fe  Fe117     1.0  0.6735916566369059  0.25872094523080474  0.8679044588670813  1.0000
  S   S233      1.0  0.6436001631015191  0.28839078777731003  0.8721585345880778  1.0000
  S   S234      1.0  0.6922310639236724  0.24822972161921578  0.9160790991332375  1.0000
  Fe  Fe118     1.0  0.6696537557693677  0.25740125462810287  0.7927657127990838  1.0000
  S   S235      1.0  0.6395611685151571  0.28732922739686884  0.7910053634389776  1.0000
  S   S236      1.0  0.6842419581665878  0.2400866057896181  0.7457258850992519  1.0000
  Fe  Fe119     1.0  0.6622933474594067  0.3061055235065893  0.8299175116223929  1.0000
  S   S237      1.0  0.6693317983760166  0.3468277783102624  0.8351675544001069  1.0000
  Fe  Fe120     1.0  0.6240815302101093  0.26671982286852913  0.8332325703035417  1.0000
  S   S238      1.0  0.585244454091981  0.2546324781570748  0.8372701454083353  1.0000
  S   S239      1.0  0.6937443414953381  0.2778233601847119  0.8282614077020708  1.0000
  S   S240      1.0  0.6526202982649636  0.235304459104274  0.8322404052672853  1.0000
  Fe  Fe121     1.0  0.25062160255943133  0.4984769056244005  0.826469486542152  1.0000
  S   S241      1.0  0.2203334580199602  0.4782057824830091  0.8496999032581574  1.0000
  S   S242      1.0  0.24038768510264596  0.5359522220279963  0.8049704987619902  1.0000
  Fe  Fe122     1.0  0.28784685935107873  0.4546083913441777  0.8340665153114784  1.0000
  S   S243      1.0  0.26066777630062576  0.4309382962976524  0.8585658684704068  1.0000
  S   S244      1.0  0.3259888945792451  0.44226741831350774  0.8170474801994222  1.0000
  Fe  Fe123     1.0  0.23431047187180165  0.4454978640690909  0.8194526325147762  1.0000
  S   S245      1.0  0.2079310068160143  0.4208955204018065  0.7929278075044898  1.0000
  Fe  Fe124     1.0  0.24928775309997034  0.4658420833427089  0.8865847369420299  1.0000
  S   S246      1.0  0.24333516304411681  0.46751646157031806  0.9416468567310758  1.0000
  S   S247      1.0  0.2620981848447901  0.4667838679049596  0.7929561862050712  1.0000
  S   S248      1.0  0.2789152975828545  0.4884997924732902  0.8654227143131024  1.0000
  Fe  Fe125     1.0  0.24376949315643534  0.7042093289668844  0.8216274640010268  1.0000
  S   S249      1.0  0.2709775865068722  0.7000778902270415  0.863279274684847  1.0000
  S   S250      1.0  0.20309007962549327  0.7122349276593892  0.8270582459014565  1.0000
  Fe  Fe126     1.0  0.2820094945035656  0.6897978385722213  0.769476787270149  1.0000
  S   S251      1.0  0.31234685781753935  0.6844688643339962  0.8072105771007347  1.0000
  S   S252      1.0  0.28887372757648033  0.6783683731210072  0.71668374626208  1.0000
  Fe  Fe127     1.0  0.28412356211098305  0.6653724058541324  0.8365576900537925  1.0000
  S   S253      1.0  0.2926802607703602  0.6294308337421748  0.8632222768124355  1.0000
  Fe  Fe128     1.0  0.29613331684915045  0.7198017761471744  0.8296628809267358  1.0000
  S   S254      1.0  0.31640086257622435  0.7523770982508663  0.8498889199071888  1.0000
  S   S255      1.0  0.2550940668537122  0.6681465141222697  0.7970595295151118  1.0000
  S   S256      1.0  0.2676542733063308  0.7265282134667685  0.7895612243402567  1.0000
  C   C193      1.0  0.2768853468465493  0.6033713881297683  0.849489945811424  1.0000
  C   C194      1.0  0.2866956895267303  0.57947028933618  0.8562663654950533  1.0000
  C   C195      1.0  0.2751793827262679  0.5584984949149442  0.8436616642848712  1.0000
  C   C196      1.0  0.2537288163311619  0.5614040772764751  0.8243905795133779  1.0000
  C   C197      1.0  0.2435032121889958  0.5852538104974141  0.8185411128412512  1.0000
  C   C198      1.0  0.2549743198590019  0.6061404883272404  0.8311785991331575  1.0000
  H   H129      1.0  0.30357846139550504  0.5771367125639231  0.8705873707055078  1.0000
  H   H130      1.0  0.2833443448218749  0.5401789731429346  0.8480698411854307  1.0000
  H   H131      1.0  0.22679895410459636  0.5875794323919409  0.8038612169721826  1.0000
  H   H132      1.0  0.24675133904453753  0.6242956389773966  0.8266149552495207  1.0000
  C   C199      1.0  0.36170724640132285  0.36672601067030747  0.8450632059984267  1.0000
  C   C200      1.0  0.37207065909363046  0.3811402652862722  0.8208822724429018  1.0000
  C   C201      1.0  0.3611940536724666  0.4045170005106156  0.8130533331563901  1.0000
  C   C202      1.0  0.3397903391024766  0.4135300449783322  0.829111815666219  1.0000
  C   C203      1.0  0.32941415644413424  0.39912834063922786  0.8533431164268737  1.0000
  C   C204      1.0  0.3403985468752546  0.3758072251820488  0.861335230000968  1.0000
  H   H133      1.0  0.3885460143977261  0.37440378707064703  0.8083248384812787  1.0000
  H   H134      1.0  0.3693494698369049  0.41561343189872013  0.7943526894496884  1.0000
  H   H135      1.0  0.31305275124485693  0.40602943058548324  0.8660792150685239  1.0000
  H   H136      1.0  0.3323373542063197  0.36477466070280906  0.8801613447847164  1.0000
  C   C205      1.0  0.5226124662112085  0.31351767218249876  0.8269882804917487  1.0000
  C   C206      1.0  0.5176465806458622  0.28849434508542493  0.8305305374631489  1.0000
  C   C207      1.0  0.5370475669581103  0.2706423943924148  0.8342143040367528  1.0000
  C   C208      1.0  0.5615017022802818  0.2777046166836035  0.8343752574144068  1.0000
  C   C209      1.0  0.5665769134403685  0.3027491510690556  0.8313996731277491  1.0000
  C   C210      1.0  0.547101797235883  0.32065896065622107  0.8278441382648929  1.0000
  H   H137      1.0  0.49882809448567594  0.28289085833707944  0.8307027592517228  1.0000
  H   H138      1.0  0.5330498206450697  0.251293965222379  0.8367332967401373  1.0000
  H   H139      1.0  0.585439810771146  0.30833618612378183  0.8317666807132453  1.0000
  H   H140      1.0  0.5509829982657947  0.34005250815145244  0.8254421003058582  1.0000
  C   C211      1.0  0.7410379822142766  0.37053749501580746  0.789645529672242  1.0000
  C   C212      1.0  0.7296898671730314  0.34936383987037606  0.7775862701562866  1.0000
  C   C213      1.0  0.7073550854181665  0.34229053103104196  0.7908515077227486  1.0000
  C   C214      1.0  0.6961311581858651  0.3565207992205735  0.8160921680618511  1.0000
  C   C215      1.0  0.707156741087493  0.3780446419601483  0.8276503821080888  1.0000
  C   C216      1.0  0.7297368386939084  0.3848891691903024  0.8147525031289122  1.0000
  H   H141      1.0  0.7383283850886354  0.33826746085859716  0.7580672380430641  1.0000
  H   H142      1.0  0.6989177192834097  0.32574753608352286  0.7816460368495297  1.0000
  H   H143      1.0  0.698438350436162  0.3891818719025622  0.847041435152261  1.0000
  H   H144      1.0  0.7383191050468836  0.40130392866701237  0.8240357327419547  1.0000
  C   C217      1.0  0.8049369771030728  0.5249781267323075  0.7935285162615371  1.0000
  C   C218      1.0  0.8086272422769207  0.5228759930933844  0.827695643218378  1.0000
  C   C219      1.0  0.8093967963749024  0.5442633235343052  0.847778742419816  1.0000
  C   C220      1.0  0.8066429607890517  0.5678399272781572  0.8337647529224763  1.0000
  C   C221      1.0  0.8037672375242813  0.5699807310753413  0.799505803201209  1.0000
  C   C222      1.0  0.8027387345976505  0.5485859080061743  0.7794643107590519  1.0000
  H   H145      1.0  0.8104229517006338  0.5048170853219275  0.8387630153479382  1.0000
  H   H146      1.0  0.8122359384626131  0.5425602397496241  0.8741670392548652  1.0000
  H   H147      1.0  0.8017512187335172  0.5881122288957028  0.7884514069879771  1.0000
  H   H148      1.0  0.7999943227671398  0.5503846139847162  0.7530489574658887  1.0000
  C   C223      1.0  0.38937047861220286  0.7720508989330667  0.8043723788539914  1.0000
  C   C224      1.0  0.3771589035090891  0.7883334466304177  0.8265054282577079  1.0000
  C   C225      1.0  0.3545475428943221  0.7822417354787538  0.8398216838337988  1.0000
  C   C226      1.0  0.34402589963099783  0.7598181852453835  0.8311562841928581  1.0000
  C   C227      1.0  0.35596932815142374  0.7437005719428464  0.8085384435155829  1.0000
  C   C228      1.0  0.3786617648845204  0.7497887260694343  0.7952702275422017  1.0000
  H   H149      1.0  0.3851064508846058  0.805524602428587  0.8336081769274828  1.0000
  H   H150      1.0  0.34517887072527514  0.7948465270101351  0.8570678238466534  1.0000
  H   H151      1.0  0.3479534297578408  0.7263696427688601  0.8016956723862625  1.0000
  H   H152      1.0  0.3880118003348328  0.7370977904293551  0.7781053293908748  1.0000
  C   C229      1.0  0.723798204978962  0.7462270561262827  0.8370530128751917  1.0000
  C   C230      1.0  0.7321161602030235  0.7561261180871331  0.8076958649506459  1.0000
  C   C231      1.0  0.7538595059341485  0.7463303035663695  0.7932316302727017  1.0000
  C   C232      1.0  0.7672007709578061  0.7263468286502893  0.8077555603345218  1.0000
  C   C233      1.0  0.7586292537084854  0.7160073815497205  0.8367113462274389  1.0000
  C   C234      1.0  0.7369504814707872  0.7259949181380804  0.8513697376956597  1.0000
  H   H153      1.0  0.7218194034485426  0.7713597259390618  0.7961223706936318  1.0000
  H   H154      1.0  0.7603584635992393  0.7543349330017769  0.7707534951231136  1.0000
  H   H155      1.0  0.7688134321108797  0.7005405279550149  0.8479884542629943  1.0000
  H   H156      1.0  0.7304627298232086  0.7181778188166611  0.8739888244318198  1.0000
  C   C235      1.0  0.5794457534755025  0.8469888044303967  0.8379371480426809  1.0000
  C   C236      1.0  0.5831245625821166  0.8421468840869909  0.8042883644827906  1.0000
  C   C237      1.0  0.5629637372297945  0.8429512775306126  0.7822762971636972  1.0000
  C   C238      1.0  0.5391182855415171  0.8485035729892146  0.7937415708630237  1.0000
  C   C239      1.0  0.5353574346972748  0.8530934924990604  0.8274664681971908  1.0000
  C   C240      1.0  0.5555451532900814  0.8524280270400726  0.8495295577962271  1.0000
  H   H157      1.0  0.6014753311370925  0.8376265309624661  0.7953177636476502  1.0000
  H   H158      1.0  0.5656693263600868  0.8387839490617579  0.7564194945660726  1.0000
  H   H159      1.0  0.5169488147234538  0.8572885316519007  0.8364732989677409  1.0000
  H   H160      1.0  0.5526244183728579  0.8559684971611479  0.8755785333640641  1.0000
  C   C241      1.0  0.19053279907828904  0.7132001699491511  0.8669930741401557  1.0000
  C   C242      1.0  0.16490995012751392  0.7147536614982313  0.869838210047196  1.0000
  C   C243      1.0  0.1540231303502318  0.7151342234159359  0.9010211486810094  1.0000
  C   C244      1.0  0.16862599685154353  0.7136379352463764  0.9296775918980108  1.0000
  C   C245      1.0  0.19432528061538173  0.7122139671854839  0.927071017593368  1.0000
  C   C246      1.0  0.20529174463939362  0.7122316284948021  0.8956733131071859  1.0000
  H   H161      1.0  0.15337671611492687  0.715741041515452  0.8478780688556842  1.0000
  H   H162      1.0  0.1341610429332073  0.7165203079419825  0.9029670481694174  1.0000
  H   H163      1.0  0.20563723059644232  0.7118684202892017  0.9492391349586684  1.0000
  H   H164      1.0  0.2250596179624323  0.7118048918326098  0.8937424770511293  1.0000
  C   C247      1.0  0.22707476570997318  0.7017064500471055  0.644704268366769  1.0000
  C   C248      1.0  0.2332977634171255  0.6765579525186896  0.6496719066843216  1.0000
  C   C249      1.0  0.2524862018033529  0.6695039356394699  0.6715544175826392  1.0000
  C   C250      1.0  0.26495907125656304  0.6875503723780991  0.6893970619896869  1.0000
  C   C251      1.0  0.25856714432291333  0.7127111429383532  0.6848077042712312  1.0000
  C   C252      1.0  0.23981887538836028  0.7197855022778014  0.6621519873322523  1.0000
  H   H165      1.0  0.22350853743350443  0.6625017907165943  0.6363903797536159  1.0000
  H   H166      1.0  0.25754386386817407  0.6500417471733871  0.6746449997390251  1.0000
  H   H167      1.0  0.2683629331960202  0.7267031623446817  0.698291624381971  1.0000
  H   H168      1.0  0.23506102653374739  0.7392524835813705  0.6582985837137526  1.0000
  C   C253      1.0  0.16494271688530798  0.4804428575142391  0.979473452208229  1.0000
  C   C254      1.0  0.16886782899403835  0.4705662057882046  0.9476316738896622  1.0000
  C   C255      1.0  0.19283988032863972  0.4676929571091621  0.9350159910222231  1.0000
  C   C256      1.0  0.21296918579928525  0.47468973393650055  0.9542724216620001  1.0000
  C   C257      1.0  0.20893189306830265  0.4854422638772434  0.9855752359701813  1.0000
  C   C258      1.0  0.18496434714960075  0.48849766182609844  0.9980325849501966  1.0000
  H   H169      1.0  0.15341936506332862  0.4644353038420111  0.9330706518324406  1.0000
  H   H170      1.0  0.19580447155415145  0.45913506085588474  0.9109864378849428  1.0000
  H   H171      1.0  0.22443522517366482  0.4911656005905863  0.00036566608094346087  1.0000
  H   H172      1.0  0.18205015792926701  0.497022796789733  0.022015669490700773  1.0000
  C   C259      1.0  0.20433969830622867  0.4243142728671857  0.6801717402096147  1.0000
  C   C260      1.0  0.22582700394335217  0.43067122616354786  0.6970477706371313  1.0000
  C   C261      1.0  0.22696455008773503  0.430008761788184  0.7316879718728311  1.0000
  C   C262      1.0  0.20693121440936368  0.4222032582512038  0.7495376656087801  1.0000
  C   C263      1.0  0.18562323737286227  0.4153761848040171  0.7326008109951917  1.0000
  C   C264      1.0  0.18418888402590597  0.4167591263613945  0.6980033062374141  1.0000
  H   H173      1.0  0.24144528707818913  0.4365192263228449  0.6832830981354476  1.0000
  H   H174      1.0  0.24344086487004749  0.4352676757177843  0.7443957517672131  1.0000
  H   H175      1.0  0.17012244801715803  0.4091416107363437  0.7462703677041888  1.0000
  H   H176      1.0  0.16776005792016746  0.4112761765847625  0.6850763831278888  1.0000
  C   C265      1.0  0.1676699695973364  0.5644615031400543  0.10771702820328177  1.0000
  C   C266      1.0  0.13215283900720465  0.5605336009966324  0.645708397081867  1.0000
  C   C267      1.0  0.17481809594068598  0.6039505670605608  0.08262410285899824  1.0000
  C   C268      1.0  0.19111743752874208  0.5923006590306112  0.06014645813191288  1.0000
  C   C269      1.0  0.1953232565488243  0.5665278150370603  0.06113641202390596  1.0000
  C   C270      1.0  0.18343760511595825  0.5525869225353733  0.08473911011177204  1.0000
  H   H177      1.0  0.11302567815780598  0.5670969665695029  0.6464336311271597  1.0000
  H   H178      1.0  0.14579570072618053  0.5971052224199772  0.6408145159964365  1.0000
  H   H179      1.0  0.2077345343248101  0.5573287219409963  0.0436454746395496  1.0000
  H   H180      1.0  0.18687816284330697  0.5327383065550556  0.08541649976051491  1.0000
  C   C271      1.0  0.9195152913740157  0.39664889045685287  0.7107193550054715  1.0000
  C   C272      1.0  0.9277833240100773  0.38253195818684665  0.7377859023001828  1.0000
  C   C273      1.0  0.9166969487314014  0.3860003224900427  0.7687041693007476  1.0000
  C   C274      1.0  0.8967954890944996  0.4031468564471593  0.7726840582419213  1.0000
  C   C275      1.0  0.888389866264649  0.41732887571040106  0.7456467955452147  1.0000
  C   C276      1.0  0.8999348249755468  0.4142587922938692  0.7147369799710557  1.0000
  H   H181      1.0  0.9427315293225667  0.3687605654498677  0.7348636570057802  1.0000
  H   H182      1.0  0.923253509778238  0.3749919776753388  0.7894618747172666  1.0000
  H   H183      1.0  0.8732926376543416  0.430881779963408  0.7487036319192739  1.0000
  H   H184      1.0  0.8936192091127911  0.4253466861840254  0.6940423536908591  1.0000
  C   C277      1.0  0.8434083209364768  0.418940058700278  0.9916335573382128  1.0000
  C   C278      1.0  0.833347603971351  0.4432576496247638  0.993493173265656  1.0000
  C   C279      1.0  0.8170401713124114  0.45218678464602863  0.9688404969203079  1.0000
  C   C280      1.0  0.8113806470617372  0.43712564561939166  0.9416525252606249  1.0000
  C   C281      1.0  0.82154446806419  0.41282994193394096  0.9395668500990131  1.0000
  C   C282      1.0  0.8371491932199067  0.40357109914615813  0.9649438912038333  1.0000
  H   H185      1.0  0.8380195782850162  0.4552209777473061  0.014004120856295321  1.0000
  H   H186      1.0  0.8091912169757748  0.4709700409596464  0.9705785471574823  1.0000
  H   H187      1.0  0.8170364933418334  0.40106379159901895  0.9187240569099265  1.0000
  H   H188      1.0  0.8448860320489315  0.38473835779896015  0.9634639020044199  1.0000
  C   C283      1.0  0.008469759022522227  0.44080363890036506  0.5710262728872201  1.0000
  C   C284      1.0  0.9933078750693956  0.4572311759094305  0.08474304082561313  1.0000
  C   C285      1.0  0.0121745939930864  0.46109851542983277  0.10794182727242707  1.0000
  C   C286      1.0  0.05216364403635881  0.41711462323221854  0.5946499899649502  1.0000
  C   C287      1.0  0.04853893979694541  0.44285926632180417  0.5976944046165535  1.0000
  C   C288      1.0  0.026954613061588306  0.45474278811124846  0.5853061940587547  1.0000
  H   H189      1.0  0.9749922992369157  0.45353438271571056  0.09297257194876818  1.0000
  H   H190      1.0  0.008383094856867059  0.46025683488775876  0.13408419400947147  1.0000
  H   H191      1.0  0.06231017003713672  0.4536801503275925  0.6097744492657584  1.0000
  H   H192      1.0  0.024601432490642505  0.4747568785244505  0.5869000321052479  1.0000
  C   C289      1.0  0.9007879964525005  0.677969318776888  0.9718780173588296  1.0000
  C   C290      1.0  0.922474921584171  0.6713446977752071  0.955081675420567  1.0000
  C   C291      1.0  0.9220204044464717  0.6671444627670093  0.920821690630793  1.0000
  C   C292      1.0  0.8998512193150383  0.6696083252554786  0.903014932434749  1.0000
  C   C293      1.0  0.8781719177083497  0.6769118180267594  0.9195612882790217  1.0000
  C   C294      1.0  0.8786269099037236  0.680978178948439  0.9539689460916301  1.0000
  H   H193      1.0  0.9397348899470874  0.6697860274291066  0.9682887247218387  1.0000
  H   H194      1.0  0.9389314747163338  0.6618532963691581  0.9081652766194767  1.0000
  H   H195      1.0  0.8610705046454048  0.6794407445977109  0.9059399435993912  1.0000
  H   H196      1.0  0.8618065321983669  0.6864534978182629  0.9666995098749841  1.0000
  C   C295      1.0  0.8986067406990809  0.6698204526184847  0.6475511838844459  1.0000
  C   C296      1.0  0.8892952499849731  0.6471529498103235  0.637644488128735  1.0000
  C   C297      1.0  0.8743963337145577  0.6343239575737385  0.6589507584655554  1.0000
  C   C298      1.0  0.8684474506660629  0.644254506498067  0.6901046438958724  1.0000
  C   C299      1.0  0.8766217464294965  0.6675894164521291  0.6993613735690241  1.0000
  C   C300      1.0  0.891637646095395  0.6804048940009733  0.6780300489328501  1.0000
  H   H197      1.0  0.8936480907698074  0.6393844968393951  0.6135898995505389  1.0000
  H   H198      1.0  0.8678161479704326  0.6164397597309244  0.6514159458604063  1.0000
  H   H199      1.0  0.8717851178658071  0.6756274033085538  0.7230511059358977  1.0000
  H   H200      1.0  0.8984784926068825  0.6981778860634011  0.6854885553604902  1.0000
  C   C301      1.0  0.886230385828839  0.5660478332867948  0.564570654829479  1.0000
  C   C302      1.0  0.891988676382081  0.5730316460651146  0.5970726619796558  1.0000
  C   C303      1.0  0.8933183803369011  0.555197705779906  0.6220356629222644  1.0000
  C   C304      1.0  0.8887708610855036  0.5304486321049479  0.6144195316849098  1.0000
  C   C305      1.0  0.881042172998795  0.5239361629379251  0.5825327834548831  1.0000
  C   C306      1.0  0.8797635404456485  0.541734868520216  0.5575894869719994  1.0000
  H   H201      1.0  0.8959022241915588  0.5920359137836624  0.6028737986901549  1.0000
  H   H202      1.0  0.898769408116974  0.5604238936575471  0.6468858882289277  1.0000
  H   H203      1.0  0.8881626712816221  0.5832600768867088  0.018432943002813396  1.0000
  H   H204      1.0  0.926722808010591  0.604728734764174  0.02933534095512602  1.0000
  C   C307      1.0  0.053281162996253295  0.6859271081903616  0.06014793604969371  1.0000
  C   C308      1.0  0.07424283738758142  0.6980772928398228  0.050737811867028304  1.0000
  C   C309      1.0  0.09693987227600975  0.6929403885114516  0.0666657011823335  1.0000
  C   C310      1.0  0.098570229673776  0.6761589959909549  0.09273361946000258  1.0000
  C   C311      1.0  0.07538895250261302  0.6225336547896467  0.5867541189132153  1.0000
  C   C312      1.0  0.05606589033636622  0.6078281209747555  0.5761843128679603  1.0000
  H   H205      1.0  0.07294307399732092  0.7115987702329416  0.031158910014776664  1.0000
  H   H206      1.0  0.11306681588251748  0.7023466879643796  0.05911267930386699  1.0000
  H   H207      1.0  0.0942397686677223  0.6162970039651757  0.5824300014164844  1.0000
  H   H208      1.0  0.0601485330333158  0.5903234486192762  0.5635924516772856  1.0000
  C   C313      1.0  0.6628525163973511  0.1800682521468829  0.9654613972776775  1.0000
  C   C314      1.0  0.6612129962180983  0.1825307918124834  0.9310678271865415  1.0000
  C   C315      1.0  0.6701967400903049  0.2034198383028301  0.9157654308225036  1.0000
  C   C316      1.0  0.6814642959467851  0.22162074698884174  0.9347233103042631  1.0000
  C   C317      1.0  0.6837030640467591  0.21884528520452898  0.9690733844640783  1.0000
  C   C318      1.0  0.6741292310668404  0.19823417060203474  0.9845100962587146  1.0000
  H   H209      1.0  0.652692592352347  0.16838969203018941  0.9162324003617975  1.0000
  H   H210      1.0  0.6687756225145289  0.20520875549382578  0.8892453715373859  1.0000
  H   H211      1.0  0.6924338075955432  0.23288132879387916  0.9838546208378708  1.0000
  H   H212      1.0  0.675518753847412  0.19642140164135166  0.011082480852351972  1.0000
  C   C319      1.0  0.6239698706477929  0.22037130120775952  0.6720161003381476  1.0000
  C   C320      1.0  0.6183039849179022  0.2242569242737333  0.7054455731189977  1.0000
  C   C321      1.0  0.6365803688648268  0.2311813744482552  0.7280770854979454  1.0000
  C   C322      1.0  0.660633848383612  0.23400818131248508  0.7173022229669491  1.0000
  C   C323      1.0  0.6661911017377954  0.23052486212690976  0.6838047774257932  1.0000
  C   C324      1.0  0.6478688227571927  0.22374563381435833  0.6611500884837667  1.0000
  H   H213      1.0  0.5999098060942435  0.221274483893248  0.7139422518765673  1.0000
  H   H214      1.0  0.6322564784080287  0.23358510599611906  0.7539955277894009  1.0000
  H   H215      1.0  0.6847152258705613  0.23305664992089367  0.6753588907276529  1.0000
  H   H216      1.0  0.6522128196233951  0.22126089169558075  0.6352535983679172  1.0000
  C   C325      1.0  0.4158820193242715  0.24387195309627305  0.9480890702529137  1.0000
  C   C326      1.0  0.43723853447042743  0.22926624600900472  0.9413300740377603  1.0000
  C   C327      1.0  0.4448868160866363  0.22548660300014225  0.9084815880489496  1.0000
  C   C328      1.0  0.431457857904954  0.23675113568354914  0.8825134755591997  1.0000
  C   C329      1.0  0.41009699340977607  0.25126233628560235  0.8893298884267573  1.0000
  C   C330      1.0  0.40212378482833977  0.2544239933118115  0.9219654348717341  1.0000
  H   H217      1.0  0.44813182769653154  0.22129977593679315  0.9613405396822086  1.0000
  H   H218      1.0  0.4616526551247462  0.21458290567973326  0.9033017235439419  1.0000
  H   H219      1.0  0.39956743447239357  0.259920145770918  0.8693564525093282  1.0000
  H   H220      1.0  0.3851672674702886  0.26499570971476116  0.926932426941994  1.0000
  C   C331      1.0  0.4091616247807994  0.27706593967011134  0.6854352057825992  1.0000
  C   C332      1.0  0.41933985909753313  0.2673397856063924  0.6561278387236612  1.0000
  C   C333      1.0  0.41115004013758144  0.2451174142298411  0.6425489835718876  1.0000
  C   C334      1.0  0.3924039988989542  0.232844728313249  0.6579224800396455  1.0000
  C   C335      1.0  0.3815598938528526  0.24302372576615047  0.68657223712456  1.0000
  C   C336      1.0  0.390013674836099  0.26509737582723203  0.7004411144490479  1.0000
  H   H221      1.0  0.4340887870357622  0.276647443814628  0.6444172618306978  1.0000
  H   H222      1.0  0.4197387090743347  0.23730355509090018  0.6205622339987001  1.0000
  H   H223      1.0  0.36698297355473625  0.23358795635054264  0.6984366748332416  1.0000
  H   H224      1.0  0.3819151671616971  0.2727563799569737  0.7228730047315988  1.0000
  C   C337      1.0  0.5004520064858626  0.20739864768170033  0.5280125330708786  1.0000
  C   C338      1.0  0.49820021695960787  0.1886440784989004  0.504095753974501  1.0000
  C   C339      1.0  0.517978331225149  0.1717002141332554  0.4979963190996868  1.0000
  C   C340      1.0  0.5398897957341084  0.17331372985673943  0.5161373193273948  1.0000
  C   C341      1.0  0.542086635842583  0.19195230954571868  0.5402041633038975  1.0000
  C   C342      1.0  0.5224930006314852  0.20923963910507906  0.5457897666304702  1.0000
  H   H225      1.0  0.49119230058770524  0.17411370561672482  0.07792438034447358  1.0000
  H   H226      1.0  0.5195011263780005  0.13730431960358422  0.0753926393537474  1.0000
  H   H227      1.0  0.5586707125290871  0.19290443052340983  0.5549777214682696  1.0000
  H   H228      1.0  0.5241352494021079  0.2235087763991625  0.5646541582003721  1.0000
  C   C343      1.0  0.4590369455444455  0.9370009681637183  0.9456090465265481  1.0000
  C   C344      1.0  0.4489149065956154  0.9193748230321086  0.9658761616226933  1.0000
  C   C345      1.0  0.443674416147057  0.8958791811095739  0.9528896332755538  1.0000
  C   C346      1.0  0.44835234930362017  0.8900394456145367  0.9195971244487169  1.0000
  C   C347      1.0  0.4583066393703952  0.9077758490275761  0.8994169864019729  1.0000
  C   C348      1.0  0.46361431490495536  0.9311914550105065  0.9123651522179791  1.0000
  H   H229      1.0  0.4453046372397013  0.9237375708251241  0.9915869476018556  1.0000
  H   H230      1.0  0.4359773260956365  0.8822419420968818  0.9686606375284736  1.0000
  H   H231      1.0  0.4621754113072155  0.903439719642529  0.8739048457442505  1.0000
  H   H232      1.0  0.4714254440490412  0.9447778793600585  0.8966134374861336  1.0000
  C   C349      1.0  0.4008487622759978  0.8980625984413169  0.710786977606791  1.0000
  C   C350      1.0  0.40764345884122277  0.8759957227662937  0.6940107008783943  1.0000
  C   C351      1.0  0.4069957463001637  0.8750463623203415  0.6593235337823422  1.0000
  C   C352      1.0  0.400224350778686  0.8963622578346964  0.6413213670999848  1.0000
  C   C353      1.0  0.393211161232551  0.9183537357002325  0.6581053155009712  1.0000
  C   C354      1.0  0.39324283229427665  0.9191082759168957  0.6927803324898818  1.0000
  H   H233      1.0  0.4131826772282605  0.859609931638413  0.7076238694510784  1.0000
  H   H234      1.0  0.41237572329749544  0.8579970946161244  0.6463568686000645  1.0000
  H   H235      1.0  0.3874495244228543  0.9347138165329737  0.6443390876706888  1.0000
  H   H236      1.0  0.3877497964818544  0.9361783565330601  0.7056233558195694  1.0000
  C   C355      1.0  0.40734149580690754  0.04443145455488029  0.5524506469129808  1.0000
  C   C356      1.0  0.4348553338671095  0.06327080917102658  0.03588188165161221  1.0000
  C   C357      1.0  0.4421681519368949  0.0852555581999611  0.021629921390183826  1.0000
  C   C358      1.0  0.43610789682675927  0.10824758224479285  0.03661503614776551  1.0000
  C   C359      1.0  0.4430176004081333  0.06442852754735524  0.5750331151382486  1.0000
  C   C360      1.0  0.429564154855368  0.04312385236883777  0.5702251916313789  1.0000
  H   H237      1.0  0.4393048504108583  0.045623431172270745  0.02393111674363335  1.0000
  H   H238      1.0  0.4525726773724616  0.08441823901944655  0.9989716598925389  1.0000
  H   H239      1.0  0.46020279344060505  0.06316755302391462  0.588742744975584  1.0000
  H   H240      1.0  0.43628012146703415  0.0257583868709379  0.5807243727477798  1.0000
  C   C361      1.0  0.6893201493469975  0.9094797671964118  0.6800302861553665  1.0000
  C   C362      1.0  0.6911809653541037  0.887396117683732  0.661563949616058  1.0000
  C   C363      1.0  0.689302011823454  0.8645016856469182  0.6770319588832989  1.0000
  C   C364      1.0  0.6850903202542489  0.8635319487710584  0.7110252994400789  1.0000
  C   C365      1.0  0.6843715318447134  0.8854988925482091  0.7298902259455042  1.0000
  C   C366      1.0  0.6866253584460739  0.9084714884972672  0.714392513657436  1.0000
  H   H241      1.0  0.6938546523266174  0.8878759268326354  0.6352562641323566  1.0000
  H   H242      1.0  0.6900735371036438  0.8475525145444336  0.6623760107967653  1.0000
  H   H243      1.0  0.6814657275686953  0.8849102233393507  0.7562093583477221  1.0000
  H   H244      1.0  0.6854408524013219  0.925493871708279  0.7288642712842635  1.0000
  C   C367      1.0  0.7115128029100795  0.8802139225909583  0.9853328442618569  1.0000
  C   C368      1.0  0.7096822180354329  0.8579885259196891  0.9674430540366822  1.0000
  C   C369      1.0  0.7122446863340371  0.8576970993314009  0.933039810028864  1.0000
  C   C370      1.0  0.7169958607502509  0.8795196090007905  0.9165154365737236  1.0000
  C   C371      1.0  0.7200189175961917  0.9014973499480026  0.9345638411647794  1.0000
  C   C372      1.0  0.7170999755967548  0.901893060943898  0.9689754291848601  1.0000
  H   H245      1.0  0.7054456024529989  0.8411843015425476  0.98011904814993  1.0000
  H   H246      1.0  0.7102934411133498  0.8406507001581006  0.9193211709299005  1.0000
  H   H247      1.0  0.7239577299561208  0.9183753710396164  0.9218626304612239  1.0000
  H   H248      1.0  0.7191113282235161  0.918966803759083  0.9828301047476463  1.0000
  C   C373      1.0  0.5835223113062556  0.9626692484317392  0.035782895833358586  1.0000
  C   C374      1.0  0.5878589634234852  0.960153044216564  0.06974898084788195  1.0000
  C   C375      1.0  0.568822837892698  0.965382919432804  0.09217639730937899  1.0000
  C   C376      1.0  0.545264229544146  0.9725461059204276  0.08062677504323679  1.0000
  C   C377      1.0  0.5408070262622108  0.9748426289589898  0.04661177438588249  1.0000
  C   C378      1.0  0.5600383699634446  0.9702501016931062  0.02423123362070756  1.0000
  H   H249      1.0  0.5304305864673868  0.8898482095849786  0.6060442435540218  1.0000
  H   H250      1.0  0.49443321512299426  0.9191351133395906  0.6116708022060828  1.0000
  H   H251      1.0  0.522647272476313  0.9804261243174365  0.03753766798350133  1.0000
  H   H252      1.0  0.5567677705105716  0.9726747578060042  0.9980547528567352  1.0000
  C   C379      1.0  0.62497139165529  0.02997370671449584  0.5633825214524745  1.0000
  C   C380      1.0  0.6158755694597369  0.052941950487087164  0.5513324267652617  1.0000
  C   C381      1.0  0.6242107172551357  0.07520027097289092  0.5648774229701646  1.0000
  C   C382      1.0  0.6417084277461519  0.07456139604548817  0.5905429633584578  1.0000
  C   C383      1.0  0.650609084389399  0.05160014609962161  0.6028137721807926  1.0000
  C   C384      1.0  0.6422778278364215  0.0293307708083681  0.5892556631110251  1.0000
  H   H253      1.0  0.602625159798237  0.05349567591381277  0.5311742105120265  1.0000
  H   H254      1.0  0.617325076347399  0.09281908719657704  0.55522058414241  1.0000
  H   H255      1.0  0.6598797577355445  0.07095032973026387  0.09283501407033623  1.0000
  H   H256      1.0  0.649329629371849  0.011687043852435464  0.5987245717190988  1.0000
  N   N1        1.0  0.3579435325546712  0.965331391928193  0.09716541912698085  1.0000
  C   C385      1.0  0.3806698083094852  0.978262729834772  0.10505698307736466  1.0000
  C   C386      1.0  0.3365884608601422  0.9832816056065385  0.09904034406712992  1.0000
  C   C387      1.0  0.35498751035186615  0.9452217123689279  0.12111000737525246  1.0000
  C   C388      1.0  0.3596761026780898  0.9545945011933704  0.06339268944162835  1.0000
  H   H257      1.0  0.39715198653230455  0.965454008934148  0.10265785263359017  1.0000
  H   H258      1.0  0.38059878124150065  0.9859978211565706  0.13070520125599971  1.0000
  H   H259      1.0  0.3831339836676934  0.993989009329439  0.08802614753142723  1.0000
  H   H260      1.0  0.319060243820471  0.9742711316793511  0.09301207660650657  1.0000
  H   H261      1.0  0.3348758021336978  0.9916683785482695  0.12426895874422983  1.0000
  H   H262      1.0  0.33843121508081503  0.9987928643345185  0.08142722092271626  1.0000
  H   H263      1.0  0.3550374296466168  0.952348720406981  0.1470779656186454  1.0000
  H   H264      1.0  0.37023675697315417  0.9307890906658792  0.11915264006433146  1.0000
  H   H265      1.0  0.33751298480203673  0.9356931105007339  0.11675021060198909  1.0000
  H   H266      1.0  0.34283856350734593  0.9447098090901068  0.05641834038929261  1.0000
  H   H267      1.0  0.37566644121808246  0.9409103777403203  0.06131018401736377  1.0000
  H   H268      1.0  0.36227561881789083  0.9692006730451722  0.04469606308441665  1.0000
  N   N2        1.0  0.9652819787504879  0.5311304191688692  0.5691214931764168  1.0000
  C   C389      1.0  0.9587996617616272  0.5575606009519791  0.5759154069080309  1.0000
  C   C390      1.0  0.991467360816485  0.5283737906797963  0.5596958990939515  1.0000
  C   C391      1.0  0.9496107488821366  0.5221418411863802  0.5417870898005778  1.0000
  C   C392      1.0  0.9611954088874941  0.5165919282062805  0.5991125468868098  1.0000
  H   H269      1.0  0.9392403523094893  0.560342536726085  0.5831819337160663  1.0000
  H   H270      1.0  0.961522330508307  0.5690421758704005  0.5537540852951703  1.0000
  H   H271      1.0  0.9703789854963599  0.5651251401532418  0.5962135612979071  1.0000
  H   H272      1.0  0.9969931849796123  0.5086307501850016  0.5541343483432699  1.0000
  H   H273      1.0  0.9951523352194152  0.5394599999210392  0.5374040864182156  1.0000
  H   H274      1.0  0.0037551972736815653  0.5350593764400389  0.5798208924283706  1.0000
  H   H275      1.0  0.9297475187771161  0.5238552845523097  0.5482525312823289  1.0000
  H   H276      1.0  0.9541017560209205  0.5022361400641976  0.5358037893250749  1.0000
  H   H277      1.0  0.9519265979425862  0.5329581920835376  0.5188821691783659  1.0000
  H   H278      1.0  0.9724424330569258  0.5231124877051628  0.6203703683009154  1.0000
  H   H279      1.0  0.9661542171936437  0.49657757670326946  0.5949461585579701  1.0000
  H   H280      1.0  0.9415257719444993  0.5180820740336641  0.6066272119019955  1.0000
  N   N3        1.0  0.9883687090287488  0.5345710437969613  0.11548888425449494  1.0000
  C   C393      1.0  0.991772635487679  0.5159210429877847  0.14179648082323504  1.0000
  C   C394      1.0  0.005527813813367866  0.5546851130373777  0.12123601720633123  1.0000
  C   C395      1.0  0.9627109105626024  0.5449776034255179  0.11585496511397891  1.0000
  C   C396      1.0  0.9935392964346287  0.5226765969077496  0.08302978239137028  1.0000
  H   H281      1.0  0.9794351797770461  0.5002150474933701  0.13771248172535286  1.0000
  H   H282      1.0  0.9876387442232263  0.5241093151509074  0.16659936268407194  1.0000
  H   H283      1.0  0.011086379354201314  0.5079715670381965  0.1425859907999179  1.0000
  H   H284      1.0  0.025042436468075024  0.5473808857711099  0.12068556098511331  1.0000
  H   H285      1.0  0.003240867652535284  0.5691496038135734  0.1018587101394053  1.0000
  H   H286      1.0  0.0023650694420402907  0.5639956903001231  0.14561539875963478  1.0000
  H   H287      1.0  0.9492959089057353  0.53016768175688  0.11261065491610832  1.0000
  H   H288      1.0  0.9591877885112844  0.5584160132822539  0.09551964774028536  1.0000
  H   H289      1.0  0.9584219212374968  0.5548395690969599  0.13955612405685813  1.0000
  H   H290      1.0  0.9800803387379753  0.5083749371721402  0.07675382640681605  1.0000
  H   H291      1.0  0.012295531567856344  0.5134947974912891  0.08245944285608313  1.0000
  H   H292      1.0  0.9926369540473033  0.5364762137855466  0.06288067602832914  1.0000
  N   N4        1.0  0.019060768211145662  0.7231494916445003  0.1440052006219838  1.0000
  C   C397      1.0  0.9964013558791804  0.7375035169961587  0.13401019441835238  1.0000
  C   C398      1.0  0.015321716200909163  0.6964369435368432  0.13887875261367127  1.0000
  C   C399      1.0  0.02451816601673218  0.7279396007334736  0.1793285969755353  1.0000
  C   C400      1.0  0.03989583689745224  0.7305503931054605  0.12370904202080907  1.0000
  H   H293      1.0  0.9983167536013101  0.7577851301339342  0.13788743507486398  1.0000
  H   H294      1.0  0.9801993387739861  0.7318863727942677  0.14830610644585773  1.0000
  H   H295      1.0  0.9920370360120587  0.7343937227571705  0.10730670572541891  1.0000
  H   H296      1.0  0.9998180274650826  0.6901183662327561  0.15389049963649434  1.0000
  H   H297      1.0  0.010903707059362278  0.6923550631841295  0.112526675481482  1.0000
  H   H298      1.0  0.032061199977140076  0.6849001759606073  0.14580058721412378  1.0000
  H   H299      1.0  0.009211524083990508  0.7222846006003842  0.1952668132767118  1.0000
  H   H300      1.0  0.027265725598300428  0.7479792169025955  0.1842452858242698  1.0000
  H   H301      1.0  0.0415769846621572  0.7173625785322786  0.18748097337314407  1.0000
  H   H302      1.0  0.05704531940086155  0.7191164112061915  0.12921891241214323  1.0000
  H   H303      1.0  0.04393292835420204  0.7503797995946155  0.12788412954573877  1.0000
  H   H304      1.0  0.03588978713087232  0.7281356402261425  0.09681877365413283  1.0000
  N   N5        1.0  0.19960218799588508  0.41814911173735847  0.03776111861399168  1.0000
  C   C401      1.0  0.20586313789747585  0.3945213375605113  0.05468359214303687  1.0000
  C   C402      1.0  0.21264207555803544  0.4383795959492413  0.05435575408657223  1.0000
  C   C403      1.0  0.1727367833419404  0.42357708244292736  0.039344926641161404  1.0000
  C   C404      1.0  0.2070945076386973  0.41614022316164245  0.0027794288266089766  1.0000
  H   H305      1.0  0.2259913490046137  0.38978718580603844  0.05385811934560159  1.0000
  H   H306      1.0  0.19609323070713916  0.378878852863036  0.043135217748872634  1.0000
  H   H307      1.0  0.2004843678695689  0.39562817641224585  0.08122554678706362  1.0000
  H   H308      1.0  0.23297528550252142  0.4351497858843554  0.05314943045900744  1.0000
  H   H309      1.0  0.2080000973929262  0.45655683301530847  0.04271836596205092  1.0000
  H   H310      1.0  0.20756922570400785  0.4402586259501914  0.08088049844282917  1.0000
  H   H311      1.0  0.16736302164239805  0.44166967549255015  0.02776216694571132  1.0000
  H   H312      1.0  0.16637564116296932  0.4245316160938348  0.0653606141369476  1.0000
  H   H313      1.0  0.1622493813222478  0.409109653851332  0.026283681618016974  1.0000
  H   H314      1.0  0.20155310383240443  0.43329438698694384  0.9891325405713921  1.0000
  H   H315      1.0  0.19829047466920804  0.4005215516398156  0.9897452669592508  1.0000
  H   H316      1.0  0.22742014537070213  0.41335179862564586  0.000364483101892743  1.0000
  N   N6        1.0  0.8797437934878719  0.3843857100052566  0.137011261254651  1.0000
  C   C405      1.0  0.8937768362767747  0.40508612841224184  0.15060388128016744  1.0000
  C   C406      1.0  0.8530682113459015  0.3909202368328197  0.13880166774552152  1.0000
  C   C407      1.0  0.8855298531575906  0.3618443379352391  0.15652827295260346  1.0000
  C   C408      1.0  0.8865650991462406  0.3797690910519543  0.10212491534334885  1.0000
  H   H317      1.0  0.9139903319372744  0.40074229679272616  0.1502820169522945  1.0000
  H   H318      1.0  0.8885347199915893  0.40969625191244735  0.17659743914596926  1.0000
  H   H319      1.0  0.8903463054318511  0.42222738502998924  0.13595721092665067  1.0000
  H   H320      1.0  0.8418913245478853  0.37591663967333133  0.12825530784424558  1.0000
  H   H321      1.0  0.8471329246744005  0.3942558316260476  0.16484473883604792  1.0000
  H   H322      1.0  0.8481620558086436  0.4081068249539244  0.12470154143759359  1.0000
  H   H323      1.0  0.8806352011845839  0.36491319287009594  0.18300227505866629  1.0000
  H   H324      1.0  0.9055249993657614  0.35637791875873376  0.1556161097154895  1.0000
  H   H325      1.0  0.8751498293038216  0.3458659597473856  0.14709680885835816  1.0000
  H   H326      1.0  0.9066943087950616  0.3755328464422072  0.09951583880160934  1.0000
  H   H327      1.0  0.8817718378913242  0.3962917626478795  0.08671687481610223  1.0000
  H   H328      1.0  0.8766351349066208  0.3640523420037252  0.09104696489620269  1.0000
  N   N7        1.0  0.30231892008874384  0.4255073299583028  0.4247005319854632  1.0000
  C   C409      1.0  0.32357955616959716  0.40753782611854544  0.42141776940109527  1.0000
  C   C410      1.0  0.30187981550933146  0.43625895708328094  0.45850222251871053  1.0000
  C   C411      1.0  0.27922928126988494  0.41272925527281884  0.4183013502238939  1.0000
  C   C412      1.0  0.30453349133199853  0.4455845502689155  0.400550389839274  1.0000
  H   H329      1.0  0.32473306317793516  0.3996322244056497  0.39590511645567283  1.0000
  H   H330      1.0  0.32226478391678337  0.3917135368298221  0.43859207760479  1.0000
  H   H331      1.0  0.3412938669536359  0.41644406637585685  0.42662616161636074  1.0000
  H   H332      1.0  0.2858570076760479  0.4497578097089276  0.46168093766988433  1.0000
  H   H333      1.0  0.3003272464857526  0.42164920466184813  0.4774349843710007  1.0000
  H   H334      1.0  0.3188448573409751  0.4463777448370578  0.4640580921770773  1.0000
  H   H335      1.0  0.2788763801836856  0.40437200655556776  0.3930477396781775  1.0000
  H   H336      1.0  0.2628168654963192  0.42582137057536484  0.4203014342534366  1.0000
  H   H337      1.0  0.27684793865260676  0.3975604077355281  0.43618481357500377  1.0000
  H   H338      1.0  0.289279969195985  0.45991748356607526  0.40308663625069197  1.0000
  H   H339      1.0  0.30388080303800075  0.4383654334166016  0.3747199601183643  1.0000
  H   H340      1.0  0.32213294003007126  0.4550998459254894  0.4037566797925903  1.0000
  N   N8        1.0  0.4100417365645947  0.33028116985444667  0.9473355852559043  1.0000
  C   C413      1.0  0.4303112077804366  0.3110427041531163  0.9491600334010327  1.0000
  C   C414      1.0  0.38704661867892626  0.3185962158646992  0.937207799509843  1.0000
  C   C415      1.0  0.4160030012083931  0.3491858718609136  0.9228856688052357  1.0000
  C   C416      1.0  0.40671246689143825  0.3422464206637999  0.9801526438791979  1.0000
  H   H341      1.0  0.44814982706802453  0.31919409571883794  0.9558240129197256  1.0000
  H   H342      1.0  0.43278187989326694  0.3010219461356726  0.9251096037490585  1.0000
  H   H343      1.0  0.4265924431132236  0.2967995697909219  0.9679433499897028  1.0000
  H   H344      1.0  0.37148039404969474  0.3326157699925531  0.9343698082842102  1.0000
  H   H345      1.0  0.3891537863749067  0.30890595065051685  0.9128483946782971  1.0000
  H   H346      1.0  0.38166532834405026  0.3046468597223842  0.9555236880566979  1.0000
  H   H347      1.0  0.4008333875761934  0.3636948603684568  0.9203389161373748  1.0000
  H   H348      1.0  0.4186673363431597  0.3407814279024796  0.8978795441636446  1.0000
  H   H349      1.0  0.4331792248480357  0.35855455656799695  0.9296792193464978  1.0000
  H   H350      1.0  0.4237387574612698  0.35124756591660294  0.9885831239400557  1.0000
  H   H351      1.0  0.40218295013133526  0.3284387853343885  0.9991557629921156  1.0000
  H   H352      1.0  0.3914732546892426  0.3567906297268708  0.9796297693695977  1.0000
  N   N9        1.0  0.7409789479672313  0.9144251197167619  0.5588623890795119  1.0000
  C   C417      1.0  0.7310361466312417  0.9341144845616604  0.5366394383395733  1.0000
  C   C418      1.0  0.7226120091649297  0.9094840633373448  0.5843075031002654  1.0000
  C   C419      1.0  0.7637143106709192  0.9226346256401147  0.5751930358399812  1.0000
  C   C420      1.0  0.7465408724703776  0.8914727798813855  0.5394085261940059  1.0000
  H   H353      1.0  0.7264823616325533  0.95167595576582  0.5504979090507358  1.0000
  H   H354      1.0  0.7138327112527122  0.9285366322589781  0.5239286951581522  1.0000
  H   H355      1.0  0.7443508401202574  0.9382567028295631  0.5170197904610302  1.0000
  H   H356      1.0  0.705296879285468  0.9029351653257531  0.5729611729330716  1.0000
  H   H357      1.0  0.7296078138939859  0.8949395173138278  0.6017514367266652  1.0000
  H   H358      1.0  0.717661302664048  0.9264402213884222  0.5992829154872718  1.0000
  H   H359      1.0  0.7717022685447416  0.9081861354598184  0.5921337670373664  1.0000
  H   H360      1.0  0.7599849340175029  0.9398146474541954  0.5902828017474347  1.0000
  H   H361      1.0  0.7779936061631637  0.9266701548547607  0.5567749188969285  1.0000
  H   H362      1.0  0.7538508618691759  0.8761220867597902  0.555393991229465  1.0000
  H   H363      1.0  0.7602975241997687  0.8944602727220178  0.5198814094071597  1.0000
  H   H364      1.0  0.7297060772375241  0.884850552400543  0.5267381391738973  1.0000
  N   N10       1.0  0.49227118262715375  0.9018161550420299  0.18498162420989833  1.0000
  C   C421      1.0  0.48760781321150337  0.9207577470662202  0.15924066290384048  1.0000
  C   C422      1.0  0.5191161207113596  0.8981336340558393  0.19064996578263033  1.0000
  C   C423      1.0  0.48203824032198644  0.8781237777222229  0.17397967613017543  1.0000
  C   C424      1.0  0.48031504301550937  0.910196824894831  0.2160933935303455  1.0000
  H   H365      1.0  0.46756644060797387  0.923896470235803  0.15417050014784864  1.0000
  H   H366      1.0  0.4964263227044695  0.9150567318060004  0.13545733744509444  1.0000
  H   H367      1.0  0.49501274026322606  0.9389394631969283  0.16670939373255267  1.0000
  H   H368      1.0  0.523336219974734  0.8839721299174045  0.2099608233253915  1.0000
  H   H369      1.0  0.5287268569679048  0.8916381103990323  0.16776718967855708  1.0000
  H   H370      1.0  0.5274455477254412  0.9156274861346659  0.1990418096397178  1.0000
  H   H371      1.0  0.48531116104014216  0.8634065286198344  0.19283133413271844  1.0000
  H   H372      1.0  0.49051389101369275  0.8711755822811913  0.15054245063230257  1.0000
  H   H373      1.0  0.4617801719867744  0.8801893650064054  0.1698044782936464  1.0000
  H   H374      1.0  0.48741601622517955  0.9280738719776117  0.22518196360338721  1.0000
  H   H375      1.0  0.48357525035461196  0.8963217364837263  0.2360355576299918  1.0000
  H   H376      1.0  0.46000748445352396  0.9128322835866975  0.21287688753266315  1.0000
  N   N11       1.0  0.4026097140450244  0.16128481505556574  0.9419398891860392  1.0000
  C   C425      1.0  0.42926180499066907  0.16474511731670907  0.946363222504134  1.0000
  C   C426      1.0  0.3981409016172406  0.14960619417295049  0.909304390973655  1.0000
  C   C427      1.0  0.389079022030363  0.1856999010544406  0.9437829849320136  1.0000
  C   C428      1.0  0.3940308917703852  0.14506843995228255  0.9682243745710518  1.0000
  H   H377      1.0  0.43661130008943005  0.17603483184324994  0.9262662356440021  1.0000
  H   H378      1.0  0.440011809783764  0.14664477821552205  0.9466886885841244  1.0000
  H   H379      1.0  0.4332043776597052  0.17436414319654983  0.9702299495291431  1.0000
  H   H380      1.0  0.37820057004413227  0.1466926859417485  0.9051343401476685  1.0000
  H   H381      1.0  0.40442398580972677  0.1613825791961735  0.8889069273776519  1.0000
  H   H382      1.0  0.4082000300223525  0.13118482513079352  0.9071445759324673  1.0000
  H   H383      1.0  0.3947440721062338  0.19818260359091408  0.9238132051364415  1.0000
  H   H384      1.0  0.39264181590697494  0.19540127974985913  0.9677412803608856  1.0000
  H   H385      1.0  0.36883890056906116  0.1838538492024803  0.9414639313968949  1.0000
  H   H386      1.0  0.3740135929449544  0.14194877607342143  0.9657601236688389  1.0000
  H   H387      1.0  0.3972105701586761  0.1532502904040912  0.9931831297917427  1.0000
  H   H388      1.0  0.4041599176641393  0.12660837385152113  0.9679094841549073  1.0000
  N   N12       1.0  0.4426248089133831  0.2575624173839156  0.45196379252528424  1.0000
  C   C429      1.0  0.41558262407366575  0.25895095722620354  0.44758677545437764  1.0000
  C   C430      1.0  0.4514104827251029  0.23123994354167213  0.45353567134827905  1.0000
  C   C431      1.0  0.4492656724490881  0.27052824407671916  0.4829815932348773  1.0000
  C   C432      1.0  0.4541478624756024  0.2695083406622918  0.4237199153772409  1.0000
  H   H389      1.0  0.4081364932393178  0.2785222747265049  0.44709222397566906  1.0000
  H   H390      1.0  0.406258339498698  0.24925830168338164  0.46774718833297235  1.0000
  H   H391      1.0  0.4101371069164855  0.2500329883985751  0.42388293680998845  1.0000
  H   H392      1.0  0.471725882619298  0.22945489909329958  0.4573500385713362  1.0000
  H   H393      1.0  0.44291153529459043  0.22167011510963616  0.47447605492709466  1.0000
  H   H394      1.0  0.4467373770512724  0.22095316301320528  0.43041944043777375  1.0000
  H   H395      1.0  0.46952225509208295  0.2691518360425581  0.48765507460552304  1.0000
  H   H396      1.0  0.4404095241775561  0.26231279026431975  0.5047104963039999  1.0000
  H   H397      1.0  0.4434750759516229  0.2905832745623899  0.48230103216061165  1.0000
  H   H398      1.0  0.4745717604061207  0.26904791186772853  0.42620084915676953  1.0000
  H   H399      1.0  0.4477516649614831  0.2893618230233988  0.42158769191076506  1.0000
  H   H400      1.0  0.4495733927303529  0.26021789549804336  0.39980150952673116  1.0000
  N   N13       1.0  0.5802017005115647  0.8440159526861447  0.3867465365361337  1.0000
  C   C433      1.0  0.5990820056168008  0.8530667313278529  0.4099611428522484  1.0000
  C   C434      1.0  0.5861276937450426  0.8512722612986081  0.3527709246741271  1.0000
  C   C435      1.0  0.5557269907645194  0.8550454335048634  0.39562561161236365  1.0000
  C   C436      1.0  0.5799106509213129  0.8166649358182037  0.3884716148309164  1.0000
  H   H401      1.0  0.5954521955660134  0.8478185115046522  0.4358741717461685  1.0000
  H   H402      1.0  0.5999568051095242  0.8736372086174696  0.409175371837954  1.0000
  H   H403      1.0  0.6177983346067981  0.8452776271889975  0.40354993606839745  1.0000
  H   H404      1.0  0.5716500780730344  0.845949575539643  0.3347136735265766  1.0000
  H   H405      1.0  0.5882487557507807  0.8716399863696933  0.3508794484680805  1.0000
  H   H406      1.0  0.6037258357749795  0.8420237279786297  0.34462830207015127  1.0000
  H   H407      1.0  0.5506358400260408  0.8500674456379888  0.42117399707295067  1.0000
  H   H408      1.0  0.5411279087659601  0.8484217938548216  0.37851413048193744  1.0000
  H   H409      1.0  0.5553156241814711  0.875659981422808  0.39416017106755635  1.0000
  H   H410      1.0  0.5660984093742908  0.8091537228929805  0.3709803158920631  1.0000
  H   H411      1.0  0.5755235507682467  0.8104139783905281  0.4137110626182144  1.0000
  H   H412      1.0  0.5980790237549343  0.8077309394844298  0.3816289778820563  1.0000
  N   N14       1.0  0.035288833864350666  0.6683240650022988  0.49765640092277746  1.0000
  C   C437      1.0  0.04185203964177786  0.6785048709568337  0.5305277370340151  1.0000
  C   C438      1.0  0.014710941738530936  0.6836400061720102  0.4831656443329648  1.0000
  C   C439      1.0  0.027732253217456204  0.6425131231944958  0.5011116342938551  1.0000
  C   C440      1.0  0.05689717363301483  0.6686106364796643  0.47583557119037884  1.0000
  H   H413      1.0  0.026111430111185996  0.6781947982538997  0.5478674487242883  1.0000
  H   H414      1.0  0.04738858934525125  0.6980569556765356  0.5290174237711122  1.0000
  H   H415      1.0  0.057570023209152055  0.6675849508855836  0.5419576328977666  1.0000
  H   H416      1.0  0.9981133327686723  0.6839076981645842  0.49905932093352684  1.0000
  H   H417      1.0  0.01970163952515258  0.7032236174247299  0.47995997023976966  1.0000
  H   H418      1.0  0.00898318512921259  0.6763133915680074  0.4585082909111219  1.0000
  H   H419      1.0  0.01169790334018872  0.6415329064080812  0.5177875505821854  1.0000
  H   H420      1.0  0.04284014956130666  0.6303513934439144  0.5117969309801753  1.0000
  H   H421      1.0  0.022199322213906525  0.6343560776005436  0.4768857643753181  1.0000
  H   H422      1.0  0.07277919684809797  0.6572482216623705  0.48614757287230476  1.0000
  H   H423      1.0  0.06314247811155527  0.6878084791557587  0.472750559021122  1.0000
  H   H424      1.0  0.05261692361175596  0.6610405754446256  0.4507946050979799  1.0000
  N   N15       1.0  0.6359956697744606  0.8950997142124578  0.9405058146798085  1.0000
  C   C441      1.0  0.6506031879565318  0.9000720527496036  0.9706763837288082  1.0000
  C   C442      1.0  0.6522728620759646  0.8838148415836203  0.9148991529509979  1.0000
  C   C443      1.0  0.6245786076580907  0.9186457994656746  0.9281157899022939  1.0000
  C   C444      1.0  0.6166390167635663  0.8778337891285841  0.9483465854861601  1.0000
  H   H425      1.0  0.6588285068735766  0.882625788227965  0.9814508607317619  1.0000
  H   H426      1.0  0.6391781546480131  0.9095615381140851  0.990145153691476  1.0000
  H   H427      1.0  0.6660380490529181  0.9121428656982218  0.9652910187410717  1.0000
  H   H428      1.0  0.6418266999978052  0.879260778738884  0.8919553366050941  1.0000
  H   H429      1.0  0.6669220640001688  0.8964594776158745  0.9079199631950527  1.0000
  H   H430      1.0  0.6615680141993497  0.8663187941635278  0.9237874626819501  1.0000
  H   H431      1.0  0.6138857832935167  0.915592372909965  0.9048886919114655  1.0000
  H   H432      1.0  0.638817992752356  0.932187670592829  0.9227276501295116  1.0000
  H   H433      1.0  0.6119636770792934  0.9275961802325275  0.946669101706756  1.0000
  H   H434      1.0  0.6048684662191863  0.8741216124915858  0.9263064309160999  1.0000
  H   H435      1.0  0.6046489335835327  0.8853796651362147  0.9685365578786764  1.0000
  H   H436      1.0  0.6248390678598064  0.8595574943876695  0.956507079220197  1.0000
  N   N16       1.0  0.8016108546531697  0.6987416532707749  0.6873321525091509  1.0000
  C   C445      1.0  0.8245724150840553  0.7000870766422725  0.668323676248084  1.0000
  C   C446      1.0  0.8051415269192189  0.6798656107358017  0.7132953231695154  1.0000
  C   C447      1.0  0.7813218998786216  0.6917702115965408  0.6649498920420039  1.0000
  C   C448      1.0  0.7953969551917984  0.7231596542149871  0.7029282724059895  1.0000
  H   H437      1.0  0.8224371491890854  0.7136292759328242  0.6478495476103231  1.0000
  H   H438      1.0  0.8303105848129542  0.6816991452945902  0.657250406856325  1.0000
  H   H439      1.0  0.8400701351938141  0.7059762826043527  0.6843758856295821  1.0000
  H   H440      1.0  0.809476135547365  0.6610447016764127  0.7026041559277988  1.0000
  H   H441      1.0  0.8205564482566419  0.684344564012424  0.7302983850792026  1.0000
  H   H442      1.0  0.7883869907977754  0.6787960989949429  0.7287164190560291  1.0000
  H   H443      1.0  0.7637866428224503  0.6904281811818943  0.6786632344932682  1.0000
  H   H444      1.0  0.7854980061539871  0.6734101109028496  0.6528135323579856  1.0000
  H   H445      1.0  0.7780104864995737  0.705672397084375  0.6450906239298994  1.0000
  H   H446      1.0  0.7782248004828929  0.7227183596740947  0.7176794807743985  1.0000
  H   H447      1.0  0.7926593828699343  0.7379891331424244  0.6842057806115236  1.0000
  H   H448      1.0  0.810200971851365  0.7287660233219696  0.7204005915021414  1.0000
  N   N17       1.0  0.8948506600121214  0.43459750817628073  0.9066438738875876  1.0000
  C   C449      1.0  0.8821097491978229  0.4116409045324982  0.8985253099612478  1.0000
  C   C450      1.0  0.877647856439811  0.45241728667344716  0.9236629505318217  1.0000
  C   C451      1.0  0.903393949331696  0.4457167982478012  0.875869422020009  1.0000
  C   C452      1.0  0.9162196004688765  0.42856260194028734  0.9285454095869057  1.0000
  H   H449      1.0  0.894228271814123  0.39813235457911406  0.8844660525737185  1.0000
  H   H450      1.0  0.8654192174044685  0.41557272248268995  0.8828752289388538  1.0000
  H   H451      1.0  0.8761848994914119  0.40229127983646146  0.9212181708299815  1.0000
  H   H452      1.0  0.8864196864550901  0.4702006014368887  0.9295876143542926  1.0000
  H   H453      1.0  0.8608430643836334  0.45674438520644367  0.9083889005991049  1.0000
  H   H454      1.0  0.8714533294943548  0.444829925905772  0.9473984967578759  1.0000
  H   H455      1.0  0.8876872158237967  0.4504533010807377  0.8588171182958562  1.0000
  H   H456      1.0  0.9160991267305832  0.43258396477154976  0.8620906756149049  1.0000
  H   H457      1.0  0.9132645399015551  0.4629772307767052  0.8810079856472546  1.0000
  H   H458      1.0  0.9262644734152266  0.4454556311520751  0.9353830183895796  1.0000
  H   H459      1.0  0.9295802488894611  0.41514461157456733  0.916478273601474  1.0000
  H   H460      1.0  0.9103674292976216  0.42009987285343176  0.9520268735324855  1.0000
  N   N18       1.0  0.4742846201467185  0.919010523141029  0.7062395357548426  1.0000
  C   C453      1.0  0.47412375268474316  0.8949580113451338  0.7232752735204849  1.0000
  C   C454      1.0  0.4637232243549251  0.9163046211658985  0.6726434862840348  1.0000
  C   C455      1.0  0.49987705459620957  0.9268914918326564  0.70404295769096  1.0000
  C   C456      1.0  0.45935855554376037  0.9378800191189975  0.7249968658470649  1.0000
  H   H461      1.0  0.4848033986581897  0.8800875181390806  0.7095405694669323  1.0000
  H   H462      1.0  0.4550270675262521  0.8887878639999653  0.7260008031412802  1.0000
  H   H463      1.0  0.48248577308509105  0.8961244052584101  0.7484465188152677  1.0000
  H   H464      1.0  0.46365747704425914  0.9340485423207715  0.6588979533658466  1.0000
  H   H465      1.0  0.47413618225594856  0.9018439658352495  0.657944264483713  1.0000
  H   H466      1.0  0.4443818169505558  0.9107283325355481  0.6734825448184916  1.0000
  H   H467      1.0  0.5005466528043485  0.9453619008109816  0.692172809441124  1.0000
  H   H468      1.0  0.5114537129704027  0.9134423058744536  0.6891387105871309  1.0000
  H   H469      1.0  0.5086296170341839  0.9283894450726948  0.7289495077635592  1.0000
  H   H470      1.0  0.4399245091148604  0.9324842184089138  0.7271623527721396  1.0000
  H   H471      1.0  0.45895992435897986  0.9562329802108621  0.7126220203825196  1.0000
  H   H472      1.0  0.4666910735741602  0.9403336001737329  0.7505668561815807  1.0000
  N   N19       1.0  0.3272156260451687  0.33735395658089024  0.2418212981792818  1.0000
  C   C457      1.0  0.3491307696761346  0.3444798501496902  0.26093864762879615  1.0000
  C   C458      1.0  0.3284974303350557  0.3472492331360006  0.2080257446653133  1.0000
  C   C459      1.0  0.30480938020652876  0.3477335276485973  0.25830249656758697  1.0000
  C   C460      1.0  0.3265627335380894  0.30998161547950415  0.24018065794288873  1.0000
  H   H473      1.0  0.3494819903347015  0.33613426725802986  0.2859317956645248  1.0000
  H   H474      1.0  0.3496433303751412  0.36498205184639565  0.2640525532221002  1.0000
  H   H475      1.0  0.3664602356312846  0.3381478846193701  0.2485295530913704  1.0000
  H   H476      1.0  0.34527990377350465  0.339605234423759  0.19510790853244575  1.0000
  H   H477      1.0  0.31219932203807704  0.34234342082522357  0.19282975814378697  1.0000
  H   H478      1.0  0.3292712391751319  0.36785708527669175  0.2084869578584303  1.0000
  H   H479      1.0  0.28781939897247877  0.34305886685406595  0.24443253309714347  1.0000
  H   H480      1.0  0.3049429373174304  0.36835330185635656  0.2606498689052189  1.0000
  H   H481      1.0  0.3033485923358546  0.3403448613899442  0.2837689448534337  1.0000
  H   H482      1.0  0.3104883543580587  0.3038746473896172  0.22544749100902325  1.0000
  H   H483      1.0  0.3253189701846592  0.30195823155455065  0.2653048135993132  1.0000
  H   H484      1.0  0.3434959031346655  0.3015006336782838  0.22858300027380674  1.0000
  N   N20       1.0  0.5837159781290366  0.20466976563114558  0.43769938193309926  1.0000
  C   C461      1.0  0.590403842327893  0.2200666096987024  0.40950761923627355  1.0000
  C   C462      1.0  0.576077730010114  0.22092451703374608  0.4658192054633736  1.0000
  C   C463      1.0  0.6052089727709786  0.18856329091065785  0.44778154242297985  1.0000
  C   C464      1.0  0.5631597904586786  0.1891323886672953  0.4277100712185733  1.0000
  H   H485      1.0  0.6061803919330332  0.23158438180007743  0.4159220547086411  1.0000
  H   H486      1.0  0.5749236356027041  0.23310452216207364  0.40194196528144394  1.0000
  H   H487      1.0  0.5959388093856806  0.20848383342707477  0.38765019209607193  1.0000
  H   H488      1.0  0.5712815210563147  0.20987403546110772  0.4876624429391279  1.0000
  H   H489      1.0  0.5910960086581533  0.2330724415825702  0.4737249588398697  1.0000
  H   H490      1.0  0.5597776114688194  0.2332440222795828  0.45939384022555757  1.0000
  H   H491      1.0  0.6007830298268453  0.17660549023764877  0.468942175874017  1.0000
  H   H492      1.0  0.6209416672180369  0.19972404908427496  0.4558322107644536  1.0000
  H   H493      1.0  0.6117658686853369  0.17616472946304107  0.4272159137843406  1.0000
  H   H494      1.0  0.5683272615434327  0.17659893772619764  0.40660515055179564  1.0000
  H   H495      1.0  0.5465744321806274  0.20071586285138776  0.42029656267671744  1.0000
  H   H496      1.0  0.5577290208288685  0.17718483781644645  0.4483126490290117  1.0000
  N   N21       1.0  0.5755555068685052  0.29248352004078854  0.7256276317202902  1.0000
  C   C465      1.0  0.5981020614013596  0.2878079080936093  0.7059371979199962  1.0000
  C   C466      1.0  0.5540008096365311  0.29552155771217314  0.703156771404209  1.0000
  C   C467      1.0  0.5778081987766838  0.31534302958290544  0.7458042009962939  1.0000
  C   C468      1.0  0.5722016061065657  0.27125554805207264  0.7476224147126299  1.0000
  H   H497      1.0  0.5966853938723499  0.2711057529276179  0.6896371977003849  1.0000
  H   H498      1.0  0.6146718471221444  0.2846122188635125  0.7220659780900525  1.0000
  H   H499      1.0  0.6016289698344351  0.30374110037197377  0.6897221521855532  1.0000
  H   H500      1.0  0.5517562934069357  0.2786100459373448  0.6874912126150231  1.0000
  H   H501      1.0  0.5366477021632783  0.2990477626643435  0.7172311460818495  1.0000
  H   H502      1.0  0.5558757399354968  0.31143598522032195  0.6862481978978462  1.0000
  H   H503      1.0  0.5608393516469293  0.31967212495780234  0.7603738357740789  1.0000
  H   H504      1.0  0.5808699949981878  0.33170625371816337  0.7301443338965928  1.0000
  H   H505      1.0  0.593481397625737  0.3135140308697952  0.7636993499661452  1.0000
  H   H506      1.0  0.5881939299729111  0.2682694144976446  0.7648275697458425  1.0000
  H   H507      1.0  0.5702016255414964  0.2537210115739517  0.7332756687815178  1.0000
  H   H508      1.0  0.5555002150342851  0.274297514761565  0.763115730126932  1.0000
  N   N22       1.0  0.5331493492813529  0.9108818064299832  0.9666448230566116  1.0000
  C   C469      1.0  0.5495607180847729  0.9106695259055251  0.9960721034193256  1.0000
  C   C470      1.0  0.5456022511603883  0.897503124155503  0.9389161236022123  1.0000
  C   C471      1.0  0.5270911961354954  0.9368367264082609  0.9570782944155538  1.0000
  C   C472      1.0  0.5102351649619153  0.8985847932830107  0.9744819173183348  1.0000
  H   H509      1.0  0.5405452664982154  0.9205064544435256  0.01746098149698727  1.0000
  H   H510      1.0  0.5668992419004244  0.920165758188952  0.9912561226291046  1.0000
  H   H511      1.0  0.5546843805890123  0.8914182352406829  0.004011138484124155  1.0000
  H   H512      1.0  0.533597038963  0.8974008043050695  0.9163626619829796  1.0000
  H   H513      1.0  0.5629082636650052  0.9063339388201966  0.9321945352709905  1.0000
  H   H514      1.0  0.5503156021667645  0.8777790437690197  0.9451506490264278  1.0000
  H   H515      1.0  0.5438560882521056  0.9466701323263755  0.9505154954084184  1.0000
  H   H516      1.0  0.5178753824683693  0.9475661820193922  0.9775688201123093  1.0000
  H   H517      1.0  0.5142610686407197  0.9378109929186728  0.9354171675811365  1.0000
  H   H518      1.0  0.49792567295190426  0.8974839576807533  0.952378101960535  1.0000
  H   H519      1.0  0.4996308107899037  0.9089473328556986  0.994079472841406  1.0000
  H   H520      1.0  0.5140567055293122  0.879283350854374  0.9831685905790768  1.0000
  N   N23       1.0  0.32323654943935254  0.21550610383743252  0.573267798161571  1.0000
  C   C473      1.0  0.3112149905932773  0.22186233899550956  0.6050488031238332  1.0000
  C   C474      1.0  0.33337102773474947  0.1896152282466269  0.5742439003494922  1.0000
  C   C475      1.0  0.34336970693277524  0.2324434568473514  0.5679687416565808  1.0000
  C   C476      1.0  0.3051541812461962  0.21804225509311204  0.5457881713350647  1.0000
  H   H521      1.0  0.30335625797788035  0.24129525934157853  0.605285043980447  1.0000
  H   H522      1.0  0.32466974091655887  0.22009741944439584  0.6260614708741176  1.0000
  H   H523      1.0  0.29602551696761936  0.20934321697558977  0.610039110080017  1.0000
  H   H524      1.0  0.31872594953182753  0.17627149128930955  0.5781600716862769  1.0000
  H   H525      1.0  0.3426512792892533  0.18418853185247636  0.5506707816309168  1.0000
  H   H526      1.0  0.34715860830064793  0.18700503891203896  0.5946280525300762  1.0000
  H   H527      1.0  0.3526584556438124  0.22833937489116599  0.543998426357623  1.0000
  H   H528      1.0  0.35761016763033426  0.23071401724814727  0.5879510700698897  1.0000
  H   H529      1.0  0.33647042832444196  0.252181485886079  0.5675150598927121  1.0000
  H   H530      1.0  0.29721227454103527  0.23738585841142132  0.5440558928032937  1.0000
  H   H531      1.0  0.2897035979585523  0.2054765816143079  0.5488488533029007  1.0000
  H   H532      1.0  0.31393600261460297  0.21321047811951313  0.5215688538469835  1.0000
  N   N24       1.0  0.8285654638374396  0.36473443603935835  0.42850390151223233  1.0000
  C   C477      1.0  0.8094995483004529  0.3849372929783466  0.43275488357594943  1.0000
  C   C478      1.0  0.822654963818154  0.3498837017175957  0.39873264058340047  1.0000
  C   C479      1.0  0.8291490234998917  0.3487700100811603  0.4579596133849629  1.0000
  C   C480      1.0  0.8528982240286697  0.3754223634615586  0.4245640920233813  1.0000
  H   H533      1.0  0.8127917037534871  0.39602515935808463  0.4556068469054474  1.0000
  H   H534      1.0  0.790747365624499  0.37759929010535137  0.434361433108089  1.0000
  H   H535      1.0  0.80918659080097  0.3978315437451111  0.41151186910168736  1.0000
  H   H536      1.0  0.8365684485147445  0.3343968458161451  0.394634717783855  1.0000
  H   H537      1.0  0.8042400886095574  0.34181296648699655  0.40066085413128544  1.0000
  H   H538      1.0  0.8220082437110284  0.3615562073963486  0.3761850762627289  1.0000
  H   H539      1.0  0.8336375777506859  0.35956344581317856  0.48079215221493526  1.0000
  H   H540      1.0  0.843318871954477  0.33328255134557905  0.45564751383262647  1.0000
  H   H541      1.0  0.8110167341432051  0.3405319231197585  0.4618107664211269  1.0000
  H   H542      1.0  0.8529551224699962  0.38823877838867876  0.40315761333469147  1.0000
  H   H543      1.0  0.8676719410590275  0.36078042073048094  0.420436490125484  1.0000
  H   H544      1.0  0.8582343605051016  0.386249619409889  0.44693869666552105  1.0000
  N   N25       1.0  0.1806332139780123  0.7104491802926287  0.7303536052385987  1.0000
  C   C481      1.0  0.1735935729119292  0.7103205064433408  0.6949539653010656  1.0000
  C   C482      1.0  0.16892871179736443  0.7324987125020769  0.7469041690187467  1.0000
  C   C483      1.0  0.20768554339443346  0.7112674795072857  0.7335387397812269  1.0000
  C   C484      1.0  0.17242125489638435  0.6876669016500027  0.7459378010188445  1.0000
  H   H545      1.0  0.1823039577342267  0.6940176828376894  0.6817336634422793  1.0000
  H   H546      1.0  0.17967000953509601  0.7271457920672003  0.6822299846342715  1.0000
  H   H547      1.0  0.15332059722095098  0.7095576814939403  0.691296869344327  1.0000
  H   H548      1.0  0.17392975018898046  0.7331680201493975  0.77368723585452  1.0000
  H   H549      1.0  0.17486372859254015  0.7499847879454186  0.7357826520342494  1.0000
  H   H550      1.0  0.14849544874631143  0.7324719148074244  0.744995390887112  1.0000
  H   H551      1.0  0.2137933620794043  0.7112768501365483  0.7598297287690139  1.0000
  H   H552      1.0  0.21452854505359317  0.7282864486927161  0.7222364766174382  1.0000
  H   H553      1.0  0.21708591278759018  0.6949312934751772  0.7212210078865728  1.0000
  H   H554      1.0  0.15208429111322405  0.6863904530288868  0.743920659451048  1.0000
  H   H555      1.0  0.1774941007082759  0.687205710145109  0.77270995803219  1.0000
  H   H556      1.0  0.1810177590441152  0.6707167253996457  0.7340081496070926  1.0000
  N   N26       1.0  0.2688152571802753  0.7703909843827874  0.2153181310780358  1.0000
  C   C485      1.0  0.2792482593467669  0.7940223958409217  0.226169786502673  1.0000
  C   C486      1.0  0.25831437139229835  0.7731303647891236  0.18159996054060493  1.0000
  C   C487      1.0  0.24921125225474428  0.7639482420037284  0.23830043073981647  1.0000
  C   C488      1.0  0.28851843231690266  0.7505180901677965  0.21524914580160287  1.0000
  H   H557      1.0  0.2942932644949477  0.7993513049560307  0.2096410899317634  1.0000
  H   H558      1.0  0.2872059917919708  0.7925807224378286  0.25160640858685795  1.0000
  H   H559      1.0  0.26494481721305885  0.8094676986277787  0.22659697081839064  1.0000
  H   H560      1.0  0.24974274008275066  0.7558408858971201  0.17295016998554424  1.0000
  H   H561      1.0  0.24370266790440603  0.7882702205880339  0.18058473783294038  1.0000
  H   H562      1.0  0.2726832358376454  0.7773311881129722  0.163387203710334  1.0000
  H   H563      1.0  0.24118091690614146  0.7459928455149342  0.23137280872080027  1.0000
  H   H564      1.0  0.23388486798392735  0.778354191788443  0.23871553587810823  1.0000
  H   H565      1.0  0.25640496577507904  0.762123232466327  0.2640536242882052  1.0000
  H   H566      1.0  0.28148385551405397  0.7325007533282334  0.2067593358067956  1.0000
  H   H567      1.0  0.2964815303458409  0.7475891176464651  0.24042276133615675  1.0000
  H   H568      1.0  0.3038905485010527  0.7549940410574532  0.1987553356413562  1.0000
  N   N27       1.0  0.29239283343039857  0.6048673376011037  0.7404084109992906  1.0000
  C   C489      1.0  0.2663969724169779  0.6141755453577467  0.73853969155918  1.0000
  C   C490      1.0  0.29347145041264655  0.5784395159993181  0.7498558933886945  1.0000
  C   C491      1.0  0.30579240946674646  0.6194203772052587  0.7654311429060864  1.0000
  C   C492      1.0  0.30390396677254145  0.6074653463396712  0.7077842937259486  1.0000
  H   H569      1.0  0.2649281552424784  0.6341824961358616  0.73211508524741  1.0000
  H   H570      1.0  0.2570237917181501  0.6122652538014436  0.7625334057541651  1.0000
  H   H571      1.0  0.25582433425813766  0.603899319761837  0.7194909261861597  1.0000
  H   H572      1.0  0.31277639199190643  0.5706200178573231  0.7508895409403668  1.0000
  H   H573      1.0  0.28550536984513397  0.5759922929871265  0.7747465741141284  1.0000
  H   H574      1.0  0.2829377293043867  0.5669359106047092  0.7321318991389947  1.0000
  H   H575      1.0  0.3253427012249287  0.6125968520046645  0.7680293395193615  1.0000
  H   H576      1.0  0.2972977591181723  0.6184303940846964  0.7902036184689666  1.0000
  H   H577      1.0  0.3057992953913612  0.6393714989349815  0.7588299295921931  1.0000
  H   H578      1.0  0.32360076319515585  0.6008414006081644  0.7082702246005326  1.0000
  H   H579      1.0  0.3032494936738794  0.6272451054076258  0.6999715757455023  1.0000
  H   H580      1.0  0.2942616730580757  0.5967413956983602  0.6882766265693689  1.0000
  N   N28       1.0  0.8676739641543797  0.6818438707535426  0.10949891002459837  1.0000
  C   C493      1.0  0.8920955579237063  0.6927909559857773  0.11011722743350082  1.0000
  C   C494      1.0  0.8575349051275902  0.682353451147877  0.1432834089036326  1.0000
  C   C495      1.0  0.8701767506705915  0.6558854521045302  0.0973437325889503  1.0000
  C   C496      1.0  0.8509716819343109  0.6963356026331109  0.08714381630676268  1.0000
  H   H581      1.0  0.9053663658140274  0.6819532232947709  0.12599545352527497  1.0000
  H   H582      1.0  0.8910760955266002  0.7121697774426332  0.11992215176083595  1.0000
  H   H583      1.0  0.9000964784576917  0.6931703564741036  0.08494752626118826  1.0000
  H   H584      1.0  0.8700200441970704  0.6719807737749658  0.16079215536002275  1.0000
  H   H585      1.0  0.8550901001072025  0.7016502841866252  0.15317196352050255  1.0000
  H   H586      1.0  0.8393682523814538  0.6736834181758916  0.1440619944918984  1.0000
  H   H587      1.0  0.8521061849853769  0.6470189716785791  0.09656313878935793  1.0000
  H   H588      1.0  0.8826795059432155  0.6443969211645848  0.11360652182798585  1.0000
  H   H589      1.0  0.8778678640481516  0.6548474481074654  0.07190490877343435  1.0000
  H   H590      1.0  0.8488052600849642  0.7160795763047019  0.09537818940717718  1.0000
  H   H591      1.0  0.8323411391011284  0.6886294347791052  0.08604558037702319  1.0000
  H   H592      1.0  0.8582273830407281  0.6961795203944919  0.061435637161896046  1.0000
  N   N29       1.0  0.5986860488119484  0.2386557636865373  0.9368188934857324  1.0000
  C   C497      1.0  0.6213684963495508  0.24509388690993286  0.954844923528976  1.0000
  C   C498      1.0  0.585960556132446  0.26152701189145694  0.9242183364850708  1.0000
  C   C499      1.0  0.5822805715477897  0.22605001187659535  0.9594284499686188  1.0000
  C   C500      1.0  0.60518674217696  0.2218696474367416  0.9087663521312368  1.0000
  H   H593      1.0  0.634581724260703  0.25395868353924794  0.9383270715657676  1.0000
  H   H594      1.0  0.6310364912046161  0.22827169890817695  0.9653110047298977  1.0000
  H   H595      1.0  0.6173092255215825  0.25816452376538934  0.9757917889385593  1.0000
  H   H596      1.0  0.5806800153752708  0.274659707313936  0.9446354985364149  1.0000
  H   H597      1.0  0.5978519471227437  0.27142362409731235  0.9070208052541118  1.0000
  H   H598      1.0  0.5689023626549131  0.2573187513958401  0.9100836019951222  1.0000
  H   H599      1.0  0.5650047688844364  0.2208462241781477  0.9465939057384724  1.0000
  H   H600      1.0  0.5770291877014447  0.2381505574549076  0.9809674919738594  1.0000
  H   H601      1.0  0.5913989618393486  0.20870556661318193  0.9694013222826444  1.0000
  H   H602      1.0  0.5886257222362167  0.21735679023603827  0.8937965440573203  1.0000
  H   H603      1.0  0.6141203103472104  0.20409386393081871  0.9173915114003363  1.0000
  H   H604      1.0  0.6181720045383247  0.2305011149297784  0.8917547654900655  1.0000
  N   N30       1.0  0.1670500185002556  0.5497074072875787  0.5335450444930832  1.0000
  C   C501      1.0  0.15921299960897498  0.5673483644693097  0.5073391342861396  1.0000
  C   C502      1.0  0.18847884494126058  0.559210802087422  0.5517020827973893  1.0000
  C   C503      1.0  0.17394318506805365  0.5253078144580924  0.5184010287093272  1.0000
  C   C504      1.0  0.14657917709075408  0.546883917172424  0.5567528485906023  1.0000
  H   H605      1.0  0.14324034024881213  0.5606779528448936  0.4928769078419368  1.0000
  H   H606      1.0  0.17434889675034748  0.5702492874640941  0.48969267249511195  1.0000
  H   H607      1.0  0.15367479806257417  0.58593780270092  0.5178099444377176  1.0000
  H   H608      1.0  0.1946258091267245  0.5466315736357781  0.572109192040934  1.0000
  H   H609      1.0  0.20440273469611742  0.5613050937988169  0.5351222537552058  1.0000
  H   H610      1.0  0.18401246410254482  0.5777444047209205  0.5631202386180243  1.0000
  H   H611      1.0  0.18005994325975114  0.5115557871859995  0.5374426631646566  1.0000
  H   H612      1.0  0.18923908365164085  0.5265819686609641  0.500521677096438  1.0000
  H   H613      1.0  0.15812035415035458  0.5174626991730655  0.5047513538360725  1.0000
  H   H614      1.0  0.1518027310533283  0.5334093892976176  0.5765211671506603  1.0000
  H   H615      1.0  0.12996580562496646  0.5400140355587584  0.5439186811393729  1.0000
  H   H616      1.0  0.14116410242789187  0.5647922401442215  0.5692543322594044  1.0000
  N   N31       1.0  0.7008387633746419  0.09599111573847494  0.9990628689639439  1.0000
  C   C505      1.0  0.7035730141192942  0.11508203878367002  0.025242086690981935  1.0000
  C   C506      1.0  0.7049410318437253  0.10702691982172251  0.9664385653169076  1.0000
  C   C507      1.0  0.6757272986496495  0.08663621127700002  4.969500538187788e-06  1.0000
  C   C508      1.0  0.7190873544418944  0.07522900026783484  0.004605681853401933  1.0000
  H   H617      1.0  0.6904716456807729  0.13126611325857732  0.021302343650158706  1.0000
  H   H618      1.0  0.722453843633134  0.1221808627435315  0.025894610620888825  1.0000
  H   H619      1.0  0.6999111953759932  0.1076582517685484  0.05017315795668642  1.0000
  H   H620      1.0  0.7030558973406319  0.09313120150541124  0.9461030433442129  1.0000
  H   H621      1.0  0.6913550090949857  0.12270047679533323  0.961456397228543  1.0000
  H   H622      1.0  0.723617456938112  0.1145202251386483  0.9649898901448384  1.0000
  H   H623      1.0  0.6614733777263243  0.10181284501689114  0.9957173799063166  1.0000
  H   H624      1.0  0.671930436046418  0.07842180168020692  0.024407019410534803  1.0000
  H   H625      1.0  0.6730326459514002  0.07202947381572783  0.9808042684446233  1.0000
  H   H626      1.0  0.7172468184941592  0.060132224467381756  0.985825807822291  1.0000
  H   H627      1.0  0.7166600855872455  0.06683193854242832  0.029188038008133743  1.0000
  H   H628      1.0  0.7382812439350057  0.08148135225277182  0.0037970673536582566  1.0000
  N   N32       1.0  0.8712303809042093  0.5967184857977486  0.9248128383676462  1.0000
  C   C509      1.0  0.8550851125929141  0.6190823371202404  0.9190003755505488  1.0000
  C   C510      1.0  0.8952615288214849  0.6041859609177006  0.9382014711243526  1.0000
  C   C511      1.0  0.8749865882714222  0.5830455279155705  0.8932244166932963  1.0000
  C   C512      1.0  0.8595237112264466  0.5805717744356702  0.9486770161109188  1.0000
  H   H629      1.0  0.836349126934407  0.6141496607718349  0.910612404498743  1.0000
  H   H630      1.0  0.862651882302841  0.6307917933677258  0.8994777494243525  1.0000
  H   H631      1.0  0.8529647698818715  0.6307141473783182  0.9418073474008998  1.0000
  H   H632      1.0  0.9078070102327972  0.58774845941111  0.9435023507329366  1.0000
  H   H633      1.0  0.9047104315566992  0.6161352748414018  0.9205561251586052  1.0000
  H   H634      1.0  0.8930862589536199  0.6149936495850952  0.9617387712420378  1.0000
  H   H635      1.0  0.8840194737585277  0.5946342014103568  0.8747454655188139  1.0000
  H   H636      1.0  0.8571103179909197  0.5775943388025919  0.8821665095443417  1.0000
  H   H637      1.0  0.8867760014960594  0.5658234687591998  0.8967246484181405  1.0000
  H   H638      1.0  0.8712018958884892  0.5634593804918365  0.9535570044257474  1.0000
  H   H639      1.0  0.841355181532437  0.5746015233129426  0.9393153485511735  1.0000
  H   H640      1.0  0.8564439604361453  0.5902108201126652  0.9728622365309111  1.0000
  N   N33       1.0  0.41701717216069795  0.786917663781763  0.9161011385726301  1.0000
  C   C513      1.0  0.4180805189519789  0.806762243110985  0.9415928275835902  1.0000
  C   C514      1.0  0.3911353677847612  0.7805619322921049  0.9104287287828604  1.0000
  C   C515      1.0  0.43155557869548533  0.7646579775796815  0.9272410551583311  1.0000
  C   C516      1.0  0.42736385633420254  0.7957568655140616  0.8850244808872516  1.0000
  H   H641      1.0  0.43733602395631455  0.8123343178202463  0.9460340204870511  1.0000
  H   H642      1.0  0.410581777014262  0.8008370742873706  0.9655526925778293  1.0000
  H   H643      1.0  0.40732862601120745  0.823860360459691  0.9337889252197472  1.0000
  H   H644      1.0  0.3896414462315398  0.765703306652234  0.891177076886538  1.0000
  H   H645      1.0  0.3826838990804251  0.7737823369669142  0.9333400402936617  1.0000
  H   H646      1.0  0.3796684351945452  0.7969587262364483  0.9019253118263763  1.0000
  H   H647      1.0  0.43121503133518396  0.7494567372315629  0.9083256733357454  1.0000
  H   H648      1.0  0.4242265423719666  0.7573795675129091  0.9506039381247058  1.0000
  H   H649      1.0  0.45119366023004004  0.7688313182666956  0.931756711461921  1.0000
  H   H650      1.0  0.4469590505498856  0.8004651765073655  0.8884358922333337  1.0000
  H   H651      1.0  0.4172226851141664  0.8128996578131606  0.8763779425744892  1.0000
  H   H652      1.0  0.4265253749530393  0.7815623886985915  0.8647981393580244  1.0000
  N   N34       1.0  0.7228706279490955  0.2856707837100564  0.2763900143801663  1.0000
  C   C517      1.0  0.7232941506956286  0.2742998176884421  0.3094752045675783  1.0000
  C   C518      1.0  0.7407681231222784  0.3054645116465587  0.27569932990141965  1.0000
  C   C519      1.0  0.6979714786242807  0.29652843968012216  0.26932042074666945  1.0000
  C   C520      1.0  0.729205419945569  0.2664248861909061  0.2511367973690921  1.0000
  H   H653      1.0  0.7097094990939511  0.25948810119721716  0.31094313045237276  1.0000
  H   H654      1.0  0.7185814105253893  0.28833396830735786  0.3291406283131018  1.0000
  H   H655      1.0  0.7417383627571021  0.2656584013686028  0.31559894445740205  1.0000
  H   H656      1.0  0.736249200477803  0.32027184768265254  0.2944745292348212  1.0000
  H   H657      1.0  0.7598213409864211  0.29803152797244054  0.28101775690150294  1.0000
  H   H658      1.0  0.7407546103181998  0.3145844956407086  0.25116316109054004  1.0000
  H   H659      1.0  0.6840615397026062  0.28214200987790305  0.2696393751187686  1.0000
  H   H660      1.0  0.6967862198613229  0.30555922477147585  0.24473821650389452  1.0000
  H   H661      1.0  0.6924203265032278  0.3107819186999567  0.28812946617574275  1.0000
  H   H662      1.0  0.7286312150533445  0.2742563902446771  0.22579796519833262  1.0000
  H   H663      1.0  0.7159469904205282  0.25123941515298337  0.251338564729206  1.0000
  H   H664      1.0  0.7479242862380658  0.2577811561578189  0.25551847401021033  1.0000
  N   N35       1.0  0.3981835644175922  0.7768720539228166  0.37537327396910247  1.0000
  C   C521      1.0  0.38883588948252945  0.7986609652137406  0.3565332823800318  1.0000
  C   C522      1.0  0.42519578227610094  0.7777717762704807  0.37943245035588047  1.0000
  C   C523      1.0  0.3921942519441819  0.7539599289248119  0.3571251163296201  1.0000
  C   C524      1.0  0.3865066304419962  0.7772534683463086  0.40818646354145843  1.0000
  H   H665      1.0  0.36856453906162145  0.7984848485359652  0.35239990741863825  1.0000
  H   H666      1.0  0.39762685410224496  0.7990492078591432  0.33190438856148696  1.0000
  H   H667      1.0  0.3927862435948425  0.8163612270810748  0.36957668087000906  1.0000
  H   H668      1.0  0.43038618308932897  0.7950739349202188  0.3926010676328753  1.0000
  H   H669      1.0  0.4329690213705664  0.7617099384549607  0.3937356651689657  1.0000
  H   H670      1.0  0.43448894533143245  0.7774790863043848  0.3550150545793394  1.0000
  H   H671      1.0  0.37198576106421216  0.7530828282059655  0.35258043642120535  1.0000
  H   H672      1.0  0.39848567154671893  0.7370400235899787  0.37083750524895503  1.0000
  H   H673      1.0  0.4012172659578886  0.7530255647512403  0.3324940472880212  1.0000
  H   H674      1.0  0.3931415316563848  0.7610928763966218  0.42320849530852445  1.0000
  H   H675      1.0  0.36609415467533485  0.776695441673302  0.4058557082219857  1.0000
  H   H676      1.0  0.3906873177260915  0.7944600847543687  0.4223477954079561  1.0000
  N   N36       1.0  0.35541972239849123  0.8235620188889341  0.7316192143973921  1.0000
  C   C525      1.0  0.3445421035968876  0.8167730923824978  0.7633835047424473  1.0000
  C   C526      1.0  0.3541448011477411  0.8508859761107834  0.7284177529691649  1.0000
  C   C527      1.0  0.341614757002728  0.8122566942243068  0.7040385348021968  1.0000
  C   C528      1.0  0.38142524448275983  0.8142749605395372  0.7306682829160736  1.0000
  H   H677      1.0  0.3455121599820563  0.7962672994427896  0.7668302316776909  1.0000
  H   H678      1.0  0.32481664403276095  0.8231612820858184  0.7649194594065484  1.0000
  H   H679      1.0  0.3544054195109491  0.8252111049821728  0.7846936991437616  1.0000
  H   H680      1.0  0.3614494143684509  0.8566592667238391  0.7042439763061025  1.0000
  H   H681      1.0  0.3348788077385414  0.8586848438878202  0.7301394943020704  1.0000
  H   H682      1.0  0.36515418303158487  0.8599903423594895  0.7481683713491787  1.0000
  H   H683      1.0  0.34945883151965157  0.8168782690645103  0.6796775228674766  1.0000
  H   H684      1.0  0.32191046401996803  0.8189108711365626  0.7038974849439611  1.0000
  H   H685      1.0  0.34216078841826125  0.7916307886780354  0.7058614797824169  1.0000
  H   H686      1.0  0.3923222697158618  0.8221642980482818  0.7513996877244592  1.0000
  H   H687      1.0  0.3903731891690729  0.8191972316458411  0.7071921110585125  1.0000
  H   H688      1.0  0.3831309705150238  0.7936854063243046  0.7329475740553291  1.0000
  N   N37       1.0  0.23116569624451547  0.6405382215183288  0.928032304714523  1.0000
  C   C529      1.0  0.20770095370233885  0.6416180478192011  0.9462024972888134  1.0000
  C   C530      1.0  0.24730840563371895  0.6596962744149796  0.9413168430421537  1.0000
  C   C531      1.0  0.22609995444642886  0.6450818589816656  0.8925993948034244  1.0000
  C   C532      1.0  0.24361549363911514  0.615751668513981  0.9320294856563144  1.0000
  H   H689      1.0  0.19781845478396712  0.6601060611658321  0.9439026160072694  1.0000
  H   H690      1.0  0.2108815802570843  0.6382761092707764  0.9730012200070957  1.0000
  H   H691      1.0  0.19514922170789717  0.6273288840014821  0.9369040678897476  1.0000
  H   H692      1.0  0.26526245656439584  0.6592351218075343  0.9282010400029439  1.0000
  H   H693      1.0  0.23865852679554173  0.6786637689112955  0.9384906071953943  1.0000
  H   H694      1.0  0.25135658124553545  0.6569358666058012  0.9681026008458218  1.0000
  H   H695      1.0  0.24346854519955005  0.6465252591192874  0.8787164848629824  1.0000
  H   H696      1.0  0.21510500904279084  0.6627341994863049  0.8888207494229885  1.0000
  H   H697      1.0  0.2156661234180754  0.6299081492842729  0.8810427797301283  1.0000
  H   H698      1.0  0.24727182503250256  0.6115613489650208  0.9585935220201899  1.0000
  H   H699      1.0  0.2616183967351011  0.6144525235337128  0.9190785956390306  1.0000
  H   H700      1.0  0.23226947839301465  0.6007741616770419  0.9217184699524408  1.0000
  N   N38       1.0  0.5295113784010292  0.10288891900389333  0.5693421822289138  1.0000
  C   C533      1.0  0.5249214363754494  0.1279618616750555  0.5838575079645493  1.0000
  C   C534      1.0  0.5563421526300641  0.09686745036986283  0.5683980445282915  1.0000
  C   C535      1.0  0.5191599979117815  0.10227124778595766  0.5353926850991346  1.0000
  C   C536      1.0  0.5174895184917374  0.08449317614396235  0.5897050468447289  1.0000
  H   H701      1.0  0.5048447568400254  0.13333046684177846  0.5840324725212704  1.0000
  H   H702      1.0  0.5341783768381821  0.14222330130626568  0.5695262532157407  1.0000
  H   H703      1.0  0.5319887522097845  0.12906270474447154  0.6097175371815735  1.0000
  H   H704      1.0  0.560497864206031  0.07796679002796575  0.5579045337949439  1.0000
  H   H705      1.0  0.5659387796967617  0.11020650661031385  0.5528553588450327  1.0000
  H   H706      1.0  0.5648881995213593  0.09756444474169813  0.5935194180737321  1.0000
  H   H707      1.0  0.49893461393543237  0.10677265757620076  0.5352504587102537  1.0000
  H   H708      1.0  0.5222505875466379  0.08367159489066946  0.5235837472998736  1.0000
  H   H709      1.0  0.5276948294251542  0.11604939302911148  0.5194066996699133  1.0000
  H   H710      1.0  0.5200832594651293  0.06540580237999774  0.5791308535240216  1.0000
  H   H711      1.0  0.4972875579223123  0.08880586325431575  0.5913010765365497  1.0000
  H   H712      1.0  0.5250340946938895  0.08421972648588595  0.6153905814590315  1.0000
  N   N39       1.0  0.2628678346008205  0.625930835268116  0.41963682648426476  1.0000
  C   C537      1.0  0.2710349923181444  0.6512762000796513  0.4140986755827593  1.0000
  C   C538      1.0  0.25051568699929433  0.6251713176844675  0.4519490973681474  1.0000
  C   C539      1.0  0.28448801880782254  0.6082458820706089  0.4193394245944244  1.0000
  C   C540      1.0  0.24549087624827465  0.6190910808790842  0.3930250520048015  1.0000
  H   H713      1.0  0.2810725670956562  0.6523513162527407  0.3904281111559614  1.0000
  H   H714      1.0  0.28354110598133153  0.657474403213763  0.43420506054788643  1.0000
  H   H715      1.0  0.255167563541144  0.665019832073942  0.41290368953077045  1.0000
  H   H716      1.0  0.24329460233619982  0.6065846568937349  0.4565513669589535  1.0000
  H   H717      1.0  0.2632486697231155  0.6297111800562031  0.4726656259711451  1.0000
  H   H718      1.0  0.23465883782932312  0.6389705195957809  0.45324427187898336  1.0000
  H   H719      1.0  0.2980897966841534  0.6128889270393011  0.4389568975835749  1.0000
  H   H720      1.0  0.2941790268110394  0.6085677211954784  0.3952151623460156  1.0000
  H   H721      1.0  0.27904009483138653  0.5888680257808628  0.4231636457682901  1.0000
  H   H722      1.0  0.25403652440176483  0.6202183417917477  0.3682927758619457  1.0000
  H   H723      1.0  0.22875716891973924  0.6317343050813518  0.392782405369915  1.0000
  H   H724      1.0  0.23942159844608735  0.5998226084274428  0.39580296913082497  1.0000
  N   N40       1.0  0.6063703858442853  0.8625205789165346  0.6957869409817476  1.0000
  C   C541      1.0  0.614953834580458  0.8745881809188092  0.7265723697632585  1.0000
  C   C542      1.0  0.6087237351907847  0.8352448062996516  0.6992602633683356  1.0000
  C   C543      1.0  0.6215907383507445  0.8699295676049407  0.6678977376298538  1.0000
  C   C544      1.0  0.580349760279958  0.8703383096669148  0.6892483763335092  1.0000
  H   H725      1.0  0.6342680559254961  0.8684361259676491  0.7327497551011393  1.0000
  H   H726      1.0  0.6034413845944581  0.8700146955008351  0.7480009390475427  1.0000
  H   H727      1.0  0.6144486781308216  0.8951517324342716  0.72430643310822  1.0000
  H   H728      1.0  0.5979805480274525  0.8288721709900149  0.7204701967044865  1.0000
  H   H729      1.0  0.6021773696452316  0.8255673983868955  0.6765794326991992  1.0000
  H   H730      1.0  0.6282640575580978  0.8287975224042244  0.7036497146698685  1.0000
  H   H731      1.0  0.6153428026708798  0.8616030606297136  0.6440996926858393  1.0000
  H   H732      1.0  0.6411318166268727  0.8637415641940618  0.671584610321583  1.0000
  H   H733      1.0  0.6208979668536292  0.8904491100589175  0.6648830419346068  1.0000
  H   H734      1.0  0.5733486868989383  0.8615978890132915  0.6660981449780234  1.0000
  H   H735      1.0  0.5781508218548114  0.8908031335752107  0.6860153685420576  1.0000
  H   H736      1.0  0.568207987146703  0.8651978155340159  0.7097607173439807  1.0000
  N   N41       1.0  0.5402301169104178  0.9540679891423585  0.5209890850338231  1.0000
  C   C545      1.0  0.5591251559585177  0.9716386115740728  0.5122871155241998  1.0000
  C   C546      1.0  0.5222005029508012  0.966503412131548  0.5435314418817676  1.0000
  C   C547      1.0  0.5522016792065261  0.9323735192697689  0.5375822525449239  1.0000
  C   C548      1.0  0.5274201278844601  0.9456907866958224  0.49072162280357845  1.0000
  H   H737      1.0  0.5734984792725326  0.9627653143193002  0.49603710422079644  1.0000
  H   H738      1.0  0.5688212334456728  0.9785423889559519  0.5347745293720663  1.0000
  H   H739      1.0  0.5509023166460352  0.9881276052438949  0.49927124092428143  1.0000
  H   H740      1.0  0.5079017628675568  0.9536619283688345  0.5511113428082728  1.0000
  H   H741      1.0  0.5312872094220925  0.9732978757956762  0.5665142938485036  1.0000
  H   H742      1.0  0.5125113318057947  0.9827721848582345  0.5317044710909296  1.0000
  H   H743      1.0  0.538476361359001  0.9190948180550748  0.5456670063008282  1.0000
  H   H744      1.0  0.5627442988818335  0.938160461601209  0.5598834029295046  1.0000
  H   H745      1.0  0.565383358490953  0.9220273362130631  0.521019134813451  1.0000
  H   H746      1.0  0.5135216965313754  0.9318815429074478  0.49651711530600395  1.0000
  H   H747      1.0  0.5405232118637353  0.9367902317720086  0.47274678428758743  1.0000
  H   H748      1.0  0.5173885605225108  0.9614196998014763  0.47806031724321324  1.0000
  N   N42       1.0  0.4003944558503543  0.990161021770946  0.44464087985451356  1.0000
  C   C549      1.0  0.40539321481565366  0.9638367077914314  0.43510788033656517  1.0000
  C   C550      1.0  0.39798681715251116  0.005400679749969939  0.41457371366146306  1.0000
  C   C551      1.0  0.4209575086385772  0.9988207822617904  0.46529887048268453  1.0000
  C   C552      1.0  0.3772939382489846  0.9926814100148866  0.4636033249558052  1.0000
  H   H749      1.0  0.4074600221300139  0.9517723731342882  0.45717599304495077  1.0000
  H   H750      1.0  0.42284888166714457  0.9612264284592268  0.4210504593497749  1.0000
  H   H751      1.0  0.39029979573326273  0.9565733591812735  0.4194827216626891  1.0000
  H   H752      1.0  0.3942479443619335  0.025372273125743527  0.4209432343688295  1.0000
  H   H753      1.0  0.4151546882040612  0.003932804522484679  0.39977927798689267  1.0000
  H   H754      1.0  0.38262645859317085  0.9993736410266029  0.39837326390166505  1.0000
  H   H755      1.0  0.43882320522695123  0.9968888476568792  0.4521231058441505  1.0000
  H   H756      1.0  0.4230789299492374  0.9878017936674851  0.48817649080471504  1.0000
  H   H757      1.0  0.4177934994774183  0.018563531437547187  0.47326603066285283  1.0000
  H   H758      1.0  0.3732365992859911  0.012267211194715744  0.47172373746568425  1.0000
  H   H759      1.0  0.37848198941497674  0.9814731765774353  0.48653232054446305  1.0000
  H   H760      1.0  0.36127168495085576  0.9864571301394549  0.4488701028650886  1.0000
  N   N43       1.0  0.5813552084489584  0.22962955932703633  0.2163736652796109  1.0000
  C   C553      1.0  0.5911328081647417  0.25454438875566154  0.212682854251002  1.0000
  C   C554      1.0  0.5642235093339313  0.22998392744748597  0.24448191759961946  1.0000
  C   C555      1.0  0.6019006302363339  0.21130860880014946  0.22261802003644413  1.0000
  C   C556      1.0  0.5682795964967933  0.22270228311615692  0.18562575476573867  1.0000
  H   H761      1.0  0.6033878895571004  0.25524000770921607  0.19092467387214765  1.0000
  H   H762      1.0  0.6019189080482742  0.2600087225232579  0.23493940474066602  1.0000
  H   H763      1.0  0.5760670661601105  0.26906259627742224  0.20940045823665626  1.0000
  H   H764      1.0  0.5486530461040025  0.24388522991340578  0.2408133279556912  1.0000
  H   H765      1.0  0.5564268345446575  0.21153325251446708  0.2480630896811714  1.0000
  H   H766      1.0  0.5736953213048223  0.23529408925722817  0.26794981776146815  1.0000
  H   H767      1.0  0.6130669989638683  0.21656973874657814  0.24469173872141486  1.0000
  H   H768      1.0  0.614481182670079  0.20982119998999194  0.20117948596129168  1.0000
  H   H769      1.0  0.5952063768173177  0.19243622168931296  0.22673413502623255  1.0000
  H   H770      1.0  0.5606721861039752  0.20395682973891938  0.18729821209458175  1.0000
  H   H771      1.0  0.5809350053282736  0.22219793708876967  0.16406209041562408  1.0000
  H   H772      1.0  0.5528012372451747  0.2362643323555178  0.17987029454028466  1.0000
  N   N44       1.0  0.21012692277631428  0.6244965041002224  0.18145007258844598  1.0000
  C   C557      1.0  0.22404285515866995  0.6193513328545326  0.150720888276392  1.0000
  C   C558      1.0  0.22703460400340547  0.633273331171596  0.20753845080016328  1.0000
  C   C559      1.0  0.19899053819210466  0.6015839323126604  0.19240100222802944  1.0000
  C   C560      1.0  0.19046761799148904  0.6437961540088812  0.17515992949790188  1.0000
  H   H773      1.0  0.21188043057297112  0.6127073681675052  0.13045930825644023  1.0000
  H   H774      1.0  0.23909201081455644  0.6049200823872478  0.15448639532929676  1.0000
  H   H775      1.0  0.23258629968742262  0.6363680406319321  0.14171824882351475  1.0000
  H   H776      1.0  0.24172980429753887  0.6189440771004806  0.21370028602663974  1.0000
  H   H777      1.0  0.23629433629204177  0.6501098977262195  0.19967304194128294  1.0000
  H   H778      1.0  0.2170474603410486  0.6383169463431498  0.2307638757839305  1.0000
  H   H779      1.0  0.21340612023605243  0.5867757135126015  0.19763842385698097  1.0000
  H   H780      1.0  0.18626161725287638  0.5943065156703103  0.17317225823326649  1.0000
  H   H781      1.0  0.1882011083911752  0.604993300495575  0.21538592953866548  1.0000
  H   H782      1.0  0.18039157586220078  0.6492562411363769  0.1981484144872494  1.0000
  H   H783      1.0  0.17675210082682868  0.6375189511760235  0.1565310729936924  1.0000
  H   H784      1.0  0.19821382226121886  0.6608884967652885  0.1654360447765446  1.0000
  N   N45       1.0  0.7019639790908884  0.446306656364642  0.3558450060686287  1.0000
  C   C561      1.0  0.7240206172084725  0.4324965479395756  0.36897991927836793  1.0000
  C   C562      1.0  0.6848412042119445  0.45246892925867377  0.3831714004882144  1.0000
  C   C563      1.0  0.6895989590952789  0.4308353397483038  0.3308413578814898  1.0000
  C   C564      1.0  0.7094425082882168  0.4694302788024184  0.34038043153003383  1.0000
  H   H785      1.0  0.7340421342484386  0.44373128506499776  0.3875807700745975  1.0000
  H   H786      1.0  0.7372207774114101  0.42737824703616933  0.34898291759907607  1.0000
  H   H787      1.0  0.7191673138166825  0.414906232170136  0.3809107418082733  1.0000
  H   H788      1.0  0.6787936312234357  0.43537887069522213  0.3952770662710489  1.0000
  H   H789      1.0  0.6936474827586424  0.4641003215568369  0.4025018298983868  1.0000
  H   H790      1.0  0.6680145690356796  0.4629945657426514  0.37415778627184604  1.0000
  H   H791      1.0  0.6725748131567088  0.44043361623779953  0.320855329867838  1.0000
  H   H792      1.0  0.6842287504881497  0.41289369804296283  0.3413769554374878  1.0000
  H   H793      1.0  0.7018556019850757  0.4263585811552291  0.3095156131458145  1.0000
  H   H794      1.0  0.7225366988788854  0.4654803441659576  0.3197646301336166  1.0000
  H   H795      1.0  0.718929447275798  0.48160253611745796  0.35846105790402666  1.0000
  H   H796      1.0  0.6933691047907676  0.4804049847477252  0.33003618058531764  1.0000
  N   N46       1.0  0.6828109154106332  0.15475077339504528  0.6945519326008618  1.0000
  C   C565      1.0  0.7012104210535992  0.14261053447511282  0.7169684707480543  1.0000
  C   C566      1.0  0.6949668602059726  0.17297776941462156  0.6740682987352092  1.0000
  C   C567      1.0  0.663222490508323  0.16760290493867946  0.7142481105226637  1.0000
  C   C568      1.0  0.6718449740248531  0.13585042267394173  0.672882638633908  1.0000
  H   H797      1.0  0.7161959976338532  0.13266962394228574  0.7028139454823124  1.0000
  H   H798      1.0  0.6926624378880557  0.12875644765224875  0.7328504484824412  1.0000
  H   H799      1.0  0.7098553458568811  0.15646047722372444  0.7335650736156893  1.0000
  H   H800      1.0  0.7030674393422041  0.18782744929373377  0.6895864627115197  1.0000
  H   H801      1.0  0.7099600104498514  0.16398595649154277  0.6589704192020901  1.0000
  H   H802      1.0  0.6816708782930427  0.1822346121345003  0.6565668832952049  1.0000
  H   H803      1.0  0.6537380418731032  0.15447531732645467  0.7301828331400981  1.0000
  H   H804      1.0  0.6489270430446102  0.17674263667870577  0.6979877806655695  1.0000
  H   H805      1.0  0.6707603597453324  0.1823069903504106  0.730563279688334  1.0000
  H   H806      1.0  0.657368515544881  0.14427917168485377  0.6562532126788171  1.0000
  H   H807      1.0  0.6630064601448021  0.1213275090831987  0.6872866841927051  1.0000
  H   H808      1.0  0.6858695870037809  0.12626105997384243  0.6567205871922943  1.0000
  N   N47       1.0  0.7434586757176096  0.5084099474368239  0.8752602652627707  1.0000
  C   C569      1.0  0.7242729966573216  0.5267555630476862  0.8867632629293906  1.0000
  C   C570      1.0  0.7349519271473701  0.4830434218782258  0.8797302375379245  1.0000
  C   C571      1.0  0.7663206264212825  0.5114392371164134  0.8947514198021983  1.0000
  C   C572      1.0  0.748304777364607  0.5124365262603706  0.8398694957031452  1.0000
  H   H809      1.0  0.7066771260940646  0.5248412151242479  0.8727950769451918  1.0000
  H   H810      1.0  0.7300587064099593  0.5461129586010723  0.8834166365125691  1.0000
  H   H811      1.0  0.7203875241836551  0.5244492944722727  0.9134872117285193  1.0000
  H   H812      1.0  0.7309336789280707  0.47943087847266186  0.9061138941259059  1.0000
  H   H813      1.0  0.7180423463450364  0.4797797644981378  0.864836400714885  1.0000
  H   H814      1.0  0.7492861984344318  0.4687847905593973  0.8721174442287946  1.0000
  H   H815      1.0  0.7815932039902461  0.4987930413785686  0.8855416272778572  1.0000
  H   H816      1.0  0.7638144418966487  0.5069818032959286  0.9212656237314863  1.0000
  H   H817      1.0  0.7725124444635264  0.5307677299054409  0.8935221359578243  1.0000
  H   H818      1.0  0.762559981197514  0.49879461590597834  0.830220301353811  1.0000
  H   H819      1.0  0.7551092055893994  0.5313010230056551  0.8356411017875788  1.0000
  H   H820      1.0  0.7314525672897284  0.510464824141665  0.8243639309217355  1.0000
  N   N48       1.0  0.44772649434098566  0.21268350912550713  0.7387241520541591  1.0000
  C   C573      1.0  0.47178527673284687  0.22205332442037626  0.7490948050084788  1.0000
  C   C574      1.0  0.4438967097647599  0.18891840218020128  0.7552483621196789  1.0000
  C   C575      1.0  0.44717919955609414  0.20894458919955922  0.7024364877190715  1.0000
  C   C576      1.0  0.42792247915461445  0.2309594948764152  0.7482503967868166  1.0000
  H   H821      1.0  0.48720563592195915  0.208588069300605  0.7428051027504701  1.0000
  H   H822      1.0  0.47251448910742  0.22559083398140112  0.7763287904642484  1.0000
  H   H823      1.0  0.47530519917996006  0.23987602426071733  0.7367660602400165  1.0000
  H   H824      1.0  0.44413375553559503  0.19130739600302835  0.7826918602899708  1.0000
  H   H825      1.0  0.4258167570846411  0.18145292848420325  0.7480356398308685  1.0000
  H   H826      1.0  0.4585101911482833  0.17462245889496236  0.748657895224322  1.0000
  H   H827      1.0  0.42923842716265576  0.20186691184967617  0.6937662580172524  1.0000
  H   H828      1.0  0.46196092504530417  0.19538525050702257  0.6941347772507451  1.0000
  H   H829      1.0  0.4496805336340733  0.2266758285600652  0.6893090115296855  1.0000
  H   H830      1.0  0.4095247207166264  0.22477840275062538  0.7402967251549357  1.0000
  H   H831      1.0  0.4306514614775873  0.24933871209992278  0.7370488387839328  1.0000
  H   H832      1.0  0.42732543109043164  0.2338922357302795  0.7754409086231371  1.0000
  N   N49       1.0  0.6872461695234233  0.00447522903112918  0.17346653910296445  1.0000
  C   C577      1.0  0.6626310545109946  0.009080051297227776  0.1582071393263298  1.0000
  C   C578      1.0  0.6846427706973236  0.9924690151346732  0.2058181129070993  1.0000
  C   C579      1.0  0.6992014023680087  0.02833660318211595  0.1781679353147283  1.0000
  C   C580      1.0  0.702506620363586  0.988010262100851  0.15160966443423765  1.0000
  H   H833      1.0  0.6639308620332632  0.01790450930575438  0.1336193866501444  1.0000
  H   H834      1.0  0.6506377984571537  0.021507109876794717  0.17394370255513777  1.0000
  H   H835      1.0  0.6530128159453478  0.9914752839407596  0.15440033338978576  1.0000
  H   H836      1.0  0.7028736359966565  0.9884687215679454  0.21788814642380258  1.0000
  H   H837      1.0  0.6732226736636316  0.004317387124190164  0.22299150049640443  1.0000
  H   H838      1.0  0.6755787991086856  0.9744196745284166  0.20306513875908452  1.0000
  H   H839      1.0  0.6881249003468295  0.04136349046239185  0.19429610789340618  1.0000
  H   H840      1.0  0.7014327869646833  0.037729562960501895  0.15416436945379003  1.0000
  H   H841      1.0  0.7178513046230892  0.025640113533530462  0.18956174058386394  1.0000
  H   H842      1.0  0.7214319909245346  0.9846223110809084  0.16182952588411886  1.0000
  H   H843      1.0  0.704220131727885  0.9959910618926631  0.1265528287122557  1.0000
  H   H844      1.0  0.6943750125960612  0.9695889134604635  0.14839075098234983  1.0000
  N   N50       1.0  0.46420661947064445  0.24042118988770744  0.19677508395892254  1.0000
  C   C581      1.0  0.4524915032304442  0.2223259464309621  0.21797604331544387  1.0000
  C   C582      1.0  0.462044860476739  0.265339336393181  0.21248078556734926  1.0000
  C   C583      1.0  0.4517422421951068  0.24105709679460888  0.16413904402665563  1.0000
  C   C584      1.0  0.49047468130457467  0.23293701507941403  0.19233954792095284  1.0000
  H   H845      1.0  0.45340834685140513  0.20337613930888948  0.20664631775104797  1.0000
  H   H846      1.0  0.4326624172763263  0.22754586072853952  0.2218042178965691  1.0000
  H   H847      1.0  0.4613883354995554  0.22127813847536534  0.24287083157886596  1.0000
  H   H848      1.0  0.47041865663180527  0.27956452744456667  0.1970225705599488  1.0000
  H   H849      1.0  0.4424077195318005  0.2714777819347572  0.21613740878677104  1.0000
  H   H850      1.0  0.4711956881357281  0.2656083621614288  0.23724572961355617  1.0000
  H   H851      1.0  0.43201357739045515  0.24684132315885046  0.1664416155796195  1.0000
  H   H852      1.0  0.4526820510566073  0.2224862493913902  0.15173801590408684  1.0000
  H   H853      1.0  0.46020327729809946  0.2542824312890338  0.1472143242647113  1.0000
  H   H854      1.0  0.49964449524075116  0.2461235956362525  0.17604194818064417  1.0000
  H   H855      1.0  0.4926193282551886  0.21428913867044103  0.18019943105359243  1.0000
  H   H856      1.0  0.5005475707453377  0.23228701812716734  0.21641476233667656  1.0000
  N   N51       1.0  0.9350965025622507  0.6409928039746426  0.7580603567847795  1.0000
  C   C585      1.0  0.9546846953744302  0.6213918009873273  0.7531151754970618  1.0000
  C   C586      1.0  0.9382374749491396  0.6529348078285051  0.7908598970187224  1.0000
  C   C587      1.0  0.910798308729068  0.6298222012049822  0.7562315837519271  1.0000
  C   C588      1.0  0.9366174266411499  0.6598196545607973  0.732009350133744  1.0000
  H   H857      1.0  0.9540451516431429  0.6068410665044759  0.7723215163706122  1.0000
  H   H858      1.0  0.973305385299931  0.629147182526766  0.7543334516324947  1.0000
  H   H859      1.0  0.9527561026244707  0.6120909449783821  0.7285152090767961  1.0000
  H   H860      1.0  0.9237059165027739  0.6678494883752917  0.7953438635062275  1.0000
  H   H861      1.0  0.93690043072948  0.6393864401497946  0.811241998197926  1.0000
  H   H862      1.0  0.9563796408964672  0.6615482658108894  0.7933259260195958  1.0000
  H   H863      1.0  0.9075447103381685  0.6208653647646016  0.7316783470280898  1.0000
  H   H864      1.0  0.8955796621761083  0.6440306173555748  0.7601034977386415  1.0000
  H   H865      1.0  0.9089857286479773  0.6154331469884607  0.7754014310399235  1.0000
  H   H866      1.0  0.933496302274901  0.6516730000967096  0.7069054859161351  1.0000
  H   H867      1.0  0.9549595275202564  0.6681601909350815  0.7319843721426585  1.0000
  H   H868      1.0  0.9225561446261425  0.6752650957169729  0.735583877498706  1.0000
  N   N52       1.0  0.1095772880446418  0.5988724325202183  0.027715213997385968  1.0000
  C   C589      1.0  0.11401458289266604  0.5744574620904264  0.043498929521806895  1.0000
  C   C590      1.0  0.08614902173603174  0.5990214209569629  0.008755423324267264  1.0000
  C   C591      1.0  0.13006066354883108  0.6034179827242118  0.005177623833572564  1.0000
  C   C592      1.0  0.10803159203230676  0.6186477951446938  0.05336784892117796  1.0000
  H   H869      1.0  0.13186958408176805  0.5734512935719086  0.05719035915213677  1.0000
  H   H870      1.0  0.11471172331921446  0.5590209932763364  0.024900019889738667  1.0000
  H   H871      1.0  0.09936006139978629  0.5706557599852161  0.06148477493502269  1.0000
  H   H872      1.0  0.07031912913624377  0.5955678461517449  0.02504876814172219  1.0000
  H   H873      1.0  0.08214625084470334  0.6172712424774068  0.9967270798975288  1.0000
  H   H874      1.0  0.08662661358720622  0.5844300056710173  0.9890110562513097  1.0000
  H   H875      1.0  0.1320024508550325  0.5886710729428438  0.9857486978722942  1.0000
  H   H876      1.0  0.14798292377315259  0.6037310506056284  0.018790478883067063  1.0000
  H   H877      1.0  0.12725214211268346  0.6216105930133369  0.9926309919072375  1.0000
  H   H878      1.0  0.1047462953089272  0.6373322993528144  0.04226222916871647  1.0000
  H   H879      1.0  0.12530876955324585  0.6192875536211385  0.06827113940495666  1.0000
  H   H880      1.0  0.09280269051068471  0.6158821160868327  0.07087498924630808  1.0000
  N   N53       1.0  0.861940709981785  0.6236540388744015  0.44922005065175563  1.0000
  C   C593      1.0  0.8884204767986371  0.62806136166886  0.4533007569092866  1.0000
  C   C594      1.0  0.8486105684527886  0.6326405795891445  0.47900702694073405  1.0000
  C   C595      1.0  0.8586599672508942  0.5967747995730743  0.44456020482000785  1.0000
  C   C596      1.0  0.8520733032299943  0.6371747050252693  0.42002459420298793  1.0000
  H   H881      1.0  0.8967082981852976  0.617394177191316  0.47433299594513895  1.0000
  H   H882      1.0  0.89139051121767  0.6480009015172187  0.4582833768623695  1.0000
  H   H883      1.0  0.898917386101245  0.6225366905940869  0.4307082943437967  1.0000
  H   H884      1.0  0.8285641187174754  0.6295367955376191  0.47670692964088635  1.0000
  H   H885      1.0  0.8556427401026827  0.6228500435934958  0.5015263573921609  1.0000
  H   H886      1.0  0.8507633818752156  0.6528723274700481  0.4832259207623801  1.0000
  H   H887      1.0  0.8388622213229007  0.5927577638934656  0.44132513125700307  1.0000
  H   H888      1.0  0.8659312075050538  0.5859777478707361  0.4661247126486698  1.0000
  H   H889      1.0  0.8683464458341491  0.5894474620970137  0.42212254197379273  1.0000
  H   H890      1.0  0.8618977734087802  0.6310711528355235  0.3971378125481797  1.0000
  H   H891      1.0  0.8539554004465066  0.6575801621021475  0.4227444152760722  1.0000
  H   H892      1.0  0.8322097562705103  0.6338689753476134  0.41584596942559654  1.0000
  N   N54       1.0  0.009922956449091691  0.394571771562906  0.6804243052095936  1.0000
  C   C597      1.0  0.026150157028389964  0.37607588284008897  0.6629605398595817  1.0000
  C   C598      1.0  0.9937285522353452  0.3816757552333281  0.7029970363934412  1.0000
  C   C599      1.0  0.9946484605122491  0.4088030860259271  0.6561242246114939  1.0000
  C   C600      1.0  0.025129644379418448  0.4117836503589343  0.6996020552834223  1.0000
  H   H893      1.0  0.039288849749712584  0.38519639937441874  0.6467150616580196  1.0000
  H   H894      1.0  0.015325532254802487  0.3634270902916994  0.6471163433398704  1.0000
  H   H895      1.0  0.03735255977285301  0.3644623276898  0.6806066203452593  1.0000
  H   H896      1.0  0.004477936472935928  0.37102175310248464  0.7220772458419858  1.0000
  H   H897      1.0  0.9807834004134558  0.3950366770014595  0.7160145490896926  1.0000
  H   H898      1.0  0.982145949011902  0.36841798922857105  0.689205871444356  1.0000
  H   H899      1.0  0.9813818905438912  0.4220792601259906  0.6686365695035446  1.0000
  H   H900      1.0  0.9835315868624435  0.3963848217827213  0.6402874328162781  1.0000
  H   H901      1.0  0.006118860966392692  0.4196933389760882  0.6396056669211598  1.0000
  H   H902      1.0  0.01342624148351268  0.4260672254279958  0.7129450402654688  1.0000
  H   H903      1.0  0.0376153266231245  0.4217249617020342  0.6831626021809943  1.0000
  H   H904      1.0  0.03689402683791765  0.40172284000475744  0.7182502080436047  1.0000
  N   N55       1.0  0.2898838316133694  0.3839410509341531  0.7603706437376719  1.0000
  C   C601      1.0  0.3007161221688905  0.4049496877112305  0.7435300349159806  1.0000
  C   C602      1.0  0.3096791878000859  0.36545841004313967  0.7695391478037115  1.0000
  C   C603      1.0  0.27196448630094644  0.3722805300947613  0.7379993488961597  1.0000
  C   C604      1.0  0.2771851372300162  0.39312799346371047  0.7905307094278097  1.0000
  H   H905      1.0  0.2864509932018651  0.41963586656626106  0.7371296144226169  1.0000
  H   H906      1.0  0.3101026348052126  0.3988303995978653  0.7203331279892153  1.0000
  H   H907      1.0  0.31468055915573606  0.41384807480182256  0.7595523926864108  1.0000
  H   H908      1.0  0.3022717209997973  0.3493753009562971  0.7824813382600916  1.0000
  H   H909      1.0  0.3198789567051664  0.3582432850813467  0.7474648296265538  1.0000
  H   H910      1.0  0.3234023572366805  0.3737003254203573  0.786551265631107  1.0000
  H   H911      1.0  0.2632468802777323  0.3565521580646621  0.7501298320673118  1.0000
  H   H912      1.0  0.2808843084292372  0.36504745305777636  0.7149736569573274  1.0000
  H   H913      1.0  0.25682928055829  0.3857892005080511  0.7305763288725767  1.0000
  H   H914      1.0  0.2693285608677901  0.3777875191365862  0.804507326841147  1.0000
  H   H915      1.0  0.2617308037949024  0.4066495760750002  0.7846188688662628  1.0000
  H   H916      1.0  0.29000331374113286  0.402723177632513  0.8074368399638027  1.0000
  N   N56       1.0  0.8414783084046731  0.5454622740728864  0.2616599355579289  1.0000
  C   C605      1.0  0.8505009806232737  0.5586706211821376  0.29134392286606153  1.0000
  C   C606      1.0  0.841003313458845  0.5624003926304005  0.23319069157790995  1.0000
  C   C607      1.0  0.816342217489898  0.5373272625491531  0.2676067531868587  1.0000
  C   C608      1.0  0.8580059367464816  0.5235073840912127  0.25454929377623486  1.0000
  H   H917      1.0  0.838282251396134  0.5752035602454929  0.29753252369235533  1.0000
  H   H918      1.0  0.8692886040840546  0.5654380273591809  0.28766834418704446  1.0000
  H   H919      1.0  0.8511663779903997  0.5465354254093463  0.31342990413509014  1.0000
  H   H920      1.0  0.8342626217969058  0.5531861477304089  0.2102787925005679  1.0000
  H   H921      1.0  0.8287880419389055  0.5792470011946229  0.23786833804940558  1.0000
  H   H922      1.0  0.8596622511580397  0.5690702568439067  0.22812194233420302  1.0000
  H   H923      1.0  0.808867233788184  0.5272774841240043  0.245781761193895  1.0000
  H   H924      1.0  0.8033784319557489  0.5534108691691776  0.27317710367538994  1.0000
  H   H925      1.0  0.8160411305931962  0.524551892992823  0.2889854672594367  1.0000
  H   H926      1.0  0.8771556031212414  0.5289252538917737  0.24990185390061836  1.0000
  H   H927      1.0  0.851702938825967  0.5130761819089384  0.23228873094067792  1.0000
  H   H928      1.0  0.8587184707599325  0.5103393715782517  0.27558225697115335  1.0000
  N   N57       1.0  0.7652918092408995  0.8027551376596553  0.8873049914129036  1.0000
  C   C609      1.0  0.7411267004123191  0.7948345410704558  0.8984768072776744  1.0000
  C   C610      1.0  0.7712071428670567  0.7907920932852021  0.8551055283230777  1.0000
  C   C611      1.0  0.7844402944986187  0.7953217317748608  0.9119375454162474  1.0000
  C   C612      1.0  0.7643433123830267  0.8300304462809567  0.8836708656444631  1.0000
  H   H929      1.0  0.7363457828549471  0.8027834238991947  0.9232160632935872  1.0000
  H   H930      1.0  0.7407573311450849  0.774245584463922  0.9001397008979468  1.0000
  H   H931      1.0  0.7261206944777044  0.8008263009737072  0.8809834630666101  1.0000
  H   H932      1.0  0.7893075498191884  0.7962845652323266  0.8457886495858706  1.0000
  H   H933      1.0  0.7719412463846771  0.7701687068561233  0.8568515950346766  1.0000
  H   H934      1.0  0.7570447077435545  0.7959783764469129  0.8360035557192179  1.0000
  H   H935      1.0  0.8029612662871383  0.8008678563192523  0.9042052718864092  1.0000
  H   H936      1.0  0.7854577817931666  0.774824494156056  0.9153121697041458  1.0000
  H   H937      1.0  0.7805546562758066  0.8041431652109177  0.9364966765276088  1.0000
  H   H938      1.0  0.7822461218646305  0.8367747543130301  0.8753562755625648  1.0000
  H   H939      1.0  0.75962745717746  0.8397689759541946  0.9073616212644384  1.0000
  H   H940      1.0  0.7501299451444158  0.8362148006318403  0.8651035054717827  1.0000
  N   N58       1.0  0.7406028657342748  0.7809953048468082  0.2416887476569684  1.0000
  C   C613      1.0  0.7597210981901252  0.7619378999081432  0.25127055445351626  1.0000
  C   C614      1.0  0.7175219721867392  0.7688591637973609  0.23304157536075978  1.0000
  C   C615      1.0  0.7488842140490146  0.7947984030364894  0.21285516544346805  1.0000
  C   C616      1.0  0.7361981042752199  0.7984610317305462  0.2696652460420144  1.0000
  H   H941      1.0  0.7775261072940163  0.7703337173443909  0.25747127629701155  1.0000
  H   H942      1.0  0.763012648408524  0.7478506699298219  0.23128437706851368  1.0000
  H   H943      1.0  0.7541968442353327  0.75178470366673  0.2735481211925853  1.0000
  H   H944      1.0  0.7026152927480875  0.7827509775952788  0.2259856518843956  1.0000
  H   H945      1.0  0.7200919562003791  0.7555964421296254  0.21196023232213773  1.0000
  H   H946      1.0  0.7107244314350986  0.7582658983932089  0.25421902331335905  1.0000
  H   H947      1.0  0.7346337473693335  0.809194457593997  0.20504736045127156  1.0000
  H   H948      1.0  0.7524669047637488  0.7822192329471193  0.19127256382823155  1.0000
  H   H949      1.0  0.7660339655416725  0.8045311967539679  0.2186516567643784  1.0000
  H   H950      1.0  0.7225859520951314  0.8136384203734502  0.2629708766688227  1.0000
  H   H951      1.0  0.753376416987416  0.8071891342025785  0.27795960214259974  1.0000
  H   H952      1.0  0.7287929284308966  0.7889372786967552  0.29130954015069277  1.0000
  N   N59       1.0  0.5200812354562392  0.06862509895707936  0.08248416539652277  1.0000
  C   C617      1.0  0.5235371110742668  0.0815611939950065  0.1145318883024444  1.0000
  C   C618      1.0  0.4949198321090313  0.07451527843797257  0.06961628213787296  1.0000
  C   C619      1.0  0.523570874974572  0.041514003152231194  0.08710334103259737  1.0000
  C   C620      1.0  0.5383422986107782  0.07691538760389172  0.058700665689888305  1.0000
  H   H953      1.0  0.5102140098109755  0.07563143735899791  0.1332055672395769  1.0000
  H   H954      1.0  0.520980430028379  0.102054630384812  0.1119774166237406  1.0000
  H   H955      1.0  0.5424854864200326  0.07785899026244669  0.12465137191262134  1.0000
  H   H956      1.0  0.49166601748305233  0.06502458816106405  0.04546535767463844  1.0000
  H   H957      1.0  0.48059505034626754  0.06852280075453376  0.0868989101584265  1.0000
  H   H958      1.0  0.49157134777666056  0.09483764271022377  0.06576017436005555  1.0000
  H   H959      1.0  0.5213746022363782  0.031092305692367983  0.0634030167178603  1.0000
  H   H960      1.0  0.509952201757172  0.03449273509411244  0.10465395435817693  1.0000
  H   H961      1.0  0.5422574372496667  0.036305671427604436  0.09710319046164143  1.0000
  H   H962      1.0  0.5365595932357351  0.06731431578680858  0.0343408967732668  1.0000
  H   H963      1.0  0.5575375503969406  0.07327305013284047  0.0679863751634946  1.0000
  H   H964      1.0  0.5361192241677196  0.09726267185038528  0.05441172053543708  1.0000
  N   N60       1.0  0.8292240528838193  0.4794148040460272  0.6728569722344606  1.0000
  C   C621      1.0  0.8495123891458425  0.46608667474518617  0.6909164091406819  1.0000
  C   C622      1.0  0.8327166387071618  0.4761769633417609  0.6368349889815434  1.0000
  C   C623      1.0  0.8291401495459689  0.5061387555721037  0.6815790630660342  1.0000
  C   C624      1.0  0.8055204252243321  0.46923888052688995  0.6821318096907167  1.0000
  H   H965      1.0  0.8500879972821085  0.445822586377849  0.6851776870276665  1.0000
  H   H966      1.0  0.8474193528526758  0.46838621986497414  0.7181737880197189  1.0000
  H   H967      1.0  0.8677305350426383  0.47318107543765675  0.6844111387037225  1.0000
  H   H968      1.0  0.8504105914789546  0.4836582018899325  0.6289080347498901  1.0000
  H   H969      1.0  0.8329885809945161  0.4562321637169144  0.6292998667564457  1.0000
  H   H970      1.0  0.8177542778827438  0.4860790325030062  0.6225257472763202  1.0000
  H   H971      1.0  0.8139315219885264  0.5168289557063249  0.6687817566820946  1.0000
  H   H972      1.0  0.8467544560384479  0.5143645389968458  0.6746537854575937  1.0000
  H   H973      1.0  0.8268355449874268  0.5092846017165191  0.7086347973111898  1.0000
  H   H974      1.0  0.789696211460593  0.4792171499966598  0.6696544868795873  1.0000
  H   H975      1.0  0.8024913966037577  0.4708814430487945  0.709222774500101  1.0000
  H   H976      1.0  0.804911264497175  0.44917188222946564  0.6754877761171174  1.0000
  N   N61       1.0  0.7394687047732682  0.32271618879305863  0.8933238465920427  1.0000
  C   C625      1.0  0.7254808901299973  0.3021009693089152  0.906167223402854  1.0000
  C   C626      1.0  0.7253649505341522  0.3464663818856163  0.8990595443281972  1.0000
  C   C627      1.0  0.7433810203727789  0.31896518145043035  0.8574893783410709  1.0000
  C   C628      1.0  0.7635959365610695  0.32336889774232785  0.9104468052176097  1.0000
  H   H977      1.0  0.7350286567628123  0.283706837169479  0.9012881701098434  1.0000
  H   H978      1.0  0.7068793564315867  0.301565748048703  0.8943691300348933  1.0000
  H   H979      1.0  0.7226336064415967  0.3038636585664259  0.9332987030154337  1.0000
  H   H980      1.0  0.7349841925263497  0.36239584131887315  0.8887817480963301  1.0000
  H   H981      1.0  0.7068521053862078  0.34635424548807975  0.8869540943361196  1.0000
  H   H982      1.0  0.722402311405529  0.35016902644777903  0.9258634357433356  1.0000
  H   H983      1.0  0.7532307394668446  0.33451835803588265  0.8465657586970201  1.0000
  H   H984      1.0  0.7255514020263506  0.3179107734420931  0.8440548487623103  1.0000
  H   H985      1.0  0.7542252506332554  0.3013967160791512  0.8520758747019912  1.0000
  H   H986      1.0  0.7745791487885622  0.3386801016686282  0.9010578073583442  1.0000
  H   H987      1.0  0.7746393505495475  0.3056590735176087  0.9066641871244312  1.0000
  H   H988      1.0  0.7613823252965461  0.3263169694075676  0.9375546114578323  1.0000
  N   N62       1.0  0.07351995604617989  0.4326114148465238  0.49072865427671547  1.0000
  C   C629      1.0  0.08447188719331944  0.43374856810716483  0.45752711850409206  1.0000
  C   C630      1.0  0.06974159597193585  0.45803172502890876  0.5044385627962594  1.0000
  C   C631      1.0  0.09031618091336746  0.4178710271267808  0.5126971254306635  1.0000
  C   C632      1.0  0.049551116473772305  0.4208163591122662  0.4883384263347018  1.0000
  H   H989      1.0  0.08771192598851618  0.4148811347440328  0.44649360486490697  1.0000
  H   H990      1.0  0.10261086366823347  0.4425860766828417  0.4586000654698749  1.0000
  H   H991      1.0  0.07237026715377293  0.4447901126030561  0.4402567547473893  1.0000
  H   H992      1.0  0.057016785851403684  0.46962918226051026  0.4886331683664414  1.0000
  H   H993      1.0  0.06172342989291191  0.4578235274693299  0.5296285630666484  1.0000
  H   H994      1.0  0.0874436370045506  0.4675611158305929  0.5064263835832878  1.0000
  H   H995      1.0  0.09336375834494959  0.3984704395569324  0.5034459328385033  1.0000
  H   H996      1.0  0.08289122692685846  0.4169626238182468  0.5381097366284805  1.0000
  H   H997      1.0  0.10867420173372144  0.426075756608574  0.5148028893495914  1.0000
  H   H998      1.0  0.051639689438300884  0.40153664675900497  0.47827999855088765  1.0000
  H   H999      1.0  0.03634381711489221  0.4314718508927466  0.4720444746205755  1.0000
  H   H1000     1.0  0.040864943010157306  0.41981247032151764  0.5130342161174402  1.0000
  N   N63       1.0  0.17496690639231413  0.49852240084416577  0.7425569922662021  1.0000
  C   C633      1.0  0.16543158829791202  0.4769498032425442  0.7596112541911912  1.0000
  C   C634      1.0  0.18916754399797117  0.513367807657061  0.7663604366286992  1.0000
  C   C635      1.0  0.15414728816670598  0.5139769585151822  0.7289847638387975  1.0000
  C   C636      1.0  0.1912117159092266  0.48974728408019946  0.7153427665024672  1.0000
  H   H1001     1.0  0.15257038963990824  0.4828461160626085  0.7797259394853063  1.0000
  H   H1002     1.0  0.18063594475052766  0.4654600971004549  0.7712288417933927  1.0000
  H   H1003     1.0  0.1554711151432463  0.4646998507463536  0.7421609663592657  1.0000
  H   H1004     1.0  0.19697674696767825  0.5297037936791439  0.7544282964755666  1.0000
  H   H1005     1.0  0.1776294404176372  0.5203925900787689  0.7873259622719425  1.0000
  H   H1006     1.0  0.20494734902603348  0.502157033706459  0.7771867345796938  1.0000
  H   H1007     1.0  0.16066562573078552  0.5306657653183195  0.7164145472844892  1.0000
  H   H1008     1.0  0.14129508685480344  0.5206456977773937  0.7487262335307581  1.0000
  H   H1009     1.0  0.1432978903630543  0.5034191969167761  0.710474597201906  1.0000
  H   H1010     1.0  0.1982435415200495  0.5055573228035593  0.701407396521693  1.0000
  H   H1011     1.0  0.18140072194895493  0.47773970345185435  0.6973857153399655  1.0000
  H   H1012     1.0  0.20748105301718553  0.4786723774011596  0.7249128077503193  1.0000
  N   N64       1.0  0.1896368278313266  0.5120779041881491  0.2189538969036512  1.0000
  C   C637      1.0  0.17207749481504367  0.5007691833186534  0.1958624498936683  1.0000
  C   C638      1.0  0.1886280537648502  0.5392244725299579  0.21437968554579304  1.0000
  C   C639      1.0  0.2147771283946422  0.5018294503705509  0.2121013694256594  1.0000
  C   C640      1.0  0.18297121181064002  0.5064590524797771  0.25328482286136805  1.0000
  H   H1013     1.0  0.1719699912019788  0.4803809755825809  0.19910844459712876  1.0000
  H   H1014     1.0  0.17681688967911355  0.5041129326649029  0.1696457888395585  1.0000
  H   H1015     1.0  0.15296469349236083  0.5084928464712772  0.19977050011598968  1.0000
  H   H1016     1.0  0.20161336385977882  0.5483556774541375  0.2316335201231536  1.0000
  H   H1017     1.0  0.19345894299380295  0.5439287526924068  0.1886105272669045  1.0000
  H   H1018     1.0  0.16978776519631567  0.5474545504899593  0.21897288802714546  1.0000
  H   H1019     1.0  0.22859010565981322  0.5100649580564223  0.22898531705406452  1.0000
  H   H1020     1.0  0.22026551065542307  0.5055636844673084  0.1862999499805516  1.0000
  H   H1021     1.0  0.21612386112385004  0.4813599134867395  0.21543579851733136  1.0000
  H   H1022     1.0  0.19564425235411784  0.5149412110539368  0.27149097846457654  1.0000
  H   H1023     1.0  0.18391072756090968  0.48613679532153264  0.25768853556640103  1.0000
  H   H1024     1.0  0.16392369650239996  0.5134834685204621  0.2590745308856109  1.0000
