data_image0
_chemical_formula_structural       FeS2FeS2FeSFeS3FeS2FeS2FeSFeS3FeS2FeS2FeSFeS3FeS2FeS2FeSFeS3FeS2FeS2FeSFeS3FeS2FeS2FeSFeS3FeS2FeS2FeSFeS3FeS2FeS2FeSFeS3FeS2FeS2FeSFeS3FeS2FeS2FeSFeS3FeS2FeS2FeSFeS3FeS2FeS2FeSFeS3FeS2FeS2FeSFeS3FeS2FeS2FeSFeS3FeS2FeS2FeSFeS3FeS2FeS2FeSFeS3FeS2FeS2FeSFeS3FeS2FeS2FeSFeS3FeS2FeS2FeSFeS3FeS2FeS2FeSFeS3FeS2FeS2FeSFeS3FeS2FeS2FeSFeS3FeS2FeS2FeSFeS3FeS2FeS2FeSFeS3C6H4C6H4C6H4C6H4C6H4C6H4C6H4C6H4C6H4C6H4C6H4C6H4C6H4C6H4C6H4C6H4C6H4C6H4C6H4C6H4C6H4C6H4C6H4C6H4C6H4C6H4C6H4C6H4C6H4C6H4C6H4C6H4C6H4C6H4C6H4C6H4C6H4C6H4C6H4C6H4C6H4C6H4C6H4C6H4C6H4C6H4C6H4C6H4NC4H12NC4H12NC4H12NC4H12NC4H12NC4H12NC4H12NC4H12NC4H12NC4H12NC4H12NC4H12NC4H12NC4H12NC4H12NC4H12NC4H12NC4H12NC4H12NC4H12NC4H12NC4H12NC4H12NC4H12NC4H12NC4H12NC4H12NC4H12NC4H12NC4H12NC4H12NC4H12NC4H12NC4H12NC4H12NC4H12NC4H12NC4H12NC4H12NC4H12NC4H12NC4H12NC4H12NC4H12NC4H12NC4H12NC4H12NC4H12
_chemical_formula_sum              "Fe96 S192 C480 H768 N48"
_cell_length_a       49.52521474957033
_cell_length_b       52.72801650942954
_cell_length_c       28.525350527065292
_cell_angle_alpha    92.36429526832904
_cell_angle_beta     91.53652890586959
_cell_angle_gamma    88.38421221427076

_space_group_name_H-M_alt    "P 1"
_space_group_IT_number       1

loop_
  _space_group_symop_operation_xyz
  'x, y, z'

loop_
  _atom_site_type_symbol
  _atom_site_label
  _atom_site_symmetry_multiplicity
  _atom_site_fract_x
  _atom_site_fract_y
  _atom_site_fract_z
  _atom_site_occupancy
  Fe  Fe1       1.0  0.7209716556779464  0.980503915889683  0.15580858274157872  1.0000
  S   S1        1.0  0.7264988085404814  0.0095693553811933  0.21420413815374184  1.0000
  S   S2        1.0  0.7579667842610576  0.9688131260628103  0.11548430231924711  1.0000
  Fe  Fe2       1.0  0.6624584257728519  0.9724038594398388  0.17852144537908346  1.0000
  S   S3        1.0  0.6628768015541181  0.0008774243722236008  0.23913339517435578  1.0000
  S   S4        1.0  0.6253327277490844  0.9494862473903233  0.16434416601825022  1.0000
  Fe  Fe3       1.0  0.6857787835519499  0.024366581304563484  0.19094813142214526  1.0000
  S   S5        1.0  0.678956816563911  0.06638168821685175  0.18977537539299227  1.0000
  Fe  Fe4       1.0  0.7033429653455407  0.9835198804318128  0.257011560302305  1.0000
  S   S6        1.0  0.716076055861211  0.973069627138529  0.329859739321157  1.0000
  S   S7        1.0  0.6818965821476513  0.9975330084822813  0.1282557312276964  1.0000
  S   S8        1.0  0.7012295528414444  0.9528245685598314  0.20057966724119902  1.0000
  Fe  Fe5       1.0  0.49979652368709837  0.0175922692320738  0.11902633937285885  1.0000
  S   S9        1.0  0.468638455198024  0.04906817031044275  0.11462157954828145  1.0000
  S   S10       1.0  0.530407135548413  0.010050550120336732  0.06373920227449603  1.0000
  Fe  Fe6       1.0  0.48217540691539584  0.002225053849719938  0.2145969658793376  1.0000
  S   S11       1.0  0.449351177884962  0.03239505243603902  0.21852870719942266  1.0000
  S   S12       1.0  0.4940190259643798  0.9740750066843535  0.26880597937313155  1.0000
  Fe  Fe7       1.0  0.44098632706080354  0.02073949556506194  0.14294472490802024  1.0000
  S   S13       1.0  0.3998055896444101  0.011846768667131302  0.11275939829571535  1.0000
  Fe  Fe8       1.0  0.48033098929523166  0.05725676604700092  0.18987931283787982  1.0000
  S   S14       1.0  0.4888194115299813  0.09644752706046056  0.21792537886451313  1.0000
  S   S15       1.0  0.4713951761985794  0.9884798885072571  0.14130635485298626  1.0000
  S   S16       1.0  0.5138861656155167  0.028135049793776234  0.19205823898149998  1.0000
  Fe  Fe9       1.0  0.5182781754690136  0.23253920405490075  0.07441295956424243  1.0000
  S   S17       1.0  0.5402735757157309  0.2583696271401821  0.12626941670526654  1.0000
  S   S18       1.0  0.4804997574603999  0.24320186176186884  0.03402235116081731  1.0000
  Fe  Fe10      1.0  0.5557390914769264  0.1878319944874873  0.09163372635614375  1.0000
  S   S19       1.0  0.5811918196497124  0.20912953910607468  0.14441208762656246  1.0000
  S   S20       1.0  0.5640098819771185  0.14653418880647484  0.0768004459239604  1.0000
  Fe  Fe11      1.0  0.5420527960268424  0.22478135232516  0.17201549885580988  1.0000
  S   S21       1.0  0.538810434367537  0.22609272812354578  0.2503096117292272  1.0000
  Fe  Fe12      1.0  0.5774365843272535  0.24052625164150812  0.09424545497626213  1.0000
  S   S22       1.0  0.614789356077374  0.2623463655574248  0.08450729537537782  1.0000
  S   S23       1.0  0.5165951604182685  0.20064065852855978  0.12322745554545117  1.0000
  S   S24       1.0  0.5554084476080271  0.2176561018062242  0.038020901979561206  1.0000
  Fe  Fe13      1.0  0.7950937736834746  0.20996804735675695  0.10596495954440588  1.0000
  S   S25       1.0  0.7536835170430871  0.227995942860299  0.10738145459924775  1.0000
  S   S26       1.0  0.8286244366096949  0.23557383219300557  0.09051390386698621  1.0000
  Fe  Fe14      1.0  0.7755714638085227  0.15860483104340184  0.1304366351429258  1.0000
  S   S27       1.0  0.7323476652299591  0.17225847678292697  0.13493080422744136  1.0000
  S   S28       1.0  0.7872738477071873  0.11769818276345057  0.1400768991922665  1.0000
  Fe  Fe15      1.0  0.7406724337241216  0.19220355433903513  0.06954920131017306  1.0000
  S   S29       1.0  0.7090373287421262  0.1894999826268219  0.012321266131351427  1.0000
  Fe  Fe16      1.0  0.7494529261547429  0.20648454925154824  0.17244312246816407  1.0000
  S   S30       1.0  0.7326279009486435  0.2262909187457306  0.23653549439190288  1.0000
  S   S31       1.0  0.7826180979347893  0.17607989707116603  0.06155541667574882  1.0000
  S   S32       1.0  0.7921065756347365  0.19098234976864098  0.1743530420986572  1.0000
  Fe  Fe17      1.0  0.05133933801712187  0.48921994628429555  0.21854260828717903  1.0000
  S   S33       1.0  0.0764445944795129  0.47858087926518206  0.15657257262698812  1.0000
  S   S34       1.0  0.06463686012051695  0.47971794069293683  0.2919962057943199  1.0000
  Fe  Fe18      1.0  0.0034364700924056635  0.5062993119081979  0.1583982476730644  1.0000
  S   S35       1.0  0.02360687844301368  0.4959148689405877  0.09049461582977925  1.0000
  S   S36       1.0  0.9596728573531171  0.5178254957081898  0.16259911066799915  1.0000
  Fe  Fe19      1.0  0.039124230665399606  0.46097976016668746  0.12578543001818376  1.0000
  S   S37       1.0  0.04278121781385691  0.42030911535809257  0.09954447921892928  1.0000
  Fe  Fe20      1.0  0.05933563298591227  0.5142986486487884  0.1263290089008858  1.0000
  S   S38       1.0  0.08774942517930762  0.536432439666169  0.085271912711798  1.0000
  S   S39       1.0  0.014928624534552126  0.4693849557812186  0.18965838488737644  1.0000
  S   S40       1.0  0.03811747879938898  0.5273334500340872  0.19213274291432927  1.0000
  Fe  Fe21      1.0  0.9975563461831475  0.6935623579089073  0.057991175546856066  1.0000
  S   S41       1.0  0.012251948686060832  0.7108982023162508  0.12640067366217766  1.0000
  S   S42       1.0  0.01699914091219501  0.7080991273623864  0.9945464577673304  1.0000
  Fe  Fe22      1.0  0.9617466160992977  0.657579001179183  0.10590882149391367  1.0000
  S   S43       1.0  0.9741044269268432  0.6713657047180096  0.1787357476813029  1.0000
  S   S44       1.0  0.9316288446953435  0.6272445193911383  0.09075834342035782  1.0000
  Fe  Fe23      1.0  0.969608284052666  0.7100596256541546  0.1486815659449865  1.0000
  S   S45       1.0  0.9541358799446074  0.7460493311631484  0.1847402058605377  1.0000
  Fe  Fe24      1.0  0.015703873370104482  0.6708372294515511  0.14923820854668257  1.0000
  S   S46       1.0  0.055377924329324646  0.6599197686202729  0.18337673791175169  1.0000
  S   S47       1.0  0.9540479166662447  0.6964609880053462  0.07773918472639196  1.0000
  S   S48       1.0  0.0037332152864448798  0.653350895645755  0.07912182089857889  1.0000
  Fe  Fe25      1.0  0.22496510163968983  0.6886712264568579  0.1333429787976026  1.0000
  S   S49       1.0  0.24870633851388835  0.6684033096146403  0.07601316542288661  1.0000
  S   S50       1.0  0.23646936865004817  0.6945316008491469  0.20961559169713104  1.0000
  Fe  Fe26      1.0  0.177560302888757  0.7007232252871858  0.07021839835908517  1.0000
  S   S51       1.0  0.19585231504278303  0.6814168818932324  0.007214097063797498  1.0000
  S   S52       1.0  0.13642857909491135  0.7189673189833519  0.0651295955564275  1.0000
  Fe  Fe27      1.0  0.20904134180710057  0.6507777212601162  0.05559837662249767  1.0000
  S   S53       1.0  0.20210330352673633  0.6105401447997866  0.02934707169870698  1.0000
  Fe  Fe28      1.0  0.23369302644517315  0.7006082221588406  0.03184033153216381  1.0000
  S   S54       1.0  0.2560718961539067  0.7201357970451534  0.9765960244308639  1.0000
  S   S55       1.0  0.1867404822229325  0.6682459642910229  0.11647570928691962  1.0000
  S   S56       1.0  0.2141562214285182  0.7226397145033071  0.09125571944904509  1.0000
  Fe  Fe29      1.0  0.18848313376448628  0.4383355077562514  0.19022075245470332  1.0000
  S   S57       1.0  0.22962410381407092  0.454671334828674  0.19687360473136714  1.0000
  S   S58       1.0  0.16578227723316105  0.42964776008082284  0.25439729028277197  1.0000
  Fe  Fe30      1.0  0.1843694481955099  0.4457877672375563  0.08482617918350055  1.0000
  S   S59       1.0  0.22455780718705326  0.4640839988448749  0.0831515921265733  1.0000
  S   S60       1.0  0.15632356823495117  0.4408497516286546  0.022411268066613088  1.0000
  Fe  Fe31      1.0  0.23768344969278327  0.4324596302576509  0.1298090994636084  1.0000
  S   S61       1.0  0.27533630888775334  0.41022847551607566  0.11080040761817478  1.0000
  Fe  Fe32      1.0  0.21225042131162164  0.4845659785610766  0.1502468587931026  1.0000
  S   S62       1.0  0.21662020415909256  0.5249468984326574  0.17730515331412613  1.0000
  S   S63       1.0  0.19776762171129603  0.4130009573112096  0.12742793570346853  1.0000
  S   S64       1.0  0.17061252632601426  0.46922753598571193  0.14720540375740965  1.0000
  Fe  Fe33      1.0  0.3577263835813595  0.950271513686471  0.7617026858870384  1.0000
  S   S65       1.0  0.3148636852022474  0.9635295886189307  0.769351199128863  1.0000
  S   S66       1.0  0.3716712073952161  0.9293700219962283  0.6961885931410616  1.0000
  Fe  Fe34      1.0  0.3753761667047672  0.9751814881071966  0.8548319088216119  1.0000
  S   S67       1.0  0.3338653908696625  0.9905560381221932  0.8708465688429343  1.0000
  S   S68       1.0  0.41251289826926624  0.9862987474280821  0.8965883954873761  1.0000
  Fe  Fe35      1.0  0.32042660594109684  0.952356690706099  0.843768738234514  1.0000
  S   S69       1.0  0.2841044973456534  0.9344329041700454  0.8718348844451036  1.0000
  Fe  Fe36      1.0  0.3315847111696846  0.0003850235759801368  0.7953554281966648  1.0000
  S   S70       1.0  0.31045510674576415  0.03693581385161426  0.7769222294204154  1.0000
  S   S71       1.0  0.3623372074074018  0.9356482848301155  0.8344843285741609  1.0000
  S   S72       1.0  0.37444144878898594  0.9883573942278073  0.7813715558744017  1.0000
  Fe  Fe37      1.0  0.21156242340444364  0.8306078328669128  0.7327772565598729  1.0000
  S   S73       1.0  0.20878937338403172  0.7883206207310466  0.7386854109592691  1.0000
  S   S74       1.0  0.25198447513041583  0.8478173917348811  0.7234608443282381  1.0000
  Fe  Fe38      1.0  0.1509963315196351  0.8396138757655257  0.7334138538272695  1.0000
  S   S75       1.0  0.1430778246694428  0.7984378388522008  0.7394354497423915  1.0000
  S   S76       1.0  0.1144682081148627  0.8652663161289925  0.7280205258509772  1.0000
  Fe  Fe39      1.0  0.177335266530289  0.7986820387318696  0.7919641675171701  1.0000
  S   S77       1.0  0.16882212615617095  0.7835438081843501  0.862133862034818  1.0000
  Fe  Fe40      1.0  0.17461302548511395  0.7923325462031984  0.6858319027236214  1.0000
  S   S78       1.0  0.16458023837179903  0.7691781100382148  0.620764859476305  1.0000
  S   S79       1.0  0.18279300838021123  0.8406590737682144  0.7905484839498332  1.0000
  S   S80       1.0  0.18008040083483157  0.8336677776649332  0.6754179881640193  1.0000
  Fe  Fe41      1.0  0.3750418596977776  0.9743537007514952  0.4265798383937191  1.0000
  S   S81       1.0  0.3589782617486564  0.9959575447558897  0.3654161761628682  1.0000
  S   S82       1.0  0.419009096973619  0.9674150563261941  0.44326984891794063  1.0000
  Fe  Fe42      1.0  0.31964310988810357  0.9640964031640789  0.4618062876754039  1.0000
  S   S83       1.0  0.29834821166797865  0.9849010609727882  0.40410154546457605  1.0000
  S   S84       1.0  0.2957586468239369  0.9474288483214708  0.5181746071936981  1.0000
  Fe  Fe43      1.0  0.328710155964373  0.9651924171756172  0.3577312182894143  1.0000
  S   S85       1.0  0.3174240433594575  0.9519242173083835  0.2844651065844066  1.0000
  Fe  Fe44      1.0  0.330207457317483  0.013804223102895197  0.4169492224312331  1.0000
  S   S86       1.0  0.31872761304550273  0.05514346871089315  0.4182697568593416  1.0000
  S   S87       1.0  0.34742218141963055  0.9415534279911459  0.4141157782963057  1.0000
  S   S88       1.0  0.3488177019721595  0.9949556213007343  0.4793049820099643  1.0000
  Fe  Fe45      1.0  0.18356622954241375  0.8079321004502136  0.3380790611157938  1.0000
  S   S89       1.0  0.1856541720623338  0.8456252141497044  0.30483342033750266  1.0000
  S   S90       1.0  0.1582403123858688  0.7777224854831744  0.3027505840703783  1.0000
  Fe  Fe46      1.0  0.2234131754674663  0.8221156499655219  0.4155530133187063  1.0000
  S   S91       1.0  0.22970674261375537  0.8607636867246672  0.3887574733774309  1.0000
  S   S92       1.0  0.2462439171956029  0.8114358078398982  0.48093985878780976  1.0000
  Fe  Fe47      1.0  0.1847299249163559  0.8619942555792555  0.3784723115012513  1.0000
  S   S93       1.0  0.16404509002851878  0.8986494484746957  0.40111379983781004  1.0000
  Fe  Fe48      1.0  0.2302435536100211  0.8409703117862418  0.3179424860844442  1.0000
  S   S94       1.0  0.25734257420157625  0.8485720349087855  0.2587117380198925  1.0000
  S   S95       1.0  0.1781017411154323  0.8248626753101417  0.4109113615360253  1.0000
  S   S96       1.0  0.22839711708058136  0.8019791400672249  0.34553497969459857  1.0000
  Fe  Fe49      1.0  0.23482869725898836  0.37549343939258795  0.7961350189297264  1.0000
  S   S97       1.0  0.251056650077875  0.3429789157967237  0.7506106455189044  1.0000
  S   S98       1.0  0.220508109791  0.41439230671061644  0.7761749981795342  1.0000
  Fe  Fe50      1.0  0.2342400724762508  0.34451174199857837  0.8831270510276424  1.0000
  S   S99       1.0  0.2507862465136042  0.30953305762214717  0.8465889902585063  1.0000
  S   S100      1.0  0.21944380436471803  0.3415255898728757  0.9558764321576623  1.0000
  Fe  Fe51      1.0  0.278510866279514  0.3357964831303003  0.8129304712939577  1.0000
  S   S101      1.0  0.3222954822634714  0.32407558648829105  0.8091378016038046  1.0000
  Fe  Fe52      1.0  0.22212787099139922  0.31955557879916585  0.7882675917500028  1.0000
  S   S102      1.0  0.19402921241524723  0.2911265055565019  0.7558962030537066  1.0000
  S   S103      1.0  0.2647019769939185  0.3703241920520356  0.8555454844177287  1.0000
  S   S104      1.0  0.20315322125354268  0.3525967258028974  0.827444274504663  1.0000
  Fe  Fe53      1.0  0.4041162132982453  0.14074668018482892  0.7595826826909374  1.0000
  S   S105      1.0  0.4417550567380552  0.15257480200468848  0.798959159642329  1.0000
  S   S106      1.0  0.40446048291092396  0.104475167759041  0.7158709695109566  1.0000
  Fe  Fe54      1.0  0.37154144446146053  0.18660389647612874  0.7944896629321628  1.0000
  S   S107      1.0  0.4060063865165504  0.2022807161895036  0.8381762860605786  1.0000
  S   S108      1.0  0.3304534992375637  0.204908077356863  0.7841923177050845  1.0000
  Fe  Fe55      1.0  0.43053111774560116  0.19144881732414437  0.7750756283061843  1.0000
  S   S109      1.0  0.46054584179491087  0.21933802748775347  0.7528192329021339  1.0000
  Fe  Fe56      1.0  0.41398027513566293  0.16201922770101101  0.8582115383025914  1.0000
  S   S110      1.0  0.4270440866772204  0.14893970189222094  0.9295018148563932  1.0000
  S   S111      1.0  0.3954531603704643  0.17874142747733404  0.729872964212057  1.0000
  S   S112      1.0  0.3770734897598834  0.14720209256722197  0.8208743681479352  1.0000
  Fe  Fe57      1.0  0.20124077415818772  0.36908341560841584  0.5312635615829224  1.0000
  S   S113      1.0  0.2119372603898386  0.33602028190287403  0.5754526306154529  1.0000
  S   S114      1.0  0.1822017257911734  0.4042587607213046  0.564412522028539  1.0000
  Fe  Fe58      1.0  0.21662355250782034  0.3413977883351649  0.44105283294609293  1.0000
  S   S115      1.0  0.2280311339727925  0.30565660496587493  0.4771292295289759  1.0000
  S   S116      1.0  0.22434146354002038  0.34113682536482454  0.3638183407698135  1.0000
  Fe  Fe59      1.0  0.1908583982388688  0.3132425680182283  0.5187063442229962  1.0000
  S   S117      1.0  0.16746442119672392  0.2807617257818492  0.5431920969133142  1.0000
  Fe  Fe60      1.0  0.24825221585564952  0.3311549337189396  0.530935564496282  1.0000
  S   S118      1.0  0.28927128529513635  0.3201870447687402  0.5602892048926357  1.0000
  S   S119      1.0  0.17704573537158358  0.34665322540314986  0.47720754885832634  1.0000
  S   S120      1.0  0.23985893397927172  0.36668679282723654  0.49175201594864937  1.0000
  Fe  Fe61      1.0  0.4220249282298283  0.21862194748643987  0.4923753523999829  1.0000
  S   S121      1.0  0.3914505168372915  0.1923782151737434  0.5185760464270546  1.0000
  S   S122      1.0  0.44457743326193744  0.246088780895729  0.5400223760035929  1.0000
  Fe  Fe62      1.0  0.4122531973038581  0.2028702748755777  0.3898590387079054  1.0000
  S   S123      1.0  0.3802156088977827  0.17594140206621028  0.40730529345289407  1.0000
  S   S124      1.0  0.4203764398137467  0.20417927302801325  0.31252639774324165  1.0000
  Fe  Fe63      1.0  0.36586682699578515  0.20628308841795545  0.45851053174862705  1.0000
  S   S125      1.0  0.32149793322533043  0.21378767084110786  0.4676164453469589  1.0000
  Fe  Fe64      1.0  0.40869049457659606  0.16443769224297866  0.4651879149790564  1.0000
  S   S126      1.0  0.4180040535292488  0.12296428777489217  0.4737178241539092  1.0000
  S   S127      1.0  0.39503308808436843  0.23470869932427427  0.43559371502556793  1.0000
  S   S128      1.0  0.4419975317510335  0.18931875825721423  0.4445702576460454  1.0000
  Fe  Fe65      1.0  0.950908069812891  0.8371641825003895  0.781923239797473  1.0000
  S   S129      1.0  0.9716446866896428  0.8599109161340286  0.8397035750042479  1.0000
  S   S130      1.0  0.9404724660167895  0.8537859736316137  0.7122887592731427  1.0000
  Fe  Fe66      1.0  0.9453033769006512  0.7914821957363096  0.8413370993787553  1.0000
  S   S131      1.0  0.9652558374564116  0.8105582653940401  0.9039886458960416  1.0000
  S   S132      1.0  0.9308883111113279  0.7523526173296058  0.852323254527582  1.0000
  Fe  Fe67      1.0  0.9401849064720726  0.844611539916908  0.885314996339403  1.0000
  S   S133      1.0  0.9210466588290758  0.8688733469685085  0.9427297162989458  1.0000
  Fe  Fe68      1.0  0.9945675233062434  0.8235604546898118  0.8527025873975964  1.0000
  S   S134      1.0  0.0382907550884628  0.8193227668631576  0.8732041309787802  1.0000
  S   S135      1.0  0.9175759138574872  0.8245774189957219  0.8263864306862442  1.0000
  S   S136      1.0  0.9767091859838801  0.8018186028815427  0.790786990903553  1.0000
  Fe  Fe69      1.0  0.8112070973531215  0.9938063018012123  0.7831902145088301  1.0000
  S   S137      1.0  0.843298213128734  0.9645645864334648  0.8003539408554319  1.0000
  S   S138      1.0  0.8017342870159841  0.005590004426893724  0.7093460765647805  1.0000
  Fe  Fe70      1.0  0.8012552388504512  0.0073702140369065194  0.8866022152409504  1.0000
  S   S139      1.0  0.8336100155746599  0.9802333773961989  0.9115867061628178  1.0000
  S   S140      1.0  0.775651021015535  0.03130458816303938  0.9360496038777277  1.0000
  Fe  Fe71      1.0  0.8576408913605422  0.9940503413338712  0.8529314282014175  1.0000
  S   S141      1.0  0.9000562674657825  0.007469445042881828  0.8553992947429794  1.0000
  Fe  Fe72      1.0  0.8157673311125822  0.9537114518593613  0.8566240268216911  1.0000
  S   S142      1.0  0.8088933933434497  0.9129513675402519  0.8706842884050681  1.0000
  S   S143      1.0  0.826940176864431  0.023931829933097726  0.83318442593745  1.0000
  S   S144      1.0  0.7818240932143578  0.9800185037217014  0.8345800503399644  1.0000
  Fe  Fe73      1.0  0.9698729655351777  0.8385482771173635  0.447577836069981  1.0000
  S   S145      1.0  0.9931978514838135  0.8047219601122882  0.47328142676318946  1.0000
  S   S146      1.0  0.9249021622490982  0.8368702498134065  0.4519930005579871  1.0000
  Fe  Fe74      1.0  0.020465879658668307  0.864066875646576  0.41836595105841645  1.0000
  S   S147      1.0  0.04785401095690123  0.8320939653595566  0.4413523252830113  1.0000
  S   S148      1.0  0.03645524894872554  0.8998204859760055  0.39130202133502257  1.0000
  Fe  Fe75      1.0  0.016147767936144808  0.8073032065650522  0.4072399786639003  1.0000
  S   S149      1.0  0.025214383341945812  0.7705755036461349  0.36724796497699413  1.0000
  Fe  Fe76      1.0  0.02190127849224588  0.8330909971178806  0.5043836482217454  1.0000
  S   S150      1.0  0.03854637458169119  0.832692034954748  0.5780944627443092  1.0000
  S   S151      1.0  0.9907082093259401  0.8393613595422721  0.37908259050310095  1.0000
  S   S152      1.0  0.9966270021282451  0.8669674727073113  0.4841766740685904  1.0000
  Fe  Fe77      1.0  0.882944054467491  0.9885019332830062  0.4921472246663079  1.0000
  S   S153      1.0  0.9087530398517283  0.9717605621108167  0.434872322656492  1.0000
  S   S154      1.0  0.8947720124824923  0.9799136032877631  0.5661510202419753  1.0000
  Fe  Fe78      1.0  0.8448213581328059  0.01530196393026051  0.42500926928543586  1.0000
  S   S155      1.0  0.8670731037889416  0.0008283341991150994  0.36175530911510834  1.0000
  S   S156      1.0  0.8095907411615775  0.041846871573919975  0.4108375356904144  1.0000
  Fe  Fe79      1.0  0.8694790962371904  0.9638987365386325  0.397465553401996  1.0000
  S   S157      1.0  0.8604705045733526  0.9272561571622698  0.35870713752792477  1.0000
  Fe  Fe80      1.0  0.9041164912317714  0.010198554608843002  0.4045944498090822  1.0000
  S   S158      1.0  0.9379817476964116  0.02747802950225897  0.36790727956750247  1.0000
  S   S159      1.0  0.8437576091507069  0.9772533978048036  0.4573713784991219  1.0000
  S   S160      1.0  0.8818575135911  0.027886892061858903  0.465541291857393  1.0000
  Fe  Fe81      1.0  0.04662951510423241  0.36256045984661783  0.8525282606171658  1.0000
  S   S161      1.0  0.033312951603784  0.3307770109146577  0.8957036437993016  1.0000
  S   S162      1.0  0.050211040721732214  0.4030808765167933  0.8794507691461453  1.0000
  Fe  Fe82      1.0  0.058191771570782036  0.3274518351046737  0.7676590677028524  1.0000
  S   S163      1.0  0.04615801302051992  0.2929640758553706  0.803700466155086  1.0000
  S   S164      1.0  0.07337529424870826  0.31854367971584285  0.6957484303555429  1.0000
  Fe  Fe83      1.0  0.011574611007306057  0.3173965591144959  0.8294726563900965  1.0000
  S   S165      1.0  0.9685106113091718  0.3050564869668025  0.8235860206292795  1.0000
  Fe  Fe84      1.0  0.06918369226404564  0.30968167399312874  0.8654217101582997  1.0000
  S   S166      1.0  0.10276433759806114  0.2902724014732323  0.9049452578562627  1.0000
  S   S167      1.0  0.021836950030526214  0.35103205595561054  0.7883450868661864  1.0000
  S   S168      1.0  0.08408876734656201  0.34240258898355014  0.8270211955442752  1.0000
  Fe  Fe85      1.0  0.9063837558758093  0.17854169117344892  0.8060396992657193  1.0000
  S   S169      1.0  0.8721622817225153  0.19867922942282848  0.7688693806395014  1.0000
  S   S170      1.0  0.9500998911731297  0.1874344792250743  0.7991646680980313  1.0000
  Fe  Fe86      1.0  0.8690202876921886  0.14596166286750492  0.859208742387431  1.0000
  S   S171      1.0  0.8315975952335798  0.1634234218231876  0.8265680640059688  1.0000
  S   S172      1.0  0.8629980027672784  0.11816190850132272  0.9152429218581767  1.0000
  Fe  Fe87      1.0  0.8546376615742134  0.16001875915990252  0.7597634490015254  1.0000
  S   S173      1.0  0.8356855750494645  0.14648609805160692  0.6909987437655558  1.0000
  Fe  Fe88      1.0  0.8528389368952924  0.2000870964637326  0.8390676960140057  1.0000
  S   S174      1.0  0.8340023870378843  0.23588544457075689  0.8701287921330492  1.0000
  S   S175      1.0  0.8904837620428493  0.13948481044448077  0.7913587817573642  1.0000
  S   S176      1.0  0.8884215306553863  0.18298002582488632  0.877115172505386  1.0000
  Fe  Fe89      1.0  0.010763285056104133  0.3604246401002483  0.39027451619201214  1.0000
  S   S177      1.0  0.9931427688039359  0.3227042654799462  0.40403532659347585  1.0000
  S   S178      1.0  0.014865404192397458  0.37286254040267064  0.31671213818300403  1.0000
  Fe  Fe90      1.0  0.022570842940296876  0.3731897000934558  0.49163928059297546  1.0000
  S   S179      1.0  0.005776097319634577  0.33701696064516357  0.5149254321690852  1.0000
  S   S180      1.0  0.04090314623913849  0.39906268452910554  0.5471863156687863  1.0000
  Fe  Fe91      1.0  0.027908808056986256  0.31862662562078536  0.45511627253706755  1.0000
  S   S181      1.0  0.04624351828622841  0.28020769967164766  0.46867446929125284  1.0000
  Fe  Fe92      1.0  0.9723623931223165  0.34400048173796055  0.46285590339364313  1.0000
  S   S182      1.0  0.9322802705393707  0.33283708053947236  0.48898252073622894  1.0000
  S   S183      1.0  0.047776464373711525  0.3542744970606588  0.4356322172755697  1.0000
  S   S184      1.0  0.986790618658732  0.3824112692528149  0.44491726998119735  1.0000
  Fe  Fe93      1.0  0.8305304230259916  0.17905444147136437  0.401513825051954  1.0000
  S   S185      1.0  0.8488989742291585  0.18824915861010752  0.3336964221925952  1.0000
  S   S186      1.0  0.7883588767426247  0.16495676378881063  0.39905169900334575  1.0000
  Fe  Fe94      1.0  0.8822513614169605  0.1866694284015964  0.4574492935963835  1.0000
  S   S187      1.0  0.9054623409217976  0.1958484795376576  0.3942101492326438  1.0000
  S   S188      1.0  0.9044837763432844  0.18626889563886784  0.5269385558994057  1.0000
  Fe  Fe95      1.0  0.8688571240884645  0.2195133070419492  0.37587211639828294  1.0000
  S   S189      1.0  0.8751480978387184  0.25692965785085736  0.3438416364944546  1.0000
  Fe  Fe96      1.0  0.8836051708566218  0.1637016071029886  0.35808509143414863  1.0000
  S   S190      1.0  0.9030068819680589  0.13728679870944216  0.30438072222859075  1.0000
  S   S191      1.0  0.8469252152320219  0.21289731600992273  0.44198460132975337  1.0000
  S   S192      1.0  0.8637948351819817  0.15210475671930246  0.4231167526261835  1.0000
  C   C1        1.0  0.9153294500289041  0.3127312621400842  0.44828178605645924  1.0000
  C   C2        1.0  0.8984690743627505  0.29422954490254816  0.4642858204108248  1.0000
  C   C3        1.0  0.8860917323420904  0.2769948867017046  0.4322999266537166  1.0000
  C   C4        1.0  0.8898803812374213  0.2787528726770957  0.3841416707183102  1.0000
  C   C5        1.0  0.9062435120323257  0.2976281745973851  0.3680512655254413  1.0000
  C   C6        1.0  0.9193050170136007  0.31436117924556156  0.4001554439610207  1.0000
  H   H1        1.0  0.8953302958548851  0.29294464114350843  0.5015030091036172  1.0000
  H   H2        1.0  0.8733924823749517  0.2625584776277663  0.44494038735000707  1.0000
  H   H3        1.0  0.9093263684876508  0.2989579857626872  0.3308388033281501  1.0000
  H   H4        1.0  0.9321820568363699  0.3287250420635175  0.38763161013994635  1.0000
  C   C7        1.0  0.8545405805576137  0.15796036331608315  0.6454769927287014  1.0000
  C   C8        1.0  0.8423482749475452  0.16182025736794534  0.6013586883039281  1.0000
  C   C9        1.0  0.8575510499963317  0.17077508887962378  0.5648604746378798  1.0000
  C   C10       1.0  0.8849847369076086  0.175666308262413  0.5723889957617384  1.0000
  C   C11       1.0  0.8970760431773409  0.17194015465643855  0.6165784037573754  1.0000
  C   C12       1.0  0.881870554810978  0.16318857716907786  0.6531107415254264  1.0000
  H   H5        1.0  0.8210556594774986  0.15843472098648914  0.5957711133519792  1.0000
  H   H6        1.0  0.8480426482079121  0.17437975991545104  0.5311665550491375  1.0000
  H   H7        1.0  0.9182527661802599  0.17584314597821193  0.622626323853136  1.0000
  H   H8        1.0  0.8914366294044649  0.16037675244757477  0.6871016881825349  1.0000
  C   C13       1.0  0.06708996540561141  0.3422795707404676  0.6558800079001474  1.0000
  C   C14       1.0  0.0690049435630411  0.3359211894747244  0.6081309897669721  1.0000
  C   C15       1.0  0.06181930049794526  0.35382759019365356  0.5750787798177067  1.0000
  C   C16       1.0  0.05319582865109562  0.3783034902955743  0.5895195440984742  1.0000
  C   C17       1.0  0.052572025334801875  0.38514298298159244  0.6374263173046831  1.0000
  C   C18       1.0  0.059319820388436195  0.36698561954164066  0.6707955055857152  1.0000
  H   H9        1.0  0.07515050831872183  0.3168430172085574  0.5965239493941054  1.0000
  H   H10       1.0  0.062462519029682806  0.34842462357422954  0.5382293658922379  1.0000
  H   H11       1.0  0.04576820477246413  0.40405518918386923  0.6486895553503006  1.0000
  H   H12       1.0  0.057997290180811234  0.37195870376077145  0.7078660685710827  1.0000
  C   C19       1.0  0.9646773707351151  0.27246483885151096  0.8115838955593906  1.0000
  C   C20       1.0  0.9392853535404689  0.2637264511493422  0.7970559013785002  1.0000
  C   C21       1.0  0.9348561882980051  0.23761888378204166  0.7921660151210884  1.0000
  C   C22       1.0  0.9559839980544582  0.22011640202161908  0.8005613226682309  1.0000
  C   C23       1.0  0.9817403351444255  0.228869706454389  0.8129379063068275  1.0000
  C   C24       1.0  0.9860198589748246  0.255023862851535  0.8189625736356176  1.0000
  H   H13       1.0  0.9227748535349802  0.27715177820836506  0.7907934994152206  1.0000
  H   H14       1.0  0.9150599481959951  0.2311167737533661  0.7820305456742366  1.0000
  H   H15       1.0  0.9981354307700875  0.21539471063514004  0.8197224804386757  1.0000
  H   H16       1.0  0.0055011122892301145  0.26148741369876194  0.8313319325114155  1.0000
  C   C25       1.0  0.9284718010295266  0.05823637098194401  0.35131136434671395  1.0000
  C   C26       1.0  0.9079852890290948  0.07204643032862479  0.3747221341575881  1.0000
  C   C27       1.0  0.9005487265187403  0.0966231112807252  0.36135701592043223  1.0000
  C   C28       1.0  0.9130404296300626  0.10718976686100361  0.32363197510276037  1.0000
  C   C29       1.0  0.9331715975967855  0.09319997063398103  0.29966875126597625  1.0000
  C   C30       1.0  0.9411739572825345  0.06891895731539299  0.3139358535153239  1.0000
  H   H17       1.0  0.8981410426007698  0.06401232651049305  0.4036085774881596  1.0000
  H   H18       1.0  0.8848414862459836  0.10710231890133379  0.37971878222250677  1.0000
  H   H19       1.0  0.9428190313619378  0.10127238011395795  0.27034401290449733  1.0000
  H   H20       1.0  0.9569431492259054  0.05831673789568104  0.2955675220143345  1.0000
  C   C31       1.0  0.9077449610740983  0.8619626815782606  0.4248562930315033  1.0000
  C   C32       1.0  0.8800394747292403  0.8601512245892072  0.41508279668403053  1.0000
  C   C33       1.0  0.8657491646318692  0.8800871116381391  0.39387670571769834  1.0000
  C   C34       1.0  0.878963379289257  0.9021933391564427  0.3836720068427357  1.0000
  C   C35       1.0  0.906688797810443  0.904151153500166  0.3937914409553425  1.0000
  C   C36       1.0  0.9211996581072714  0.8838696979362295  0.4138925362389234  1.0000
  H   H21       1.0  0.86959124648942  0.8432847983118502  0.42375244687554553  1.0000
  H   H22       1.0  0.8443200649677389  0.8785765428662089  0.38621411546002266  1.0000
  H   H23       1.0  0.9169922510528815  0.9210496270261577  0.3850922984247708  1.0000
  H   H24       1.0  0.9426641704656171  0.8852468414273142  0.4212309215598236  1.0000
  C   C37       1.0  0.8954124022556647  0.03839937079440148  0.8790171475864794  1.0000
  C   C38       1.0  0.9066971581874491  0.05903827249337823  0.8580432172706919  1.0000
  C   C39       1.0  0.8977422391084622  0.08389817745978333  0.8704034145721641  1.0000
  C   C40       1.0  0.8779187201446473  0.08799754018168827  0.9042204067911725  1.0000
  C   C41       1.0  0.8684646357471248  0.06742251242886699  0.9277795670376063  1.0000
  C   C42       1.0  0.8767896213963114  0.04267553422699333  0.9145960809638854  1.0000
  H   H25       1.0  0.9212664327112706  0.055791637235261815  0.8307082270963987  1.0000
  H   H26       1.0  0.9058977076361134  0.0997914416856327  0.8533774937529475  1.0000
  H   H27       1.0  0.8539037801836924  0.07040078335335176  0.9550387484896772  1.0000
  H   H28       1.0  0.8681713542100196  0.02680963697298733  0.9311713195510244  1.0000
  C   C43       1.0  0.8277184302678217  0.998723903830012  0.6695118607471788  1.0000
  C   C44       1.0  0.8234616205722923  0.0034184995818045127  0.6218589058202626  1.0000
  C   C45       1.0  0.8440931789677081  0.9979980236620697  0.589799738066372  1.0000
  C   C46       1.0  0.8689734577464019  0.9877920376630533  0.6054168782937681  1.0000
  C   C47       1.0  0.8734260307103783  0.983650753783731  0.6530831884297433  1.0000
  C   C48       1.0  0.8528965250411679  0.9891983837169904  0.6849857299691353  1.0000
  H   H29       1.0  0.8040814036678512  0.01092965856696293  0.6096580757248622  1.0000
  H   H30       1.0  0.8406082312843968  0.0014847770848931408  0.5530535016077828  1.0000
  H   H31       1.0  0.8927919459542053  0.9761896851329441  0.6654177106793298  1.0000
  H   H32       1.0  0.8568608497428777  0.9865105675458354  0.7216145643690497  1.0000
  C   C49       1.0  0.9677430538500428  0.8483219917589352  0.6751164673504461  1.0000
  C   C50       1.0  0.9630501677919823  0.8407879181160977  0.6281157880572941  1.0000
  C   C51       1.0  0.9848035856123757  0.8363134954503634  0.5982162290815675  1.0000
  C   C52       1.0  0.011320351070514434  0.8393794191099084  0.6152107060621961  1.0000
  C   C53       1.0  0.015958561826896478  0.8473792416381188  0.6620390975711385  1.0000
  C   C54       1.0  0.9942054138681954  0.8515252741981627  0.6921626901935365  1.0000
  H   H33       1.0  0.9426611166641273  0.8377314564655577  0.61506641298635  1.0000
  H   H34       1.0  0.9809672956017114  0.8300635359277823  0.5622364117206052  1.0000
  H   H35       1.0  0.036270739857251044  0.8507162336305435  0.6749822442049462  1.0000
  H   H36       1.0  0.9978420497014967  0.857682059448548  0.7283409459349037  1.0000
  C   C55       1.0  0.8880081705491646  0.8791297577982781  0.9279864588508038  1.0000
  C   C56       1.0  0.878142735383733  0.9024734902895609  0.9464127403348964  1.0000
  C   C57       1.0  0.8535317217406467  0.9127415955459857  0.9294990618440585  1.0000
  C   C58       1.0  0.8383712631473602  0.8993129103664036  0.8951849503924396  1.0000
  C   C59       1.0  0.8472759228668394  0.8751664089217264  0.8793035669859686  1.0000
  C   C60       1.0  0.8721558967360222  0.8651552421612885  0.8955228740307567  1.0000
  H   H37       1.0  0.890047336959519  0.9131031271783985  0.9723803639365565  1.0000
  H   H38       1.0  0.8463321831068443  0.9310004571928165  0.943149335868399  1.0000
  H   H39       1.0  0.8353714249204488  0.8645225109989682  0.853345511530327  1.0000
  H   H40       1.0  0.8789353001206197  0.8465950402972424  0.8829457460314007  1.0000
  C   C61       1.0  0.13349593539283677  0.281321762968763  0.5241213296106538  1.0000
  C   C62       1.0  0.12094077817858168  0.30369364590177855  0.5087634314467131  1.0000
  C   C63       1.0  0.09403259220800386  0.30354753469896023  0.4920877053274302  1.0000
  C   C64       1.0  0.07964276859398267  0.2810571349705185  0.4907866951797168  1.0000
  C   C65       1.0  0.09207142362160425  0.25881549539504894  0.5069883660925962  1.0000
  C   C66       1.0  0.1189028413694959  0.25898626827971233  0.5239174425741503  1.0000
  H   H41       1.0  0.13187328551245034  0.32108917918209057  0.509864536576355  1.0000
  H   H42       1.0  0.08461639610174387  0.3207185068739251  0.4796656897817836  1.0000
  H   H43       1.0  0.08102561689295196  0.24138976050145378  0.5061616951557234  1.0000
  H   H44       1.0  0.12849849500141433  0.24167189717417165  0.5359658521199477  1.0000
  C   C67       1.0  0.298844272600287  0.2897152318029198  0.5393314377550592  1.0000
  C   C68       1.0  0.2792791174312081  0.27156752310662385  0.5295317879567104  1.0000
  C   C69       1.0  0.286533617233886  0.24803740321642795  0.5083769245530624  1.0000
  C   C70       1.0  0.3134698834470603  0.2424613998871666  0.49756089627533245  1.0000
  C   C71       1.0  0.3333179073805393  0.26016984395053816  0.5092336221963668  1.0000
  C   C72       1.0  0.32594025529165466  0.28391902509424904  0.5298395389509812  1.0000
  H   H45       1.0  0.2584766007652103  0.2757048270760168  0.5379818988024969  1.0000
  H   H46       1.0  0.27119427970655313  0.2342733437832647  0.4996000401726267  1.0000
  H   H47       1.0  0.35417819931867306  0.25588345728004697  0.5010698525383588  1.0000
  H   H48       1.0  0.3410485000818713  0.29810386747649725  0.5369873942014725  1.0000
  C   C73       1.0  0.4576566000717923  0.22539987988285248  0.6928369099733903  1.0000
  C   C74       1.0  0.46548524141710973  0.24889574301603412  0.6776328514865874  1.0000
  C   C75       1.0  0.461912815562381  0.25477909863103976  0.6303998876459185  1.0000
  C   C76       1.0  0.45070416856908324  0.23713684421939624  0.598024605132564  1.0000
  C   C77       1.0  0.4434958729756353  0.21333370631855356  0.6129190365965798  1.0000
  C   C78       1.0  0.44696732785761184  0.2074668318976538  0.6603757983082418  1.0000
  H   H49       1.0  0.4738765611934349  0.26277455893959395  0.7025042181173701  1.0000
  H   H50       1.0  0.4675914692563876  0.27316384410287287  0.6189638576603623  1.0000
  H   H51       1.0  0.4353726664816762  0.19941365281893436  0.5879422616336777  1.0000
  H   H52       1.0  0.44160616850412865  0.18899260827635364  0.6716547131358944  1.0000
  C   C79       1.0  0.16940825663265366  0.2871321074444879  0.797852152916641  1.0000
  C   C80       1.0  0.1428207413575271  0.28224869337309844  0.7834287949910655  1.0000
  C   C81       1.0  0.12247808536766414  0.28234123059916094  0.8166551309142462  1.0000
  C   C82       1.0  0.1287571610863103  0.2865162463805724  0.8644655593483206  1.0000
  C   C83       1.0  0.15557654496881979  0.29011268645364235  0.8790917183898603  1.0000
  C   C84       1.0  0.17580436444381276  0.2908526235167252  0.8457402199198193  1.0000
  H   H53       1.0  0.13765378266273465  0.27939852286066996  0.7465263877897469  1.0000
  H   H54       1.0  0.1018773933005288  0.27926628733021375  0.8051039855168066  1.0000
  H   H55       1.0  0.1605766398573225  0.2932548135336119  0.9159906696282938  1.0000
  H   H56       1.0  0.19630195982896362  0.29442975905143964  0.8572819429068921  1.0000
  C   C85       1.0  0.21274061070507952  0.4147064323990709  0.715826194532036  1.0000
  C   C86       1.0  0.190259925631901  0.4288652847606688  0.6998432380674343  1.0000
  C   C87       1.0  0.18159201599769445  0.4264519596044653  0.6526738744869047  1.0000
  C   C88       1.0  0.19548819276888316  0.40999454437925714  0.6213902720924752  1.0000
  C   C89       1.0  0.2188336711472249  0.3969319257008763  0.636798423416269  1.0000
  C   C90       1.0  0.22734502536459295  0.3991407282169971  0.6840662663787507  1.0000
  H   H57       1.0  0.1789629128803096  0.4409905927204961  0.7242512413855436  1.0000
  H   H58       1.0  0.16367646591486204  0.43678128935234184  0.6407950089258263  1.0000
  H   H59       1.0  0.23023828256509832  0.38490828402361504  0.6124510888649394  1.0000
  H   H60       1.0  0.2451658515069273  0.38871137271790623  0.6959128142225792  1.0000
  C   C91       1.0  0.3254298652548758  0.2913026042999676  0.7972452573789923  1.0000
  C   C92       1.0  0.30279665476126166  0.2774705177136203  0.7828201470888865  1.0000
  C   C93       1.0  0.3046324813636463  0.25093235976532197  0.7785585532676604  1.0000
  C   C94       1.0  0.3292023295514306  0.23816194880804137  0.7878988519045166  1.0000
  C   C95       1.0  0.35216837182296806  0.2520598644276653  0.8002116844779089  1.0000
  C   C96       1.0  0.35027979745143195  0.27864321315457485  0.8049178517107912  1.0000
  H   H61       1.0  0.2837846056146135  0.28717466763012567  0.7752722910044194  1.0000
  H   H62       1.0  0.2868922899577673  0.24023065474612504  0.7687349717268221  1.0000
  H   H63       1.0  0.3712754945249458  0.24237411628648234  0.8067813863394023  1.0000
  H   H64       1.0  0.3678966949584406  0.28933360648547674  0.8156270521138256  1.0000
  C   C97       1.0  0.12867211702317688  0.8983836924378631  0.3973473924163929  1.0000
  C   C98       1.0  0.11397862754529453  0.9209681597672735  0.40691584397388103  1.0000
  C   C99       1.0  0.08568778719829995  0.9213384037967544  0.40430788434962833  1.0000
  C   C100      1.0  0.07194546087558673  0.8990252738026687  0.39287030718797816  1.0000
  C   C101      1.0  0.08662976222447605  0.8763973454028927  0.38313103749217164  1.0000
  C   C102      1.0  0.11502570574690152  0.8760829931889296  0.38518705500445616  1.0000
  H   H65       1.0  0.12448903600664718  0.9382252532690466  0.4163544645416217  1.0000
  H   H66       1.0  0.07450127159622921  0.9388420222453243  0.4120204610882938  1.0000
  H   H67       1.0  0.07615190227500324  0.8592798128769882  0.3728003514450807  1.0000
  H   H68       1.0  0.12631143096856678  0.8586498365313654  0.37714409818833855  1.0000
  C   C103      1.0  0.34671935353827876  0.07441691209201884  0.4276407387950695  1.0000
  C   C104      1.0  0.34264132403910275  0.10034745486043417  0.438424572761857  1.0000
  C   C105      1.0  0.36461559219394024  0.11547644190038846  0.45161641646805106  1.0000
  C   C106      1.0  0.3907399634121438  0.10475811635842396  0.45338329859069143  1.0000
  C   C107      1.0  0.3949905226428104  0.07907374585975635  0.4405063303075318  1.0000
  C   C108      1.0  0.37295857974297597  0.06381938626984551  0.4280898974270148  1.0000
  H   H69       1.0  0.3223526391694669  0.10854913827627444  0.43837120494289766  1.0000
  H   H70       1.0  0.36111101767076254  0.1351886615775409  0.4622227969723932  1.0000
  H   H71       1.0  0.41522793325390356  0.0707901706972458  0.44135661968718626  1.0000
  H   H72       1.0  0.37621794034604267  0.04378723082977043  0.4198730566351542  1.0000
  C   C109      1.0  0.30275136471965847  0.9221642664807801  0.27868541328388924  1.0000
  C   C110      1.0  0.2970667762986524  0.9084119397093557  0.3180061955107957  1.0000
  C   C111      1.0  0.2834321951397447  0.8854399104047533  0.3122584766304966  1.0000
  C   C112      1.0  0.2757851156052776  0.8762595919761114  0.2672044920822872  1.0000
  C   C113      1.0  0.28232583732411537  0.8896499217612301  0.2279973904333624  1.0000
  C   C114      1.0  0.2955869809200851  0.9126727090594059  0.23375141809689484  1.0000
  H   H73       1.0  0.3028616732678085  0.9156066031862438  0.35277263319574403  1.0000
  H   H74       1.0  0.27901750228197914  0.8747940659975202  0.3425607247087338  1.0000
  H   H75       1.0  0.2764747844437493  0.8825577758581903  0.1931631324812276  1.0000
  H   H76       1.0  0.29992117243848654  0.9233163903835078  0.2033335849873944  1.0000
  C   C115      1.0  0.0932971843745025  0.855913894149606  0.7720038776350746  1.0000
  C   C116      1.0  0.10408528898764802  0.8411213830112743  0.8078951070414607  1.0000
  C   C117      1.0  0.08708712390482409  0.8306910275642818  0.8398705082506073  1.0000
  C   C118      1.0  0.0591800680623602  0.8348874185055851  0.8359503727022979  1.0000
  C   C119      1.0  0.04829508953304651  0.8502164649016368  0.800854064244834  1.0000
  C   C120      1.0  0.06542079004348089  0.8609323882025397  0.769037987880389  1.0000
  H   H77       1.0  0.1255849964101801  0.8374598883002394  0.8109515005484577  1.0000
  H   H78       1.0  0.09559971809651446  0.8189697634838918  0.8670650195661783  1.0000
  H   H79       1.0  0.026722874071743785  0.8535346125999611  0.7979050606736988  1.0000
  H   H80       1.0  0.057055854019114616  0.872532977060068  0.7415333243257017  1.0000
  C   C121      1.0  0.1890134739647611  0.7767531886094191  0.5808646423296593  1.0000
  C   C122      1.0  0.21333447055953053  0.7869660013821966  0.5976642657890124  1.0000
  C   C123      1.0  0.23167241898935204  0.79606527488455  0.5663648423844756  1.0000
  C   C124      1.0  0.2253117925902318  0.7958529769686825  0.5183520392360481  1.0000
  C   C125      1.0  0.20150825578461506  0.7846573089255063  0.5012625887875708  1.0000
  C   C126      1.0  0.18338228079249771  0.7749528785863212  0.5325432037821952  1.0000
  H   H81       1.0  0.21800576585669154  0.7879991924523133  0.6348962346815603  1.0000
  H   H82       1.0  0.25048757290983137  0.8037709942447149  0.5795464091507928  1.0000
  H   H83       1.0  0.19712532846506342  0.7833496968311614  0.46397532992201745  1.0000
  H   H84       1.0  0.16474126010388068  0.7667552972455148  0.5194043473796722  1.0000
  C   C127      1.0  0.3341041940290629  0.056255645520107755  0.7527317081375577  1.0000
  C   C128      1.0  0.35655772547551384  0.04517614989420027  0.7305465076058845  1.0000
  C   C129      1.0  0.37802218449657543  0.060139410982611885  0.7187941370492911  1.0000
  C   C130      1.0  0.3764740533495428  0.08640940114565905  0.727149555325092  1.0000
  C   C131      1.0  0.35300485159402145  0.097778555808288  0.7456529187147071  1.0000
  C   C132      1.0  0.33188478946392247  0.08266002329015154  0.7589793577677919  1.0000
  H   H85       1.0  0.3575017106360112  0.025008845941161262  0.7228043492505694  1.0000
  H   H86       1.0  0.39606538606633185  0.05125982347038783  0.7042547361497284  1.0000
  H   H87       1.0  0.3510999733075519  0.11818575109458061  0.7498083003698475  1.0000
  H   H88       1.0  0.31422891797892893  0.09138070769141882  0.7751892555460649  1.0000
  C   C133      1.0  0.35041082290081343  0.9346694467766238  0.6470221580956638  1.0000
  C   C134      1.0  0.32233328210719153  0.9366123923999787  0.6513680674548994  1.0000
  C   C135      1.0  0.3055845348958057  0.9406538153804322  0.6117508332381533  1.0000
  C   C136      1.0  0.31687477316000606  0.9428928737409995  0.5676990048967848  1.0000
  C   C137      1.0  0.3449150488652335  0.9408273998413087  0.5632387886507361  1.0000
  C   C138      1.0  0.36162415990782887  0.9364651308517423  0.6027744625937298  1.0000
  H   H89       1.0  0.31347384119511656  0.9342609129689985  0.6849769068015573  1.0000
  H   H90       1.0  0.2839023446446208  0.9421266010951315  0.6152592006779617  1.0000
  H   H91       1.0  0.3537834018839457  0.9422414415938315  0.5292230369636785  1.0000
  H   H92       1.0  0.38330533460588345  0.9347300805738687  0.5991194417438872  1.0000
  C   C139      1.0  0.2749965148198785  0.9103613151378775  0.8309266735180298  1.0000
  C   C140      1.0  0.2940536957950763  0.900070403493148  0.7997208282265216  1.0000
  C   C141      1.0  0.28675975754005717  0.8810223748287244  0.7665233910038296  1.0000
  C   C142      1.0  0.26025645845000894  0.8725210318934526  0.7638462473415522  1.0000
  C   C143      1.0  0.2410021461331838  0.8833663368634918  0.7941619658116604  1.0000
  C   C144      1.0  0.24844635749331093  0.9019894770976458  0.8282191387821046  1.0000
  H   H93       1.0  0.31459855937725417  0.9064863614908569  0.8014839653429153  1.0000
  H   H94       1.0  0.3018234834865269  0.8727464086572025  0.7432940601706799  1.0000
  H   H95       1.0  0.22034092863257407  0.8776563814317673  0.7911647671098859  1.0000
  H   H96       1.0  0.23354933890105845  0.9102047516997567  0.8518430238641944  1.0000
  C   C145      1.0  0.26435971893086957  0.3869158565870722  0.0700694354829523  1.0000
  C   C146      1.0  0.27406059713176273  0.3859494099640381  0.024400609169872967  1.0000
  C   C147      1.0  0.2610587541623843  0.3710755684595663  0.9892099292274726  1.0000
  C   C148      1.0  0.23840354512838993  0.35734579190633264  0.9998499404674507  1.0000
  C   C149      1.0  0.22993250093546053  0.357001974557912  0.04608627486422545  1.0000
  C   C150      1.0  0.24301088199392482  0.37169095701842453  0.08121353183517965  1.0000
  H   H97       1.0  0.2905726502978459  0.3978046544579023  0.015809986897552752  1.0000
  H   H98       1.0  0.2678952036967769  0.371131500857971  0.9537233281332371  1.0000
  H   H99       1.0  0.2127651144680926  0.3459737486611694  0.05461701516412587  1.0000
  H   H100      1.0  0.23611891022492282  0.37180672983080393  0.11687819143062383  1.0000
  C   C151      1.0  0.1823883860815954  0.4053802322005006  0.28510031711630107  1.0000
  C   C152      1.0  0.2025796300011834  0.39029196717492204  0.26367062872639996  1.0000
  C   C153      1.0  0.2152644952187245  0.3704780427679614  0.2879994713034348  1.0000
  C   C154      1.0  0.20818767450330022  0.3660466237146262  0.3341024177023782  1.0000
  C   C155      1.0  0.18823488749599263  0.38135437681675505  0.3557533566868778  1.0000
  C   C156      1.0  0.17509783495768466  0.4008344967073098  0.3310300368826957  1.0000
  H   H101      1.0  0.2084267976266702  0.39379543525323657  0.22831629696665703  1.0000
  H   H102      1.0  0.230779971138561  0.3587453299985581  0.27122573963171853  1.0000
  H   H103      1.0  0.18294033132676685  0.37804030719950676  0.3913979605709776  1.0000
  H   H104      1.0  0.15955305754402743  0.4125900957896495  0.3475597615932142  1.0000
  C   C157      1.0  0.20791450701210762  0.5867769237733294  0.07011493357103404  1.0000
  C   C158      1.0  0.21533579923760868  0.5929785758766761  0.11672570794328804  1.0000
  C   C159      1.0  0.21802602499425744  0.5738310350185716  0.14942985389832641  1.0000
  C   C160      1.0  0.21366253177467037  0.548440074245066  0.13549455464501212  1.0000
  C   C161      1.0  0.2064886916271111  0.5422095931369711  0.08882204438193142  1.0000
  C   C162      1.0  0.20352457116202852  0.5613729195812073  0.05621025092036014  1.0000
  H   H105      1.0  0.218874821319755  0.6125313246931913  0.1276409924475237  1.0000
  H   H106      1.0  0.22374776809164615  0.5786879138238025  0.18549732700476856  1.0000
  H   H107      1.0  0.20320851811199983  0.5226596010412509  0.0779313483182178  1.0000
  H   H108      1.0  0.19774728633136526  0.5565332342488588  0.020172608287128968  1.0000
  C   C163      1.0  0.21321200676322058  0.7156299089784761  0.23732559256293304  1.0000
  C   C164      1.0  0.1909885088512833  0.7253980191367196  0.21198765597562474  1.0000
  C   C165      1.0  0.17394554662241324  0.7441220817244084  0.23250410862545046  1.0000
  C   C166      1.0  0.17891562167381228  0.7531440124435967  0.2786593114271555  1.0000
  C   C167      1.0  0.2005613393210218  0.7427574721645445  0.3047580155238405  1.0000
  C   C168      1.0  0.21768098289409202  0.7239683769004489  0.28411095158350974  1.0000
  H   H109      1.0  0.18702550610171917  0.7187570635199209  0.176295908799576  1.0000
  H   H110      1.0  0.15740439178751658  0.7520711582269619  0.2119479363233077  1.0000
  H   H111      1.0  0.20418725107473706  0.74926523219707  0.3407861927295548  1.0000
  H   H112      1.0  0.23465616598203456  0.7162602166330201  0.30409467119229255  1.0000
  C   C169      1.0  0.23194374268207907  0.7370310314136045  0.9431744344762051  1.0000
  C   C170      1.0  0.20800199176895437  0.7457500939388864  0.9638979619789996  1.0000
  C   C171      1.0  0.18881877337941427  0.7597639926608889  0.9382483126906908  1.0000
  C   C172      1.0  0.19311776825974986  0.7647623266211573  0.8913678733183602  1.0000
  C   C173      1.0  0.2167487406090935  0.7555585709389723  0.8698929203326939  1.0000
  C   C174      1.0  0.23639298673336742  0.7420017066605729  0.8961007127437886  1.0000
  H   H113      1.0  0.20436854491432205  0.7420213220759118  4.921403529034585e-05  1.0000
  H   H114      1.0  0.17073079027203614  0.7669829344870698  0.9550653231950565  1.0000
  H   H115      1.0  0.21988279891527843  0.7587838448520879  0.8332790025301507  1.0000
  H   H116      1.0  0.2547217377530506  0.7348884944705504  0.8797577831844734  1.0000
  C   C175      1.0  0.07926868319454039  0.6741027909331759  0.14958227503537214  1.0000
  C   C176      1.0  0.10529546015850344  0.678640954905345  0.16752582788484238  1.0000
  C   C177      1.0  0.12303356255441684  0.692717020625366  0.14189033124989714  1.0000
  C   C178      1.0  0.11473070709307831  0.7018948354428123  0.09826281529530645  1.0000
  C   C179      1.0  0.08910381935145772  0.6965494664057741  0.07988706753405106  1.0000
  C   C180      1.0  0.07165581797189469  0.6823375060364091  0.1051237717299951  1.0000
  H   H117      1.0  0.11140512959188142  0.6720270245266157  0.2017287887771575  1.0000
  H   H118      1.0  0.14279783725237732  0.6970876865617599  0.1564830522372993  1.0000
  H   H119      1.0  0.08281086588425701  0.7029173980966807  0.04570048460968068  1.0000
  H   H120      1.0  0.052227504415399695  0.6779152138690281  0.08978898638413768  1.0000
  C   C181      1.0  0.993732801690638  0.7174388277216152  0.950962542055155  1.0000
  C   C182      1.0  0.0011901741633641993  0.7355489094956396  0.9196754027572793  1.0000
  C   C183      1.0  0.9820994618316129  0.7454984793827643  0.8878842556688479  1.0000
  C   C184      1.0  0.955608800176721  0.7369721017536134  0.8866719252181086  1.0000
  C   C185      1.0  0.9484935703575571  0.7177789508111067  0.9161398564524375  1.0000
  C   C186      1.0  0.9674835387818685  0.7082426631443336  0.948825483109992  1.0000
  H   H121      1.0  0.021448843687985386  0.7425864743311428  0.9211670391743847  1.0000
  H   H122      1.0  0.9877946891505619  0.7600878686615564  0.864801129042326  1.0000
  H   H123      1.0  0.9280506540626544  0.7110087260772231  0.914920705126876  1.0000
  H   H124      1.0  0.961784272441776  0.6939108466560145  0.9724491843188368  1.0000
  C   C187      1.0  0.9752413355761761  0.7533066004199823  0.233482745224043  1.0000
  C   C188      1.0  0.9907932722644556  0.7341681388666305  0.25459108170782274  1.0000
  C   C189      1.0  0.006190986519610808  0.739727726719332  0.29549611008643356  1.0000
  C   C190      1.0  0.006398413110758616  0.764489037921797  0.3151066899776729  1.0000
  C   C191      1.0  0.9915499029076003  0.783780202521241  0.2930854810485709  1.0000
  C   C192      1.0  0.9758672035414497  0.7781830687063198  0.25247602141324577  1.0000
  H   H125      1.0  0.9904889866227298  0.7149181047157838  0.24009401053812315  1.0000
  H   H126      1.0  0.01767674435367872  0.7247045124436289  0.31229470877713705  1.0000
  H   H127      1.0  0.9922788407185932  0.803042343608558  0.30691645570850334  1.0000
  H   H128      1.0  0.9642005333852429  0.7931241323430994  0.23581199404739428  1.0000
  C   C193      1.0  0.10684478815159393  0.5123532756937884  0.056136014787332655  1.0000
  C   C194      1.0  0.1350656021326353  0.5128463757588414  0.05763107574295878  1.0000
  C   C195      1.0  0.15025156728066258  0.49133059170027804  0.04297702189233932  1.0000
  C   C196      1.0  0.13735876031547267  0.46928963489898357  0.026787131001392513  1.0000
  C   C197      1.0  0.1092282417653916  0.46926011975573695  0.022194992049324066  1.0000
  C   C198      1.0  0.09397388199917844  0.49077916386148884  0.03716782146263342  1.0000
  H   H129      1.0  0.1453966184923292  0.5289167329040639  0.0733385741034489  1.0000
  H   H130      1.0  0.1720051341652402  0.49133234276584653  0.046909551685735185  1.0000
  H   H131      1.0  0.09917358366166586  0.45214131193731555  0.01023007222241934  1.0000
  H   H132      1.0  0.072217910764109  0.4902532788114187  0.035798888650601324  1.0000
  C   C199      1.0  0.9518080810832981  0.5491513322952807  0.14739480341165967  1.0000
  C   C200      1.0  0.9264517024936645  0.5545478991411188  0.12692161648937117  1.0000
  C   C201      1.0  0.9203226158002777  0.5787552789634797  0.11055086813307329  1.0000
  C   C202      1.0  0.9392566792022569  0.5979101336814501  0.1155620213337536  1.0000
  C   C203      1.0  0.9643084289358941  0.5929086838579006  0.13779358653225127  1.0000
  C   C204      1.0  0.9707379236104232  0.5683897346603439  0.1531947173246524  1.0000
  H   H133      1.0  0.9117590000625397  0.5397747538201894  0.12244904815282268  1.0000
  H   H134      1.0  0.9009097012002377  0.5825962780507857  0.09358138566241792  1.0000
  H   H135      1.0  0.9788762946558967  0.607783532300475  0.142273869984332  1.0000
  H   H136      1.0  0.9902518496759568  0.5643967830468146  0.1695614170717652  1.0000
  C   C205      1.0  0.055257074799086814  0.44840493891100724  0.3006990843919488  1.0000
  C   C206      1.0  0.050528964870157234  0.43199979205307787  0.26182227852692824  1.0000
  C   C207      1.0  0.038919861461199856  0.40848501930060993  0.267365442622621  1.0000
  C   C208      1.0  0.032595371751628965  0.40089773317845184  0.31202432364501265  1.0000
  C   C209      1.0  0.038812465429163945  0.4165503045873884  0.3515004977272041  1.0000
  C   C210      1.0  0.05008098157808294  0.4404131578899537  0.3457845705238155  1.0000
  H   H137      1.0  0.05521939172975254  0.43766737456573873  0.22713232386333396  1.0000
  H   H138      1.0  0.034149070365570466  0.39642970586056187  0.23679679320207148  1.0000
  H   H139      1.0  0.03376692781175206  0.4107907273703671  0.38608993577889084  1.0000
  H   H140      1.0  0.05353803691617953  0.45313553748029395  0.3759435991928849  1.0000
  C   C211      1.0  0.04522760742348075  0.4158788293323319  0.03845799740789735  1.0000
  C   C212      1.0  0.0491015681900544  0.391284682047776  0.01899286375367848  1.0000
  C   C213      1.0  0.0507419505833846  0.38725960717344665  0.9702416823007854  1.0000
  C   C214      1.0  0.04848526439000156  0.40777824529076784  0.9407072379648791  1.0000
  C   C215      1.0  0.04527238530154243  0.4324385340858733  0.9603023793529181  1.0000
  C   C216      1.0  0.04348945261528003  0.4364698416239849  0.009098831717777145  1.0000
  H   H141      1.0  0.05046229169218153  0.37528560951097373  0.04156508480255594  1.0000
  H   H142      1.0  0.05382395839380294  0.3682981538517064  0.9556591142234224  1.0000
  H   H143      1.0  0.043801914228567496  0.4484115690479763  0.9376618459998833  1.0000
  H   H144      1.0  0.040614568960356534  0.4554699875247202  0.02386283556091695  1.0000
  C   C217      1.0  0.8317880237842966  0.23554193442330534  0.02955332756865614  1.0000
  C   C218      1.0  0.829750130175329  0.25845909887839685  0.006553993939981462  1.0000
  C   C219      1.0  0.8304852307992968  0.258445073913081  0.9574750253609252  1.0000
  C   C220      1.0  0.8340512269275598  0.235588434491521  0.931428122772396  1.0000
  C   C221      1.0  0.8367728929797694  0.2126954306527452  0.9544693565677643  1.0000
  C   C222      1.0  0.8352434403618393  0.21264591421394335  0.003514318889203283  1.0000
  H   H145      1.0  0.8269249197849855  0.27616582554756386  0.026617040130265668  1.0000
  H   H146      1.0  0.8283161578186994  0.27616438538515986  0.9397014899513837  1.0000
  H   H147      1.0  0.8393135957293627  0.19493835301238416  0.9344873953235879  1.0000
  H   H148      1.0  0.8369707965324692  0.1948991369903134  0.02125880377879441  1.0000
  C   C223      1.0  0.745231224162809  0.20900638281287987  0.28388777869507137  1.0000
  C   C224      1.0  0.7523048371423918  0.22146558220096893  0.3265202252498141  1.0000
  C   C225      1.0  0.7654643133506783  0.20791123788648105  0.3622301811600635  1.0000
  C   C226      1.0  0.770314384434064  0.181716934153461  0.3560924865526888  1.0000
  C   C227      1.0  0.7621039684593198  0.16911106016737643  0.31424718910323624  1.0000
  C   C228      1.0  0.7500859837932619  0.18284139822776843  0.27782260740255565  1.0000
  H   H149      1.0  0.7485598105878748  0.2416993238867951  0.3313684201797877  1.0000
  H   H150      1.0  0.7718552252753859  0.2176860181636976  0.3945830682633769  1.0000
  H   H151      1.0  0.7655913397650147  0.14885885627929932  0.3096165495239626  1.0000
  H   H152      1.0  0.7445320788089858  0.1731878990672538  0.2450114982304535  1.0000
  C   C229      1.0  0.6404673303345031  0.24249645330215655  0.06142678343561703  1.0000
  C   C230      1.0  0.6348443642062132  0.218120060484614  0.043076513162834784  1.0000
  C   C231      1.0  0.6558250793996857  0.20213970229272027  0.02609823517665144  1.0000
  C   C232      1.0  0.6824869948588447  0.21021887824895133  0.029112129186266822  1.0000
  C   C233      1.0  0.6880605301148085  0.2345483353327467  0.04754229089124817  1.0000
  C   C234      1.0  0.6670436274096383  0.2507767715966599  0.06318717385779005  1.0000
  H   H153      1.0  0.6143542273646597  0.21160532643267446  0.04173127133829846  1.0000
  H   H154      1.0  0.6514633808532382  0.18335650108589052  0.011674925223246202  1.0000
  H   H155      1.0  0.708521768407687  0.24108531656616675  0.04911671381397298  1.0000
  H   H156      1.0  0.6714204225401262  0.26965201513178244  0.07715949249960574  1.0000
  C   C235      1.0  0.5057350685444987  0.22114726395228845  0.268181257400331  1.0000
  C   C236      1.0  0.5009099151119133  0.21672896712190443  0.3153057255429096  1.0000
  C   C237      1.0  0.47463144143431574  0.21210031741861196  0.32963313669744454  1.0000
  C   C238      1.0  0.45316501097435347  0.21172430805387765  0.2967604349746908  1.0000
  C   C239      1.0  0.4579432692810832  0.21658219925404637  0.2498424542817111  1.0000
  C   C240      1.0  0.4841409204275346  0.2213285383236607  0.2355804038533525  1.0000
  H   H157      1.0  0.51750985489483  0.21687072996463128  0.3407536362282402  1.0000
  H   H158      1.0  0.4710821522851392  0.20875736777827866  0.3660139797996594  1.0000
  H   H159      1.0  0.4412711540186026  0.21702307613282165  0.22459307894554195  1.0000
  H   H160      1.0  0.4875244223628534  0.22561305935917977  0.19956285423167056  1.0000
  C   C241      1.0  0.4649861931589205  0.2164795954782997  0.008119243180223279  1.0000
  C   C242      1.0  0.43946319467992434  0.21916863628085603  0.9863759563674278  1.0000
  C   C243      1.0  0.42753691627837115  0.1982787517236643  0.9628859230223518  1.0000
  C   C244      1.0  0.44097799887162364  0.17458981872260507  0.9616336935595435  1.0000
  C   C245      1.0  0.4662185585465366  0.17172589524955265  0.9843527874759065  1.0000
  C   C246      1.0  0.4782831750186593  0.192685496143559  0.0074363166665760705  1.0000
  H   H161      1.0  0.4291324001528405  0.23754036585498325  0.9869302376540305  1.0000
  H   H162      1.0  0.40796225661190133  0.2005213439367892  0.945558492574856  1.0000
  H   H163      1.0  0.4768454466942653  0.15349851851194626  0.9827820707217262  1.0000
  H   H164      1.0  0.4981356975550042  0.19051445768345035  0.023697504292311322  1.0000
  C   C247      1.0  0.5134705186018311  0.10867602799359033  0.1829398020128034  1.0000
  C   C248      1.0  0.522797258760497  0.13312999256033864  0.19275221789493788  1.0000
  C   C249      1.0  0.5398246735691636  0.14415902137558728  0.16140648216115247  1.0000
  C   C250      1.0  0.5469618394188155  0.13101921411289977  0.11972797320343934  1.0000
  C   C251      1.0  0.5390482061780218  0.10601161559974101  0.11137590276904259  1.0000
  C   C252      1.0  0.5224446354060613  0.09478758664380926  0.14317858035226624  1.0000
  H   H165      1.0  0.5164789086484612  0.14378558457649793  0.22400071832385582  1.0000
  H   H166      1.0  0.5471035574043961  0.16299950512498104  0.1693698055836996  1.0000
  H   H167      1.0  0.5449054847460687  0.09560360517937534  0.07957480104634351  1.0000
  H   H168      1.0  0.5160710698382104  0.07562796495053958  0.1359777200761569  1.0000
  C   C253      1.0  0.401838304238394  0.006078958065465434  0.05187157901291228  1.0000
  C   C254      1.0  0.38090782318294586  0.9940918198941606  0.02627548468392682  1.0000
  C   C255      1.0  0.3835409272238433  0.9883347163313867  0.9779683453013583  1.0000
  C   C256      1.0  0.40691895354733043  0.994983715701358  0.9554153615125014  1.0000
  C   C257      1.0  0.42718562307908375  0.007824864742819182  0.9806534395992226  1.0000
  C   C258      1.0  0.42488519334441344  0.012918931396431077  0.028790526726478305  1.0000
  H   H169      1.0  0.3629811738026329  0.988744650780436  0.04392516257716439  1.0000
  H   H170      1.0  0.3678164589495231  0.9782715553422835  0.9585839458155023  1.0000
  H   H171      1.0  0.44487299199166463  0.01362748805568259  0.9630153990421003  1.0000
  H   H172      1.0  0.4410616791926616  0.022115054636855147  0.047875369479385865  1.0000
  C   C259      1.0  0.43986952574421434  0.9701184980083863  0.39515615937912507  1.0000
  C   C260      1.0  0.43466376107596877  0.9887751350484818  0.36235801893078934  1.0000
  C   C261      1.0  0.4517347999113537  0.9906688339760736  0.3242214281658438  1.0000
  C   C262      1.0  0.4734872607199633  0.9734479529734885  0.3180091324039563  1.0000
  C   C263      1.0  0.4788561554498626  0.9550480302880215  0.3511827302800883  1.0000
  C   C264      1.0  0.4622568204460502  0.9535685717530717  0.3899466443440941  1.0000
  H   H173      1.0  0.41794116619426525  0.0021549791302839516  0.36714004133747064  1.0000
  H   H174      1.0  0.44800300589267994  0.005450455544306676  0.2998388781821496  1.0000
  H   H175      1.0  0.4957540073510486  0.9417820129356252  0.34683641557166883  1.0000
  H   H176      1.0  0.46645233703786526  0.9392674195474147  0.4155053360496206  1.0000
  C   C265      1.0  0.7099587481805212  0.07973116325864305  0.17844564260416718  1.0000
  C   C266      1.0  0.7154831319249575  0.10421243946932345  0.19606165928102492  1.0000
  C   C267      1.0  0.7396490267481536  0.1154767509333686  0.18526504469289562  1.0000
  C   C268      1.0  0.7583082420061605  0.10241023925431596  0.1566865066115044  1.0000
  C   C269      1.0  0.7533074367570962  0.07754222596158233  0.14044415118471074  1.0000
  C   C270      1.0  0.7290116923726988  0.06625826702027293  0.15106926811409807  1.0000
  H   H177      1.0  0.7013493786568229  0.11431909360724024  0.218757064699173  1.0000
  H   H178      1.0  0.7440649657762295  0.13415261191949138  0.19980374608663953  1.0000
  H   H179      1.0  0.767789160908118  0.06715751628342037  0.11879755670285307  1.0000
  H   H180      1.0  0.7247953068750435  0.047333637459351374  0.13719126073673016  1.0000
  C   C271      1.0  0.5995295139949736  0.9654359597604167  0.13309089165761465  1.0000
  C   C272      1.0  0.6049424821865637  0.9866561778834426  0.10738069723885824  1.0000
  C   C273      1.0  0.5837536871649794  0.9999181685558031  0.08467224786901983  1.0000
  C   C274      1.0  0.5570671698345935  0.9926119537362912  0.08942125324547257  1.0000
  C   C275      1.0  0.5516153152777429  0.9716320468061937  0.1157116730647919  1.0000
  C   C276      1.0  0.5728993001334427  0.9575993916932185  0.13623912233317254  1.0000
  H   H181      1.0  0.6254143992034638  0.9927999988455315  0.10472621127647397  1.0000
  H   H182      1.0  0.5879760511897114  0.0162684977208436  0.06462634976164261  1.0000
  H   H183      1.0  0.5310224229830232  0.9660546570342909  0.11997956269673109  1.0000
  H   H184      1.0  0.5686476778394702  0.9410311067127038  0.15563147526164484  1.0000
  C   C277      1.0  0.7396697086829465  0.9938116335978326  0.3559346175137553  1.0000
  C   C278      1.0  0.756189334519538  0.9855536226034753  0.3931287486869859  1.0000
  C   C279      1.0  0.777263668011888  0.000623370404265744  0.4108617468557627  1.0000
  C   C280      1.0  0.7815857511637533  0.02418400843443269  0.39204131044675766  1.0000
  C   C281      1.0  0.764194716405447  0.033078807895323914  0.3565118724214985  1.0000
  C   C282      1.0  0.7433216356475117  0.01781692581404304  0.3382698158366996  1.0000
  H   H185      1.0  0.7531237946752051  0.9672018232117716  0.40749012161467546  1.0000
  H   H186      1.0  0.789993715551244  0.9940335627084256  0.4393677417945128  1.0000
  H   H187      1.0  0.7672099828602555  0.05145517665256194  0.34229405640807364  1.0000
  H   H188      1.0  0.7299930207208872  0.02470266684465372  0.31076608548844054  1.0000
  C   C283      1.0  0.7639313706885873  0.9891401522811216  0.06989656063529881  1.0000
  C   C284      1.0  0.7432927861158123  0.0050399809476102675  0.05236908295321174  1.0000
  C   C285      1.0  0.7473035380026507  0.018752257841828657  0.012162234943646766  1.0000
  C   C286      1.0  0.771984723658127  0.01658110414813385  0.9894305384312881  1.0000
  C   C287      1.0  0.7931554180494021  0.0019560629546944153  0.008684435274578517  1.0000
  C   C288      1.0  0.7890809052896698  0.9880937266607431  0.04864183272753908  1.0000
  H   H189      1.0  0.7239286488784775  0.006170577700681745  0.06868262662801694  1.0000
  H   H190      1.0  0.7309492820449911  0.030309156183868202  0.997753902742123  1.0000
  H   H191      1.0  0.8127097508293242  0.0013537746382168425  0.9929749209362965  1.0000
  H   H192      1.0  0.8053383264759145  0.9762828946989979  0.06266651488559272  1.0000
  N   N1        1.0  0.3994210130558187  0.07163797935581195  0.8763177330571796  1.0000
  C   C289      1.0  0.4128327998736423  0.06731177183705195  0.9223199767761892  1.0000
  C   C290      1.0  0.3923435565945881  0.04698097629990339  0.8533684422898624  1.0000
  C   C291      1.0  0.4179207309513921  0.08490908919053886  0.8463852681898109  1.0000
  C   C292      1.0  0.37457639752635197  0.08740030382858266  0.8831594234172111  1.0000
  H   H193      1.0  0.3994303448243264  0.05730856183124278  0.9458340071196627  1.0000
  H   H194      1.0  0.41854084940334757  0.08559143871593133  0.9404671755338301  1.0000
  H   H195      1.0  0.43157027146681315  0.055351184499542905  0.918294791933987  1.0000
  H   H196      1.0  0.3817130491651367  0.049577795018790116  0.8190334146201661  1.0000
  H   H197      1.0  0.4106358048685455  0.034737441584873796  0.8466833286255129  1.0000
  H   H198      1.0  0.3788444806158644  0.03616699636483389  0.8753851662682894  1.0000
  H   H199      1.0  0.4083441013471284  0.088673560700129  0.811579999396929  1.0000
  H   H200      1.0  0.43678502355542537  0.07350073251742129  0.8398990672955978  1.0000
  H   H201      1.0  0.42377039638503644  0.10357496581700554  0.8627304507866952  1.0000
  H   H202      1.0  0.3640005473048659  0.09101385843102183  0.8490101185193675  1.0000
  H   H203      1.0  0.37922427288009297  0.10621492117055253  0.9003052168625885  1.0000
  H   H204      1.0  0.36008047650097275  0.07794463187109502  0.9054321985525043  1.0000
  N   N2        1.0  0.9586323315622656  0.44725330279478115  0.28311930746982006  1.0000
  C   C293      1.0  0.938053868118993  0.43936721652984156  0.31577212398185667  1.0000
  C   C294      1.0  0.9466190852290295  0.46645268034666887  0.25179282968090566  1.0000
  C   C295      1.0  0.9682576955197256  0.42482889534214957  0.2548087901142274  1.0000
  C   C296      1.0  0.9815808799885093  0.45826199112329985  0.3103761027801423  1.0000
  H   H205      1.0  0.9465284837939846  0.4248344871817177  0.33984347582347246  1.0000
  H   H206      1.0  0.9204444491914655  0.43089936469210055  0.2964651128127319  1.0000
  H   H207      1.0  0.9303866576769072  0.4557608649387338  0.3379125271397871  1.0000
  H   H208      1.0  0.9615324400868028  0.4728524168773172  0.22662840889856822  1.0000
  H   H209      1.0  0.9292512203134274  0.45886118637356854  0.23057641455637634  1.0000
  H   H210      1.0  0.939307273575186  0.48373427625882237  0.27188163575847174  1.0000
  H   H211      1.0  0.9844672928623392  0.4297502066408185  0.23079489969805528  1.0000
  H   H212      1.0  0.9516561677089073  0.4163474126362692  0.2328893213569298  1.0000
  H   H213      1.0  0.9767999997946846  0.4097309949141713  0.27749160003102047  1.0000
  H   H214      1.0  0.9907763418211432  0.44438063734168626  0.33486936915287324  1.0000
  H   H215      1.0  0.9752234816567232  0.47546729661268905  0.3316085638535081  1.0000
  H   H216      1.0  0.9978437572764756  0.46396977826575464  0.28710615014709473  1.0000
  N   N3        1.0  0.11106475700341223  0.39052736817909084  0.16971830886709158  1.0000
  C   C297      1.0  0.1143092621388846  0.388855192838051  0.11829262660044293  1.0000
  C   C298      1.0  0.08673188503625306  0.3768761257168684  0.18204613608582312  1.0000
  C   C299      1.0  0.10799173738113099  0.4174803765722011  0.18530492703748894  1.0000
  C   C300      1.0  0.13512950102736299  0.37905944045564693  0.19322566002130342  1.0000
  H   H217      1.0  0.09642859193800568  0.3973979164482765  0.09963545826479692  1.0000
  H   H218      1.0  0.11668750265715633  0.3688007978442413  0.10512309495685133  1.0000
  H   H219      1.0  0.1322843479091964  0.39936266268172027  0.10792894303040429  1.0000
  H   H220      1.0  0.08813855127175119  0.3564739291304979  0.17058957098126212  1.0000
  H   H221      1.0  0.08371553036913393  0.37789592594260163  0.22065243951787825  1.0000
  H   H222      1.0  0.06815214862192942  0.3851902590934142  0.1651202665744991  1.0000
  H   H223      1.0  0.10616861832207847  0.41969013314484055  0.22411156045060027  1.0000
  H   H224      1.0  0.08964263167170983  0.42632300396414036  0.16885385701129044  1.0000
  H   H225      1.0  0.1256260201451147  0.42859795547995744  0.1755797505620352  1.0000
  H   H226      1.0  0.1538749856427699  0.38878115347680703  0.18438747024123084  1.0000
  H   H227      1.0  0.13787159696329532  0.35859466997407746  0.1829427954869511  1.0000
  H   H228      1.0  0.13362350002854795  0.38063843901735894  0.23216206624204122  1.0000
  N   N4        1.0  0.9869790642802402  0.9626649347817104  0.373655005981445  1.0000
  C   C301      1.0  0.01344182988488174  0.9584876982357641  0.35141185013443277  1.0000
  C   C302      1.0  0.9880966532822602  0.9852360132519771  0.4061003670770331  1.0000
  C   C303      1.0  0.9806091998523725  0.9401587765738698  0.40013780787319814  1.0000
  C   C304      1.0  0.9658397407881186  0.9667853736342185  0.3369586237407383  1.0000
  H   H229      1.0  0.013559239371795595  0.9412516681851323  0.32745369244627126  1.0000
  H   H230      1.0  0.029893951793444007  0.955479473615572  0.3781398820942732  1.0000
  H   H231      1.0  0.01878169916240946  0.9749625872434333  0.33067093981001683  1.0000
  H   H232      1.0  0.9684720854708739  0.9889708703442379  0.4236046281814164  1.0000
  H   H233      1.0  0.00398358209575389  0.9828901057678564  0.4340284291905712  1.0000
  H   H234      1.0  0.9924790219092621  0.0026679586481703765  0.3871599327369675  1.0000
  H   H235      1.0  0.979951615302321  0.9226916260144258  0.376817283367118  1.0000
  H   H236      1.0  0.9607579530755689  0.9425571473103852  0.4172452066925377  1.0000
  H   H237      1.0  0.9962036713403379  0.9365350191733786  0.4281102766836073  1.0000
  H   H238      1.0  0.9455885009385749  0.9700380131526042  0.3524352353791885  1.0000
  H   H239      1.0  0.9645430019775139  0.9501868426986346  0.3116914028734643  1.0000
  H   H240      1.0  0.9698179324014806  0.9838814374487782  0.3167666310364219  1.0000
  N   N5        1.0  0.2262795523585448  0.2507458505529871  0.6436208362950107  1.0000
  C   C305      1.0  0.23728010079953235  0.23524497851402518  0.6038166768952038  1.0000
  C   C306      1.0  0.19765433469767163  0.24453885406359646  0.6494933032252751  1.0000
  C   C307      1.0  0.22812312793197745  0.2779577141622276  0.633946112752686  1.0000
  C   C308      1.0  0.2420077756536456  0.2452773550973044  0.6870119748991386  1.0000
  H   H241      1.0  0.2261833984311013  0.2394247196978809  0.5703360810727923  1.0000
  H   H242      1.0  0.23563345026313556  0.21457917630991763  0.6093224987256859  1.0000
  H   H243      1.0  0.25899250962420045  0.23903008724679478  0.5989093861140865  1.0000
  H   H244      1.0  0.1884639930186452  0.2561755981021568  0.6786430290294028  1.0000
  H   H245      1.0  0.18527835700528958  0.24823570880708917  0.617180708898835  1.0000
  H   H246      1.0  0.1954549300545947  0.22424622788806833  0.657479469992954  1.0000
  H   H247      1.0  0.24940566098003225  0.2834498000428988  0.6291607785955721  1.0000
  H   H248      1.0  0.21980332311141376  0.2902484342103503  0.6630920911059923  1.0000
  H   H249      1.0  0.21647307617295294  0.28260358863024143  0.6013997424418335  1.0000
  H   H250      1.0  0.2412417945074664  0.22487219282039245  0.6952922391953262  1.0000
  H   H251      1.0  0.2340204477947691  0.25651755046523195  0.7177790973613288  1.0000
  H   H252      1.0  0.26361422041190286  0.25009208177540393  0.683981288484473  1.0000
  N   N6        1.0  0.134814524772207  0.36882457320948514  0.9522910843625344  1.0000
  C   C309      1.0  0.14952514104140935  0.3594680075645321  0.9103559384825722  1.0000
  C   C310      1.0  0.12042910975476828  0.3930537740925924  0.9423708200740168  1.0000
  C   C311      1.0  0.15430667689104394  0.3728774424135208  0.991870021822613  1.0000
  C   C312      1.0  0.11505862745212858  0.3498202438497948  0.9644872834072278  1.0000
  H   H253      1.0  0.1641962733838913  0.3735363007024639  0.8995507313747046  1.0000
  H   H254      1.0  0.13546993682154973  0.3553469540302407  0.8800971702964958  1.0000
  H   H255      1.0  0.16116151262000145  0.34154822382418104  0.9171875947379576  1.0000
  H   H256      1.0  0.10884744900653676  0.4005472147521784  0.9731500985883248  1.0000
  H   H257      1.0  0.13466058831125172  0.40801160728640123  0.9337665636363213  1.0000
  H   H258      1.0  0.10575706929528672  0.3907395597896378  0.9122988846452772  1.0000
  H   H259      1.0  0.14411666174041793  0.3808010363041799  0.02369103561765784  1.0000
  H   H260      1.0  0.16999265689497878  0.3865219571681703  0.9831909314592471  1.0000
  H   H261      1.0  0.16510311356378615  0.35483420950862105  0.0009162167451244319  1.0000
  H   H262      1.0  0.10355740538956604  0.35612157921722964  0.9960233959712294  1.0000
  H   H263      1.0  0.12512915487237675  0.33112774265881906  0.9714271033776236  1.0000
  H   H264      1.0  0.10006223061083519  0.34635466419772526  0.9352697445960245  1.0000
  N   N7        1.0  0.3672749724186376  0.25355629911621475  0.6478630870058104  1.0000
  C   C313      1.0  0.35677016169578407  0.2768844499570008  0.6723976015928875  1.0000
  C   C314      1.0  0.344414603142584  0.23844716140351802  0.6290689796763262  1.0000
  C   C315      1.0  0.38355002658559667  0.23829735893321904  0.6810883340049454  1.0000
  C   C316      1.0  0.38443110719894164  0.2604403710948596  0.6089753182698807  1.0000
  H   H265      1.0  0.344662384213865  0.2890419976411575  0.6481145619059406  1.0000
  H   H266      1.0  0.37347405471784373  0.28850821901253454  0.6877962350215037  1.0000
  H   H267      1.0  0.3434744592278207  0.2723236622295806  0.7015587952737722  1.0000
  H   H268      1.0  0.3310028622518174  0.2496798974364407  0.6053814245963036  1.0000
  H   H269      1.0  0.3516263443059167  0.22124844261404136  0.6085066735736036  1.0000
  H   H270      1.0  0.3318707361404589  0.23191588019789489  0.6578517064783853  1.0000
  H   H271      1.0  0.37131616258921124  0.23256409484856216  0.7108576869486968  1.0000
  H   H272      1.0  0.4011108776000388  0.24892774712736382  0.6960622594134611  1.0000
  H   H273      1.0  0.39171174470624176  0.2206342349634706  0.6633608322382286  1.0000
  H   H274      1.0  0.40260716484969994  0.2707863659944214  0.6220712644074742  1.0000
  H   H275      1.0  0.37334035648598607  0.2728322753345415  0.5840822506348707  1.0000
  H   H276      1.0  0.39177900334310034  0.243305548062993  0.5884585031034487  1.0000
  N   N8        1.0  0.5028611191068658  0.22840040913198328  0.8772035171404841  1.0000
  C   C317      1.0  0.4739766307702107  0.2242606375529468  0.8848894550097793  1.0000
  C   C318      1.0  0.5055787754011011  0.25183244242121816  0.8511942137197055  1.0000
  C   C319      1.0  0.5143824989551886  0.20650270941614332  0.8496941497698354  1.0000
  C   C320      1.0  0.517361842358972  0.23096965541556955  0.923073212396386  1.0000
  H   H277      1.0  0.462151486339075  0.22344050411487826  0.851243408649646  1.0000
  H   H278      1.0  0.4648663795312854  0.23978586288247342  0.9074538085568276  1.0000
  H   H279      1.0  0.4710815863400646  0.20603248929797136  0.9020642734051324  1.0000
  H   H280      1.0  0.5271257998440382  0.2556660505147189  0.8448924284191659  1.0000
  H   H281      1.0  0.49492236635663905  0.25039497449014114  0.8162746211116468  1.0000
  H   H282      1.0  0.49673358942602736  0.2686393589273554  0.8707813878296637  1.0000
  H   H283      1.0  0.5037224213043003  0.2039599889767757  0.8149813259492165  1.0000
  H   H284      1.0  0.5125220788947578  0.188494040980639  0.8682801299611543  1.0000
  H   H285      1.0  0.5361407565037429  0.20899144458948327  0.8429202827603607  1.0000
  H   H286      1.0  0.5392726212222945  0.234073119808952  0.9188697934200941  1.0000
  H   H287      1.0  0.5154615443994223  0.21368852027121815  0.9437499447289616  1.0000
  H   H288      1.0  0.5090728441077633  0.24726898068398512  0.9448507524780253  1.0000
  N   N9        1.0  0.21822760760903756  0.44394654126813105  0.9247660352763427  1.0000
  C   C321      1.0  0.19301251739070854  0.43838349557941597  0.8978439062585759  1.0000
  C   C322      1.0  0.2237394121694281  0.4239824318170119  0.9589164794391332  1.0000
  C   C323      1.0  0.21525654513753445  0.46886507873327005  0.9501171081476366  1.0000
  C   C324      1.0  0.2408920675061716  0.44450686049801497  0.8921449930490182  1.0000
  H   H289      1.0  0.1754625448577499  0.43792805198874946  0.9213888509151092  1.0000
  H   H290      1.0  0.19465098958936916  0.41976212304242944  0.8780507376477913  1.0000
  H   H291      1.0  0.18835357590180624  0.4530198288546793  0.8715267610127688  1.0000
  H   H292      1.0  0.24282246932220833  0.42738188222748635  0.9795031913450829  1.0000
  H   H293      1.0  0.20732919226167684  0.4232972424063781  0.9846740482569618  1.0000
  H   H294      1.0  0.22557181658376427  0.40486264768604774  0.9410746171828788  1.0000
  H   H295      1.0  0.21127841032031788  0.48444200064362464  0.9254599075190485  1.0000
  H   H296      1.0  0.2338067515320982  0.4735370569345156  0.971315245428376  1.0000
  H   H297      1.0  0.19814295273775612  0.46912751154991983  0.97472579443465  1.0000
  H   H298      1.0  0.2602610155632883  0.4488574675619959  0.9110864847863298  1.0000
  H   H299      1.0  0.23721140554759562  0.45904540150468354  0.8652766365609119  1.0000
  H   H300      1.0  0.2437506307203479  0.4259401769976361  0.8726212728239542  1.0000
  N   N10       1.0  0.49161509087592864  0.9559283360452075  0.9773669277065038  1.0000
  C   C325      1.0  0.46276131331164516  0.950439635892388  0.9826169115985188  1.0000
  C   C326      1.0  0.4943575514525227  0.9830435275387743  0.9677077544280532  1.0000
  C   C327      1.0  0.5026000947447176  0.9401329123538897  0.9379403807595327  1.0000
  C   C328      1.0  0.5067464992229005  0.950187656044558  0.021193560321952187  1.0000
  H   H301      1.0  0.45988363209445365  0.9301411813521593  0.989856773648548  1.0000
  H   H302      1.0  0.45070746490542657  0.9546569011243947  0.9501764453158738  1.0000
  H   H303      1.0  0.45378119837248576  0.9621156446085121  0.011991674248155837  1.0000
  H   H304      1.0  0.48636171389191507  0.9955144844631512  0.9969130627360986  1.0000
  H   H305      1.0  0.5159203656109189  0.9879600591747205  0.9641513369282415  1.0000
  H   H306      1.0  0.4832247873139724  0.9881061019828509  0.9348082788397913  1.0000
  H   H307      1.0  0.5009173984444646  0.9195262954585518  0.9440221575621428  1.0000
  H   H308      1.0  0.5243274199613395  0.9439085111675461  0.9329316470216514  1.0000
  H   H309      1.0  0.4915010480264907  0.9440574899295321  0.9043782007963521  1.0000
  H   H310      1.0  0.528532771920477  0.9546134986390128  0.018825586986869203  1.0000
  H   H311      1.0  0.5054431201522784  0.9298571973292842  0.02960719504960929  1.0000
  H   H312      1.0  0.4987960033604498  0.9618253496374868  0.05151124593978773  1.0000
  N   N11       1.0  0.45428761439240084  0.12277886855554354  0.34154306020729763  1.0000
  C   C329      1.0  0.45051456306720467  0.09793768941964463  0.31667035504659874  1.0000
  C   C330      1.0  0.42769165740289594  0.13569829738942976  0.3476761176198835  1.0000
  C   C331      1.0  0.47153041799494366  0.13874575652470622  0.3140113474588337  1.0000
  C   C332      1.0  0.46735601678986954  0.11877509075706039  0.3879443366212755  1.0000
  H   H313      1.0  0.47013561192772074  0.08739121930750389  0.31226320602686364  1.0000
  H   H314      1.0  0.44134181373092385  0.1002377245351822  0.2810039031321496  1.0000
  H   H315      1.0  0.4370297650950148  0.08576714054923198  0.33619162123280766  1.0000
  H   H316      1.0  0.41430045758075984  0.12465414203945185  0.3694872332706464  1.0000
  H   H317      1.0  0.4298943987854232  0.15473398870974125  0.365240753311995  1.0000
  H   H318      1.0  0.41704455992058903  0.13873023457410188  0.31344385854841506  1.0000
  H   H319      1.0  0.4619563373256142  0.14274123623462381  0.27933693193543657  1.0000
  H   H320      1.0  0.49154718499427136  0.12932920458292255  0.3073791870511662  1.0000
  H   H321      1.0  0.4751454465589839  0.15740300162080628  0.3325395313399095  1.0000
  H   H322      1.0  0.46857387356565794  0.13688026271359288  0.4093621453781756  1.0000
  H   H323      1.0  0.4882064204169212  0.11064177518412577  0.38453876002271453  1.0000
  H   H324      1.0  0.4558321460676754  0.10541845039127912  0.4084408652988095  1.0000
  N   N12       1.0  0.642049743974757  0.12868064952370994  0.12211542789066289  1.0000
  C   C333      1.0  0.6657988613412787  0.11826618627386139  0.09672469880712886  1.0000
  C   C334      1.0  0.6494808988014886  0.13364968157419055  0.17210445044353143  1.0000
  C   C335      1.0  0.6201754355564526  0.11011897790936288  0.1185110565750872  1.0000
  C   C336      1.0  0.6327125021008415  0.1526881696559323  0.10126466548780687  1.0000
  H   H325      1.0  0.6608972158719115  0.11477269544479388  0.058745714742053805  1.0000
  H   H326      1.0  0.6729963740977931  0.09984425455212492  0.11087986357564078  1.0000
  H   H327      1.0  0.6830103347077007  0.13143109050480284  0.09971644716783978  1.0000
  H   H328      1.0  0.6668981140064462  0.14650521862343785  0.17629402578522557  1.0000
  H   H329      1.0  0.632250393529721  0.14244193593740984  0.19175720417891648  1.0000
  H   H330      1.0  0.6552196225037198  0.11571404477419682  0.18949736137644377  1.0000
  H   H331      1.0  0.6022879274958459  0.1169724615963022  0.1386797887513226  1.0000
  H   H332      1.0  0.6269234896904541  0.09149593945334958  0.13258565220053528  1.0000
  H   H333      1.0  0.6130977237839891  0.10666919523815063  0.08146801554549832  1.0000
  H   H334      1.0  0.6150427661632538  0.1612277347267053  0.1200098965664636  1.0000
  H   H335      1.0  0.6260946660744345  0.14957496618640895  0.06388437322697582  1.0000
  H   H336      1.0  0.6489235136418835  0.16691486106096534  0.10255319834451404  1.0000
  N   N13       1.0  0.12423097175275787  0.8384762284080769  0.5489211078438323  1.0000
  C   C337      1.0  0.11623906789163467  0.8485080990070878  0.5958842999866742  1.0000
  C   C338      1.0  0.11229512418809517  0.8548811753554946  0.5125121964918363  1.0000
  C   C339      1.0  0.1143785036510352  0.8123911451905255  0.5411339341430723  1.0000
  C   C340      1.0  0.15400907722695198  0.8380325903648079  0.5461442978836055  1.0000
  H   H337      1.0  0.12453506183194078  0.836378617632461  0.6241745423962572  1.0000
  H   H338      1.0  0.093864641419525  0.8494553094501338  0.5990622172900704  1.0000
  H   H339      1.0  0.12366826911808712  0.8680180923269497  0.6034381831339435  1.0000
  H   H340      1.0  0.11763114199429665  0.8476809667367955  0.4765723306513623  1.0000
  H   H341      1.0  0.08982343079604882  0.855850388109172  0.5140314362719409  1.0000
  H   H342      1.0  0.11955919089371642  0.8746537088972727  0.5167783279039826  1.0000
  H   H343      1.0  0.12004682886338193  0.8042389633700748  0.5060001435796733  1.0000
  H   H344      1.0  0.09196071546638131  0.8119860529533836  0.5431185503851886  1.0000
  H   H345      1.0  0.12318769240941803  0.7994424728361346  0.5677612336880037  1.0000
  H   H346      1.0  0.16362088852215076  0.8258353312990107  0.5731736181803454  1.0000
  H   H347      1.0  0.16223555021440564  0.857380388912457  0.5515192009711327  1.0000
  H   H348      1.0  0.1607731946962138  0.830262577694613  0.5114070366738006  1.0000
  N   N14       1.0  0.44714604752722814  0.15672616495468533  0.1272092865630059  1.0000
  C   C341      1.0  0.42282351671822854  0.14112968788580332  0.12773807666157988  1.0000
  C   C342      1.0  0.44006823647539267  0.1813587529356319  0.10645375447679162  1.0000
  C   C343      1.0  0.46802311097599675  0.14310782572933664  0.09899612328967611  1.0000
  C   C344      1.0  0.45757500480649754  0.1611794958506746  0.1757834800753315  1.0000
  H   H349      1.0  0.4143915527443567  0.13740426240610995  0.09158971007265859  1.0000
  H   H350      1.0  0.406642337645386  0.15073928261827413  0.14887935525477225  1.0000
  H   H351      1.0  0.4275424529869992  0.12238643603060385  0.14319505228683083  1.0000
  H   H352      1.0  0.4579747664507972  0.19359009987429196  0.10526787229714274  1.0000
  H   H353      1.0  0.43197478964784847  0.1787577125422769  0.06982217367558796  1.0000
  H   H354      1.0  0.4245435648899793  0.19220672393041738  0.1271704088079082  1.0000
  H   H355      1.0  0.4868075175811706  0.1541310405481213  0.09785681459204953  1.0000
  H   H356      1.0  0.4608000068688428  0.13938130250196668  0.06216103552628538  1.0000
  H   H357      1.0  0.4737701745356007  0.12444049549663239  0.11378069358955778  1.0000
  H   H358      1.0  0.4759324858691457  0.17292021006086433  0.17693303657433423  1.0000
  H   H359      1.0  0.46322714055836584  0.14301167632123873  0.19227550607563737  1.0000
  H   H360      1.0  0.4422570958731197  0.17115659388205545  0.1982665418027607  1.0000
  N   N15       1.0  0.2972747254274971  0.302081769489359  0.38266281862553486  1.0000
  C   C345      1.0  0.2952410441895504  0.3128620588358209  0.3356275176356036  1.0000
  C   C346      1.0  0.2753541297216493  0.2839877401096877  0.3875549869507367  1.0000
  C   C347      1.0  0.29476940617745845  0.32280170226565874  0.418964158357378  1.0000
  C   C348      1.0  0.32369418871916295  0.2886650810080378  0.38851212010577757  1.0000
  H   H361      1.0  0.2968899863857552  0.29776975175449943  0.30734511325663705  1.0000
  H   H362      1.0  0.3114099589193084  0.32668647754158736  0.3308017721090754  1.0000
  H   H363      1.0  0.2755136655160238  0.3231434987421543  0.3301284863059246  1.0000
  H   H364      1.0  0.27681985346148086  0.2678631966593442  0.3612537683521151  1.0000
  H   H365      1.0  0.276048707693569  0.2758057772603882  0.4229473335603998  1.0000
  H   H366      1.0  0.25510670454403794  0.2934008563537623  0.38261348605508594  1.0000
  H   H367      1.0  0.3110375158240332  0.33678177035350637  0.4166477610696538  1.0000
  H   H368      1.0  0.29594302310214754  0.3153929264371365  0.4549165320061009  1.0000
  H   H369      1.0  0.27509174980032214  0.3333775851398293  0.41540604784911617  1.0000
  H   H370      1.0  0.3407735607539237  0.3017266384275549  0.38550885001984975  1.0000
  H   H371      1.0  0.32628559647510913  0.27286582137615656  0.3617483915963326  1.0000
  H   H372      1.0  0.325732145183686  0.2801501613673065  0.423457251629989  1.0000
  N   N16       1.0  0.85905035716087  0.07116722046876456  0.7256763203051656  1.0000
  C   C349      1.0  0.8451370976658553  0.08398218261992339  0.7656985776390647  1.0000
  C   C350      1.0  0.8400517871144304  0.06910330068450743  0.684917278406543  1.0000
  C   C351      1.0  0.8684352108552136  0.045498907276577245  0.7386619742925159  1.0000
  C   C352      1.0  0.8825362698940131  0.08601088670214309  0.7133779266618266  1.0000
  H   H373      1.0  0.8587401266457322  0.08572379582480814  0.7972787587493545  1.0000
  H   H374      1.0  0.8272593081892495  0.07326534593648117  0.7756990549645261  1.0000
  H   H375      1.0  0.8379299990364999  0.10349759015423961  0.7571376051452409  1.0000
  H   H376      1.0  0.8496597879994185  0.05898731332244013  0.6543893936580963  1.0000
  H   H377      1.0  0.8219465221794688  0.05819982359139254  0.6933461306050214  1.0000
  H   H378      1.0  0.8328154681093995  0.08822100613781998  0.673967256882537  1.0000
  H   H379      1.0  0.8798880902467632  0.03561867631740534  0.7099292103525796  1.0000
  H   H380      1.0  0.8511138033737815  0.033492501702213406  0.7461068692515114  1.0000
  H   H381      1.0  0.8817999947250093  0.04611512432107845  0.7706400807321521  1.0000
  H   H382      1.0  0.8933300041689213  0.07700519360759396  0.6830158980773359  1.0000
  H   H383      1.0  0.8973578111442742  0.08767590759395948  0.7433398859711912  1.0000
  H   H384      1.0  0.8762637861064597  0.10561348955388007  0.7037246358411935  1.0000
  N   N17       1.0  0.1508221334926847  0.3496528857867827  0.6872360576592016  1.0000
  C   C353      1.0  0.14704089172783164  0.32494490391302727  0.6617589678390808  1.0000
  C   C354      1.0  0.1393519748702794  0.3702870294875558  0.6586436516644939  1.0000
  C   C355      1.0  0.179910342435029  0.3536439103908625  0.6960483291488937  1.0000
  C   C356      1.0  0.1371834082599006  0.3498607598099493  0.7327147840288314  1.0000
  H   H385      1.0  0.15520680951697674  0.30890937402758556  0.6825087268995277  1.0000
  H   H386      1.0  0.157324564874062  0.3240409761528789  0.6274758846465024  1.0000
  H   H387      1.0  0.12528612342481749  0.32136918354242483  0.6543204101452711  1.0000
  H   H388      1.0  0.14179658211270607  0.3891828603423636  0.6768808986394566  1.0000
  H   H389      1.0  0.14951256251327294  0.37081997801922423  0.6243497336536495  1.0000
  H   H390      1.0  0.11741658633000251  0.36781718334015046  0.6510663114796172  1.0000
  H   H391      1.0  0.18947622928324703  0.33801611613871013  0.715946722899981  1.0000
  H   H392      1.0  0.18334502842525202  0.37157724001687087  0.7168974218212977  1.0000
  H   H393      1.0  0.1908315834781138  0.3546943364880224  0.662804812581053  1.0000
  H   H394      1.0  0.14044404968092428  0.36789713364110965  0.7534356235802147  1.0000
  H   H395      1.0  0.14473005829551155  0.3339347159460798  0.7543848433671535  1.0000
  H   H396      1.0  0.1150514124909483  0.34791446791952163  0.7277474195088625  1.0000
  N   N18       1.0  0.387668472228238  0.9603870617585907  0.21886560118743126  1.0000
  C   C357      1.0  0.3842948579070902  0.9431011333390777  0.2576837905312281  1.0000
  C   C358      1.0  0.4088092918379252  0.9786445957823545  0.23230560004473144  1.0000
  C   C359      1.0  0.36198474620594584  0.9744232792158823  0.2092559541735212  1.0000
  C   C360      1.0  0.3957036825972658  0.9455632355843452  0.17615287674498079  1.0000
  H   H397      1.0  0.37806497289417346  0.953762904923137  0.29034589603898653  1.0000
  H   H398      1.0  0.4034242020131413  0.9324903607180779  0.2662349299871831  1.0000
  H   H399      1.0  0.3683932042265351  0.9290287502228503  0.2489434325681344  1.0000
  H   H400      1.0  0.4116830493635456  0.9920117790517601  0.20389754433773793  1.0000
  H   H401      1.0  0.4033174236197034  0.990163275786071  0.26442533639596594  1.0000
  H   H402      1.0  0.42861846156086636  0.9688356199271629  0.23947988033662154  1.0000
  H   H403      1.0  0.36396749710070136  0.9878182508178032  0.18041389026590543  1.0000
  H   H404      1.0  0.3552271203969574  0.985752150799728  0.24084921963560704  1.0000
  H   H405      1.0  0.3454790166453857  0.9612738906322724  0.19887087371716952  1.0000
  H   H406      1.0  0.4151716881009282  0.9349599406485916  0.18201913239468576  1.0000
  H   H407      1.0  0.39833688680392954  0.9581926664236475  0.14628498367441622  1.0000
  H   H408      1.0  0.3801262915756994  0.9315695495740833  0.16509886479140135  1.0000
  N   N19       1.0  0.926113477661213  0.9296615970370233  0.8324496701109949  1.0000
  C   C361      1.0  0.95548001275885  0.9255635380140703  0.8405905329951452  1.0000
  C   C362      1.0  0.9141314891929638  0.9409431958622767  0.8756571554611305  1.0000
  C   C363      1.0  0.9134691956625207  0.9050998198287877  0.8201804375544834  1.0000
  C   C364      1.0  0.9214676680750506  0.9470752304738871  0.7935797717987654  1.0000
  H   H409      1.0  0.9651560384306728  0.9163062154950878  0.8092580898413825  1.0000
  H   H410      1.0  0.959662295273728  0.913169487227302  0.8708089671648558  1.0000
  H   H411      1.0  0.9656878793044519  0.9438235531027795  0.8487860474072378  1.0000
  H   H412      1.0  0.8918843575663186  0.9440177141003105  0.8712983198158507  1.0000
  H   H413      1.0  0.9178690449878059  0.9284703108646076  0.9057997383044609  1.0000
  H   H414      1.0  0.9229103485589063  0.959672649360697  0.885627356167286  1.0000
  H   H415      1.0  0.8911410535874694  0.9073563546966252  0.8153397928803923  1.0000
  H   H416      1.0  0.9172100577676744  0.8913416602785339  0.8482993997388057  1.0000
  H   H417      1.0  0.9216201278373352  0.8961590765845451  0.7872214994603174  1.0000
  H   H418      1.0  0.9305903536281382  0.9392792626002755  0.7606136407263331  1.0000
  H   H419      1.0  0.93028457249778  0.9659777724287624  0.8021361874895143  1.0000
  H   H420      1.0  0.8995374224346121  0.9504417019821599  0.78632567097826  1.0000
  N   N20       1.0  0.8189230212696703  0.10032802419477371  0.5089867238701183  1.0000
  C   C365      1.0  0.8374661025940401  0.0931069092024499  0.47064219811640845  1.0000
  C   C366      1.0  0.8068224121602084  0.1257822357146925  0.500987844641431  1.0000
  C   C367      1.0  0.8342018302599448  0.10071990866353087  0.5542530199980086  1.0000
  C   C368      1.0  0.797221120367338  0.08167039262796227  0.5098866336614651  1.0000
  H   H421      1.0  0.8550091004262234  0.1058070421733115  0.470680897186854  1.0000
  H   H422      1.0  0.8269880124588589  0.09392661537388736  0.4356952417972057  1.0000
  H   H423      1.0  0.8456658644047982  0.07340471489691924  0.47397277656336073  1.0000
  H   H424      1.0  0.7933370461565191  0.1323013523036609  0.5299096542885078  1.0000
  H   H425      1.0  0.8225743633044319  0.1402061370768526  0.4982655244035417  1.0000
  H   H426      1.0  0.7945252498060118  0.1259249861901719  0.4677181871096723  1.0000
  H   H427      1.0  0.8431530198986167  0.08164383006003462  0.5615638135834105  1.0000
  H   H428      1.0  0.8210699777491622  0.10679116431407465  0.5840024656295859  1.0000
  H   H429      1.0  0.8511270453330846  0.11421187719721915  0.5542483197298615  1.0000
  H   H430      1.0  0.7829235939975908  0.08641537861133886  0.5385766794006892  1.0000
  H   H431      1.0  0.8055742930541082  0.062100286763526524  0.5149522881696912  1.0000
  H   H432      1.0  0.7853014038331532  0.08095646915484833  0.4761685015119859  1.0000
  N   N21       1.0  0.1133904497553655  0.40740027782777544  0.4763005457148755  1.0000
  C   C369      1.0  0.08978779453269771  0.410442978378422  0.4439849504864353  1.0000
  C   C370      1.0  0.1384763958819243  0.40997838892950106  0.45020263167868646  1.0000
  C   C371      1.0  0.11331352109132165  0.3820267380110621  0.49642217521228665  1.0000
  C   C372      1.0  0.11194255131188391  0.42709965650488807  0.5146387925565793  1.0000
  H   H433      1.0  0.0704771576189096  0.40879595670447527  0.46263914186643235  1.0000
  H   H434      1.0  0.09002030457927246  0.39572284872986646  0.414844552135354  1.0000
  H   H435      1.0  0.08932901970549545  0.4293332722369084  0.42795454426978863  1.0000
  H   H436      1.0  0.14009787877779412  0.3952672556895743  0.4212421506366285  1.0000
  H   H437      1.0  0.1393301941344644  0.42890869492522055  0.4345487973012463  1.0000
  H   H438      1.0  0.15673888598487357  0.4077620035659815  0.4734627294158286  1.0000
  H   H439      1.0  0.13072964087117758  0.37925221301952766  0.5213787903241455  1.0000
  H   H440      1.0  0.11441043208207557  0.36658241006288145  0.46866175503065605  1.0000
  H   H441      1.0  0.09460888189503747  0.37949137298741903  0.5160748582911  1.0000
  H   H442      1.0  0.11192178454694357  0.44652732141283014  0.5008722128007159  1.0000
  H   H443      1.0  0.12947280845050385  0.42537233490030524  0.5396929605651345  1.0000
  H   H444      1.0  0.09323915414818384  0.4255058655780558  0.5351174773003842  1.0000
  N   N22       1.0  0.9211921898471324  0.7672170053269316  0.36958015401852334  1.0000
  C   C373      1.0  0.9467482771761183  0.7780758600483072  0.38782795199838677  1.0000
  C   C374      1.0  0.9233747409700458  0.7608440052174459  0.31885629814952754  1.0000
  C   C375      1.0  0.8988588046658147  0.786027944632466  0.3771625898993481  1.0000
  C   C376      1.0  0.9158952561070979  0.7439584965230771  0.3946499718162661  1.0000
  H   H445      1.0  0.9515731119718156  0.7955312621483797  0.36944913329716034  1.0000
  H   H446      1.0  0.9641422522190336  0.7643996773178627  0.3834171744658779  1.0000
  H   H447      1.0  0.9455351577187513  0.7834481516969487  0.42586170206076324  1.0000
  H   H448      1.0  0.9269380067385552  0.7780368908519594  0.29877174072635004  1.0000
  H   H449      1.0  0.9404654420104877  0.7471294742187777  0.31185534912562046  1.0000
  H   H450      1.0  0.90468044531787  0.7521059749283847  0.30391303816689463  1.0000
  H   H451      1.0  0.9027346102442892  0.8041362300491106  0.35997486473806367  1.0000
  H   H452      1.0  0.8964443252022662  0.7909573572110036  0.4152179435937714  1.0000
  H   H453      1.0  0.8792709703878991  0.7788065942249668  0.3629650349851083  1.0000
  H   H454      1.0  0.9324360960505107  0.7294190114582143  0.3894580721775648  1.0000
  H   H455      1.0  0.8966741544187008  0.7352698367808134  0.38198580220109213  1.0000
  H   H456      1.0  0.9143874012785497  0.7480801394734987  0.4331247240723147  1.0000
  N   N23       1.0  0.3773433458756221  0.05455009512559461  0.5749509274058574  1.0000
  C   C377      1.0  0.3678908998771407  0.034296250987944754  0.6043484795149819  1.0000
  C   C378      1.0  0.3545143116921636  0.06410046898066946  0.5456491442271809  1.0000
  C   C379      1.0  0.3991628919717628  0.04421920415465031  0.5447271063158813  1.0000
  C   C380      1.0  0.38779926763557726  0.07576600846923043  0.6050232224216289  1.0000
  H   H457      1.0  0.3845285030952687  0.026642933220388798  0.6271390026014516  1.0000
  H   H458      1.0  0.3599128937859432  0.018064565082770878  0.5823973296429347  1.0000
  H   H459      1.0  0.3514173956990934  0.04142688489549685  0.6276336254319573  1.0000
  H   H460      1.0  0.36059003236402104  0.08032378888161641  0.5250780382137904  1.0000
  H   H461      1.0  0.3468458803564104  0.049166805786186936  0.5203698661374675  1.0000
  H   H462      1.0  0.33726771369495967  0.07099566203353191  0.5673652756602414  1.0000
  H   H463      1.0  0.4078990260206993  0.0593620673953399  0.5243280295553401  1.0000
  H   H464      1.0  0.39175354184792965  0.02926055113988868  0.5192541466893803  1.0000
  H   H465      1.0  0.41601045556237926  0.035615563404180595  0.5658281131139941  1.0000
  H   H466      1.0  0.3951663731517186  0.09131300478227952  0.5837302808799401  1.0000
  H   H467      1.0  0.4050434101721491  0.06950026582116675  0.6279387339881937  1.0000
  H   H468      1.0  0.37187505362785994  0.08430896412107533  0.6280003912752586  1.0000
  N   N24       1.0  0.2712275844879097  0.7741353256524555  0.21855460467713614  1.0000
  C   C381      1.0  0.2417929332116831  0.7793458793570082  0.22079858293664417  1.0000
  C   C382      1.0  0.27636743381656353  0.7468846808787578  0.20693190509044285  1.0000
  C   C383      1.0  0.2842173476954033  0.7807262703944908  0.26457180836809985  1.0000
  C   C384      1.0  0.2825097959256021  0.7895075589016908  0.18200183223005545  1.0000
  H   H469      1.0  0.23286953539815736  0.7691053176020434  0.2494923646946628  1.0000
  H   H470      1.0  0.2310563731955733  0.7732599425410394  0.1876098692768073  1.0000
  H   H471      1.0  0.2370684180781271  0.7998994215583148  0.2276585382320322  1.0000
  H   H472      1.0  0.2695965848313427  0.7349258583187394  0.2353999940745111  1.0000
  H   H473      1.0  0.2653481995347364  0.7405465605041693  0.1741241768880123  1.0000
  H   H474      1.0  0.2982232568940132  0.7424178196293814  0.20218218248661496  1.0000
  H   H475      1.0  0.3064017975141036  0.7768476942378781  0.26424840059551546  1.0000
  H   H476      1.0  0.2758304751434568  0.7696308922090402  0.29297194142464356  1.0000
  H   H477      1.0  0.2809387917832769  0.8011459768343341  0.2746232735872019  1.0000
  H   H478      1.0  0.2731147818859451  0.7848110325862891  0.1469248949984143  1.0000
  H   H479      1.0  0.3047148592630341  0.7862198499477377  0.17943674208602808  1.0000
  H   H480      1.0  0.27883466355006964  0.8101915051901832  0.18982571441833923  1.0000
  N   N25       1.0  0.5781163836085133  0.9876734183476301  0.27616704798844677  1.0000
  C   C385      1.0  0.58717538583008  0.0031820344037125636  0.23783409022478252  1.0000
  C   C386      1.0  0.6014843488776486  0.981208506475096  0.3071901701969002  1.0000
  C   C387      1.0  0.5663546026660089  0.9640431453601236  0.2560812615235109  1.0000
  C   C388      1.0  0.5574757793780164  0.0021819973989820607  0.30345093888547425  1.0000
  H   H481      1.0  0.6034451608032532  0.9931429576654867  0.21772539767917967  1.0000
  H   H482      1.0  0.595329729500099  0.021574524140749674  0.251478690807956  1.0000
  H   H483      1.0  0.5704065159649915  0.00737343722313577  0.21231115459254407  1.0000
  H   H484      1.0  0.5953553123043823  0.9696575746608288  0.3367183236503444  1.0000
  H   H485      1.0  0.6172599432902985  0.9699675278584908  0.2875682830409915  1.0000
  H   H486      1.0  0.6112092400587346  0.9985654481391144  0.32243498975648616  1.0000
  H   H487      1.0  0.5581491519338369  0.9523880667261957  0.28379625874441106  1.0000
  H   H488      1.0  0.5817187387026002  0.952132588230515  0.23688537228364878  1.0000
  H   H489      1.0  0.5493272762125263  0.9681893466395001  0.2309980115473087  1.0000
  H   H490      1.0  0.5494696160385464  0.9907329065411682  0.33169275078318683  1.0000
  H   H491      1.0  0.5398500457729348  0.007703099011648229  0.28071209389398527  1.0000
  H   H492      1.0  0.5657442992324502  0.019876653469915295  0.3200464356005078  1.0000
  N   N26       1.0  0.3127955636456297  0.30506602097901475  0.9547580703332679  1.0000
  C   C389      1.0  0.3340488996021434  0.3020728942235202  0.9916447272214652  1.0000
  C   C390      1.0  0.2859017576306809  0.304243057310622  0.9758898777564066  1.0000
  C   C391      1.0  0.31564500514119676  0.28428514129777743  0.9186485850116765  1.0000
  C   C392      1.0  0.3156471601343099  0.3297306761220809  0.9328383742627895  1.0000
  H   H493      1.0  0.33247153547079206  0.3174862107531861  0.0194499671418793  1.0000
  H   H494      1.0  0.3545982475469171  0.3027131868421157  0.9768481175596895  1.0000
  H   H495      1.0  0.3325561861007199  0.2836320726440224  0.008921872501334027  1.0000
  H   H496      1.0  0.26933619992049396  0.3069357419806697  0.9492307775653149  1.0000
  H   H497      1.0  0.28279296747750166  0.2857526190981169  0.9921023432430968  1.0000
  H   H498      1.0  0.28319151702912665  0.3194843573958992  0.003712577589706001  1.0000
  H   H499      1.0  0.3001147470075619  0.2860983969057676  0.8899773852127486  1.0000
  H   H500      1.0  0.31348436354666126  0.2653222033728383  0.9336411657665552  1.0000
  H   H501      1.0  0.33570026940872083  0.2844097879967455  0.9019402409752479  1.0000
  H   H502      1.0  0.3354474455268929  0.33083367410683223  0.9154665163024777  1.0000
  H   H503      1.0  0.3140047121023851  0.34589289170597043  0.9590615953956908  1.0000
  H   H504      1.0  0.2997639655996718  0.3326945963872003  0.9051942003073998  1.0000
  N   N27       1.0  0.22288321767338903  0.9442780271946031  0.35076873074753767  1.0000
  C   C393      1.0  0.23576575385513743  0.9337063635611147  0.39336778245883536  1.0000
  C   C394      1.0  0.24161474089118462  0.9615402213527691  0.3293759797228706  1.0000
  C   C395      1.0  0.19788866026973118  0.9585971673444167  0.36361908208617966  1.0000
  C   C396      1.0  0.21621634781841936  0.9233276424144021  0.31671558288761104  1.0000
  H   H505      1.0  0.22184862799665428  0.9210479930888557  0.410911570114717  1.0000
  H   H506      1.0  0.24175811947596126  0.9489702437024549  0.4194513142489264  1.0000
  H   H507      1.0  0.2543440109521553  0.9222569242575255  0.3848657485707385  1.0000
  H   H508      1.0  0.23308785776605134  0.9689642315357727  0.2960061749286477  1.0000
  H   H509      1.0  0.24619345704741868  0.9781445474292813  0.3533124143995796  1.0000
  H   H510      1.0  0.26118926361883865  0.9517445721839659  0.3211730423045653  1.0000
  H   H511      1.0  0.20218962744771707  0.974396976990625  0.3896017704260501  1.0000
  H   H512      1.0  0.18320479268021095  0.9461620339632889  0.3796752733793572  1.0000
  H   H513      1.0  0.18764015252362354  0.9668623628712288  0.3323659004583098  1.0000
  H   H514      1.0  0.20596590519331626  0.9304856839088409  0.28451704777049097  1.0000
  H   H515      1.0  0.20254239635778082  0.9096399836247889  0.3319940889553209  1.0000
  H   H516      1.0  0.23465944557508323  0.9124395240156358  0.30556348296144253  1.0000
  N   N28       1.0  0.1243756593825143  0.6096224761523882  0.08678153555057298  1.0000
  C   C397      1.0  0.14410626366237905  0.614666909063642  0.12558580226752158  1.0000
  C   C398      1.0  0.12398038043908648  0.6308902458740631  0.05459230577848783  1.0000
  C   C399      1.0  0.09726677431903874  0.6069120049110839  0.10614714156744806  1.0000
  C   C400      1.0  0.13230488487741865  0.5858789452700064  0.06088816491500948  1.0000
  H   H517      1.0  0.16469406081639631  0.6168076288014478  0.11196813387207753  1.0000
  H   H518      1.0  0.14533720958166876  0.5988836169508702  0.15031763802930204  1.0000
  H   H519      1.0  0.1387832198634694  0.632480066274373  0.14596212394884195  1.0000
  H   H520      1.0  0.10937689066512446  0.6277988421800577  0.02477349681368657  1.0000
  H   H521      1.0  0.11826407130252209  0.6491049485519057  0.07309088925601204  1.0000
  H   H522      1.0  0.1442882818357698  0.6333488824547073  0.0396140546158823  1.0000
  H   H523      1.0  0.0909026340098451  0.6241144468731176  0.12726074124396353  1.0000
  H   H524      1.0  0.0968517949927481  0.5904772755162152  0.1294077300487704  1.0000
  H   H525      1.0  0.08172554543038581  0.6037277939967569  0.07783065869612282  1.0000
  H   H526      1.0  0.13482487129409895  0.5699922082828253  0.0850671124109239  1.0000
  H   H527      1.0  0.15178783471211446  0.5876694226380583  0.04305007609198097  1.0000
  H   H528      1.0  0.1169035453998205  0.5803192225957801  0.03357215582095807  1.0000
  N   N29       1.0  0.7931180311189043  0.1027432904665509  0.9945386258901588  1.0000
  C   C401      1.0  0.8166573787361274  0.11823254013506729  0.0084724438916981  1.0000
  C   C402      1.0  0.7678675825711386  0.11689118257496647  0.0064288577146158765  1.0000
  C   C403      1.0  0.7946157087225136  0.07888640702224325  0.020038640330276802  1.0000
  C   C404      1.0  0.7932120025786069  0.09692903932859691  0.9433722308972236  1.0000
  H   H529      1.0  0.8359929207861079  0.10765204369159066  0.001447976328383671  1.0000
  H   H530      1.0  0.8167065258752275  0.12365330774584457  0.04663148848139964  1.0000
  H   H531      1.0  0.8169541124039765  0.135963527276571  0.9886582546667372  1.0000
  H   H532      1.0  0.7497781318141441  0.1057591447408348  0.9957946056520472  1.0000
  H   H533      1.0  0.7667695107452444  0.12103582970367244  0.04490149270394328  1.0000
  H   H534      1.0  0.7662208980575689  0.13522872578852335  0.9885114385383421  1.0000
  H   H535      1.0  0.775919616310961  0.06792066643680572  0.014131519365478962  1.0000
  H   H536      1.0  0.797107921640491  0.08263182052329172  0.05854879084743736  1.0000
  H   H537      1.0  0.8118892724732669  0.06639515744345514  0.008463174128492623  1.0000
  H   H538      1.0  0.7753506114402989  0.08578176654599193  0.9315327710423102  1.0000
  H   H539      1.0  0.8114154113904003  0.08543772189997122  0.9330821342846992  1.0000
  H   H540      1.0  0.7932204858713817  0.11451920554574549  0.9231538502349796  1.0000
  N   N30       1.0  0.9984479766882437  0.5627400619831351  0.012317424557245937  1.0000
  C   C405      1.0  0.025414848438705562  0.5500681925889813  0.009589369290014194  1.0000
  C   C406      1.0  0.0007448278276551701  0.5872984548157902  0.03885225018172789  1.0000
  C   C407      1.0  0.9799484261333183  0.5463838446361192  0.03645531247283973  1.0000
  C   C408      1.0  0.987615820573691  0.567236431578791  0.9645080686510343  1.0000
  H   H541      1.0  0.034243548830183324  0.5468303399539024  0.04522921104955002  1.0000
  H   H542      1.0  0.03991697045934761  0.5616665268739344  0.9911526204570432  1.0000
  H   H543      1.0  0.024447901071834366  0.5311903793119658  0.9907043760172465  1.0000
  H   H544      1.0  0.008729571860541574  0.5846296775623395  0.075241887368658  1.0000
  H   H545      1.0  0.014532635954809248  0.6001784612137571  0.021717457314801125  1.0000
  H   H546      1.0  0.9807237264455871  0.5974083746949599  0.041668397052802675  1.0000
  H   H547      1.0  0.9595894615736933  0.5556418865285113  0.040446097900714406  1.0000
  H   H548      1.0  0.9877939526514691  0.5421491009304671  0.07225310183591493  1.0000
  H   H549      1.0  0.9772531970269882  0.5278319414849656  0.017096217067417152  1.0000
  H   H550      1.0  0.967223395496152  0.5767312973893489  0.965625883132112  1.0000
  H   H551      1.0  0.9856375007947538  0.549100645628136  0.9434355336093697  1.0000
  H   H552      1.0  0.0009716746095751461  0.5796590072266268  0.9453186624523706  1.0000
  N   N31       1.0  0.23938211581391564  0.9947514192039081  0.7979646372668119  1.0000
  C   C409      1.0  0.24881671778188405  0.005360662194514365  0.7542718965310243  1.0000
  C   C410      1.0  0.2372475312821467  0.9668985865922135  0.7914821402509066  1.0000
  C   C411      1.0  0.21263167519644866  0.006128313374229588  0.8094088297764209  1.0000
  C   C412      1.0  0.25881683778307385  0.0006650103244261185  0.8368499312751344  1.0000
  H   H553      1.0  0.2690351308936532  0.997313541923168  0.7446671698606919  1.0000
  H   H554      1.0  0.2509920877592901  0.026329228274692085  0.7581283973436205  1.0000
  H   H555      1.0  0.23469545695567318  0.0013122172840926982  0.7240871288192055  1.0000
  H   H556      1.0  0.23083088193188236  0.9582129789106237  0.8241857294129005  1.0000
  H   H557      1.0  0.22251530395055846  0.9616181811937861  0.7628551592465846  1.0000
  H   H558      1.0  0.2570274470259466  0.9577028488666083  0.782398852291193  1.0000
  H   H559      1.0  0.21360161155452118  0.027141329262125424  0.8146250793464724  1.0000
  H   H560      1.0  0.20495642464957833  0.9985272897523033  0.8422346901245957  1.0000
  H   H561      1.0  0.19742928271069574  0.002071571104457437  0.7808151424745925  1.0000
  H   H562      1.0  0.25248310876547025  0.9928963578612603  0.8704402271433147  1.0000
  H   H563      1.0  0.26140440489858413  0.02150520016658297  0.8422847340435725  1.0000
  H   H564      1.0  0.27908641958761843  0.9922064429040967  0.8295148918167581  1.0000
  N   N32       1.0  0.0626519917048991  0.7822590941565875  0.6937299590104606  1.0000
  C   C413      1.0  0.04346793860041487  0.7909350977674361  0.7302704226422246  1.0000
  C   C414      1.0  0.07948465129097348  0.8036011980059958  0.6814861697967654  1.0000
  C   C415      1.0  0.04747269356167938  0.7729620919371633  0.6514230106885477  1.0000
  C   C416      1.0  0.08026497485734652  0.761555826566051  0.7117854163147543  1.0000
  H   H565      1.0  0.029961434871584647  0.7755028786917489  0.7395953921000079  1.0000
  H   H566      1.0  0.030380646172193604  0.8070706479520191  0.7185338826531359  1.0000
  H   H567      1.0  0.05424359261003575  0.7975342843847621  0.7630824285556006  1.0000
  H   H568      1.0  0.09580147849468035  0.7972788426130714  0.6572237371550286  1.0000
  H   H569      1.0  0.0673507336349326  0.8186377221879074  0.6639765483727303  1.0000
  H   H570      1.0  0.08907509918119594  0.8127347292601268  0.7132513856936513  1.0000
  H   H571      1.0  0.061325484222011895  0.766932135221836  0.6226915100838505  1.0000
  H   H572      1.0  0.03357420046083148  0.7880532466759413  0.6376184496784357  1.0000
  H   H573      1.0  0.03491735318261724  0.7565227869428816  0.6590234890531864  1.0000
  H   H574      1.0  0.09185219738159067  0.7680311691176233  0.7438854080614261  1.0000
  H   H575      1.0  0.09527487875187979  0.7547124257933311  0.6853571254969988  1.0000
  H   H576      1.0  0.06830566286347595  0.7450223153199649  0.7211240811830499  1.0000
  N   N33       1.0  0.7500305237949555  0.9277311067032982  0.9682209318010515  1.0000
  C   C417      1.0  0.7531474439409644  0.9501374052674728  0.9395811810557343  1.0000
  C   C418      1.0  0.7283099862996355  0.9330159859360663  0.0021235708467830516  1.0000
  C   C419      1.0  0.7757153490426949  0.9221968928013659  0.993900098976323  1.0000
  C   C420      1.0  0.7430111321063768  0.905607444596016  0.937204862625303  1.0000
  H   H577      1.0  0.7696904729843824  0.9469555343384258  0.9142239388706417  1.0000
  H   H578      1.0  0.7581638490856504  0.9672142185642543  0.9618318629303337  1.0000
  H   H579      1.0  0.7343544605852329  0.954766238770097  0.9190899754455512  1.0000
  H   H580      1.0  0.7256719457796365  0.9166973180631128  0.02494698032068654  1.0000
  H   H581      1.0  0.7328920071313365  0.94977388521194  0.025713913232531027  1.0000
  H   H582      1.0  0.708603404037092  0.9371636902822453  0.9839882313214978  1.0000
  H   H583      1.0  0.7743017900671745  0.9051482128097047  0.015296284184622477  1.0000
  H   H584      1.0  0.7813652185759276  0.9383159933646512  0.018219233657320144  1.0000
  H   H585      1.0  0.7926706458725191  0.9186476523141921  0.9693526904472567  1.0000
  H   H586      1.0  0.74049916703859  0.8883274394248465  0.9575877993954779  1.0000
  H   H587      1.0  0.7590941877727674  0.9011050557517855  0.911328018140018  1.0000
  H   H588      1.0  0.7239010986040322  0.9092061666394512  0.9168551200755523  1.0000
  N   N34       1.0  0.7485926220081567  0.2260543447036923  0.9097174942370058  1.0000
  C   C421      1.0  0.7637116027050695  0.23872145157591468  0.873746038923445  1.0000
  C   C422      1.0  0.7678043187407348  0.2154262137155857  0.9447575689756545  1.0000
  C   C423      1.0  0.7327944389950439  0.2053257101934125  0.887109413738168  1.0000
  C   C424      1.0  0.7301159214969503  0.244703797622962  0.9333135068352153  1.0000
  H   H589      1.0  0.7499378208776721  0.24747739118816456  0.8471529168023112  1.0000
  H   H590      1.0  0.7775008947996231  0.22505866134150287  0.8546376304302004  1.0000
  H   H591      1.0  0.7765579035221212  0.25396678936684086  0.8897350252566647  1.0000
  H   H592      1.0  0.7825914339273162  0.20185791105198042  0.9279410088341301  1.0000
  H   H593      1.0  0.7794567223486155  0.23062910770592404  0.9635850655730516  1.0000
  H   H594      1.0  0.7572272177257952  0.20513143926191987  0.971762613015495  1.0000
  H   H595      1.0  0.7210350016922084  0.19543759171820158  0.9133171689748013  1.0000
  H   H596      1.0  0.7461947194995876  0.1908277295361973  0.8692982031038212  1.0000
  H   H597      1.0  0.7181482455895344  0.2126380886428203  0.8602981765567186  1.0000
  H   H598      1.0  0.7183212906503149  0.2356600490754577  0.960460187682434  1.0000
  H   H599      1.0  0.7153463515873726  0.25319368874606646  0.9079615391294212  1.0000
  H   H600      1.0  0.7414297453840591  0.2604738405253545  0.9511377701795178  1.0000
  N   N35       1.0  0.6453203560692904  0.24713668132382277  0.22116934574792357  1.0000
  C   C425      1.0  0.6163363663389527  0.25477365376903516  0.22180174277975565  1.0000
  C   C426      1.0  0.6553270193947681  0.242869254828711  0.2695881731852145  1.0000
  C   C427      1.0  0.660849976535646  0.26741701329288387  0.2010290155697995  1.0000
  C   C428      1.0  0.6488896557250831  0.22346426235929956  0.19214723661522795  1.0000
  H   H601      1.0  0.6082055236028471  0.2584714826762713  0.18585742158938173  1.0000
  H   H602      1.0  0.6128569930934648  0.27247059860580597  0.24367239760973197  1.0000
  H   H603      1.0  0.6038187957067155  0.23981029359002376  0.2362126171120352  1.0000
  H   H604      1.0  0.677128481092273  0.23695455876847485  0.27034378617377647  1.0000
  H   H605      1.0  0.6531717752064402  0.2604091321531779  0.29240911716514645  1.0000
  H   H606      1.0  0.6439585450969485  0.22773726804236363  0.28589548706581824  1.0000
  H   H607      1.0  0.6537064712903934  0.27112762078294483  0.16449510394512554  1.0000
  H   H608      1.0  0.682796647760172  0.26216213756036433  0.1997984534396876  1.0000
  H   H609      1.0  0.6587285465006132  0.2855981047013515  0.22198001652697827  1.0000
  H   H610      1.0  0.6415907707057722  0.22611237525456837  0.15537023522704535  1.0000
  H   H611      1.0  0.6373961212888118  0.20774338654583083  0.20618160139827152  1.0000
  H   H612      1.0  0.6705946329569501  0.21730539262130874  0.1908830799913844  1.0000
  N   N36       1.0  0.9696693627068554  0.2437065100118138  0.46313101850031774  1.0000
  C   C429      1.0  0.9956097254661632  0.2291492621235028  0.46185279699051485  1.0000
  C   C430      1.0  0.960118856944577  0.24837111573962126  0.4146301165537054  1.0000
  C   C431      1.0  0.9735471432127469  0.26825548091491036  0.48899109635437615  1.0000
  C   C432      1.0  0.9494047850288926  0.229086771308634  0.48693460062022453  1.0000
  H   H613      1.0  0.003862509654569246  0.22585622118669982  0.49782949226520623  1.0000
  H   H614      1.0  0.01116423538823863  0.23945303293243  0.44319149621111176  1.0000
  H   H615      1.0  0.9932981189877906  0.21029776942247203  0.44337281858984573  1.0000
  H   H616      1.0  0.9569525327258839  0.2302785818340743  0.39397805343681774  1.0000
  H   H617      1.0  0.9405823196537992  0.2592354780847216  0.4142957636134946  1.0000
  H   H618      1.0  0.9748176432405595  0.259592467710641  0.39576572304762986  1.0000
  H   H619      1.0  0.9880122730032063  0.2801087273246538  0.4710651339080346  1.0000
  H   H620      1.0  0.9817447626526197  0.2655363263271156  0.5251301598874627  1.0000
  H   H621      1.0  0.9542244596866908  0.2794224559446124  0.49172114976053616  1.0000
  H   H622      1.0  0.9292829668469195  0.2391031466218643  0.4872389094475571  1.0000
  H   H623      1.0  0.955513587864856  0.22568115034769465  0.5240203721739239  1.0000
  H   H624      1.0  0.9464833935148157  0.21012506688992189  0.4692132921783924  1.0000
  N   N37       1.0  0.9197117302742734  0.2520083221447036  0.9391551402093481  1.0000
  C   C433      1.0  0.9305828163419582  0.27528276969424664  0.9623980553727263  1.0000
  C   C434      1.0  0.9051998980404162  0.2375930834179359  0.9735215888725651  1.0000
  C   C435      1.0  0.9422543791464649  0.23612981158535573  0.9200982654703717  1.0000
  C   C436      1.0  0.9008859891591823  0.25912191723392436  0.9004908114409291  1.0000
  H   H625      1.0  0.9417544027071485  0.2865129511746044  0.9372218039174912  1.0000
  H   H626      1.0  0.9449170578470947  0.2706856232445993  0.991747173014391  1.0000
  H   H627      1.0  0.9141179079714591  0.2878341107880697  0.976894702171507  1.0000
  H   H628      1.0  0.888254006438491  0.2490995539736128  0.9890707251357109  1.0000
  H   H629      1.0  0.8963966186366611  0.220161698413185  0.9567955563257824  1.0000
  H   H630      1.0  0.918853411246775  0.23157058996846483  0.0028619619906185  1.0000
  H   H631      1.0  0.9348996074247207  0.2189671374455771  0.9001011915238715  1.0000
  H   H632      1.0  0.9563812089385987  0.22957079487863646  0.9483354025896689  1.0000
  H   H633      1.0  0.9542593220111941  0.2468699075035247  0.8956891455229478  1.0000
  H   H634      1.0  0.8827092255093847  0.2696969797352532  0.9137542703455299  1.0000
  H   H635      1.0  0.8936976460635934  0.24211256540778442  0.8798706956142015  1.0000
  H   H636      1.0  0.9106625201420782  0.2714953748267146  0.8756938484302825  1.0000
  N   N38       1.0  0.15072303381915672  0.512180100977872  0.26424890406775536  1.0000
  C   C437      1.0  0.17772023266509707  0.5000978122717732  0.2717653804938307  1.0000
  C   C438      1.0  0.1512818562808772  0.5288692162387283  0.22386310983859925  1.0000
  C   C439      1.0  0.14327950073754456  0.5274538281519475  0.3067878525841774  1.0000
  C   C440      1.0  0.1305199089096408  0.49237661279601475  0.2548097430680556  1.0000
  H   H637      1.0  0.19352941910347254  0.5144818967920629  0.2788103296871527  1.0000
  H   H638      1.0  0.1840985835745593  0.48859182667886814  0.24032380937259745  1.0000
  H   H639      1.0  0.1779931213937892  0.4870525959650894  0.3014966488679711  1.0000
  H   H640      1.0  0.1666486285117519  0.5438020464710295  0.2295108285029981  1.0000
  H   H641      1.0  0.1567458736275269  0.5180141677959553  0.19106845639670444  1.0000
  H   H642      1.0  0.13128414484021794  0.5383792818613191  0.2172343882324852  1.0000
  H   H643      1.0  0.12286613495118716  0.5366115270683062  0.3024944311226061  1.0000
  H   H644      1.0  0.15800129407964292  0.5427105274797767  0.31483254797073656  1.0000
  H   H645      1.0  0.142784925069422  0.5154333957661216  0.33792988350873543  1.0000
  H   H646      1.0  0.1356248840110828  0.48008637046706554  0.2236122632602111  1.0000
  H   H647      1.0  0.11002873514116729  0.5008708202674297  0.24819814680716146  1.0000
  H   H648      1.0  0.12918818725578568  0.4796422103279313  0.2848272029320942  1.0000
  N   N39       1.0  0.9874372108716012  0.3092935030027903  0.6543350860806948  1.0000
  C   C441      1.0  0.9964979892388113  0.33560736450238104  0.6624947654196803  1.0000
  C   C442      1.0  0.9634242873090259  0.30924418488071354  0.6223725705683445  1.0000
  C   C443      1.0  0.9804707445255249  0.2988011726613822  0.6996576875191096  1.0000
  C   C444      1.0  0.009449031540698316  0.2935971931589757  0.6329778876509543  1.0000
  H   H649      1.0  0.01427321621416966  0.3362637532027384  0.6870743130103077  1.0000
  H   H650      1.0  0.9803807199736884  0.3481254744683457  0.6782010788131381  1.0000
  H   H651      1.0  0.0025641578887585226  0.34404852015471526  0.6293026768819202  1.0000
  H   H652      1.0  0.9559349304577868  0.28970831251750906  0.6155184834227501  1.0000
  H   H653      1.0  0.9464951508548809  0.32100795440335717  0.6374325158052919  1.0000
  H   H654      1.0  0.9679320904642427  0.3171644686109952  0.5878941973492835  1.0000
  H   H655      1.0  0.9641324033119257  0.3102917860452348  0.7172050396892322  1.0000
  H   H656      1.0  0.9981672725214029  0.2985710279009957  0.7246364751664787  1.0000
  H   H657      1.0  0.9734897434251069  0.2789431442292559  0.6952056504446688  1.0000
  H   H658      1.0  0.00326148629381251  0.2736884015463051  0.625639045635626  1.0000
  H   H659      1.0  0.02765982624719876  0.29286593496173485  0.6567072801642156  1.0000
  H   H660      1.0  0.01591178417183503  0.3013832006573466  0.5994593891030294  1.0000
  N   N40       1.0  0.25198045532890534  0.8254530006689734  0.8899816900286903  1.0000
  C   C445      1.0  0.2547200130738998  0.8058774485224223  0.9256129647202688  1.0000
  C   C446      1.0  0.27780724194858614  0.8386109781222504  0.8868521963360694  1.0000
  C   C447      1.0  0.23032326540253897  0.8439855090023765  0.9035084311025293  1.0000
  C   C448      1.0  0.24494504560001412  0.8133272242396475  0.8438188968471962  1.0000
  H   H661      1.0  0.23524912842537962  0.7963580048061637  0.9302315242061694  1.0000
  H   H662      1.0  0.2610421322803793  0.8141808312929817  0.960529663841914  1.0000
  H   H663      1.0  0.2698864024074995  0.7907480129291439  0.9155489998198364  1.0000
  H   H664      1.0  0.2837084098634539  0.8482465472075509  0.9208838234022271  1.0000
  H   H665      1.0  0.29451197664888373  0.8250956844929449  0.876630911607901  1.0000
  H   H666      1.0  0.2764541934586221  0.8534163409902406  0.860066687215623  1.0000
  H   H667      1.0  0.21053776141242303  0.8345708508764534  0.9059362657851868  1.0000
  H   H668      1.0  0.22755991155417218  0.8589234731213795  0.8772718911762566  1.0000
  H   H669      1.0  0.23492219722687738  0.8536188117412385  0.938123039036153  1.0000
  H   H670      1.0  0.22476043436817464  0.8046523617376946  0.8440799047819261  1.0000
  H   H671      1.0  0.25991840489247653  0.7981149442358992  0.8334441520871052  1.0000
  H   H672      1.0  0.2441851970106412  0.8273280017145739  0.8156799128401084  1.0000
  N   N41       1.0  0.8231040595283265  0.10229730116714841  0.2789824235745158  1.0000
  C   C449      1.0  0.8347060087966263  0.0780846667276045  0.29586223526633354  1.0000
  C   C450      1.0  0.8255122020443016  0.12227533251698697  0.31661677695269086  1.0000
  C   C451      1.0  0.7942959979138872  0.0991246116052733  0.2658218511452015  1.0000
  C   C452      1.0  0.8379098811950776  0.10979519572335539  0.23761689166864813  1.0000
  H   H673      1.0  0.8242728137722979  0.0720479358803976  0.32752274242830903  1.0000
  H   H674      1.0  0.8565512344458208  0.07974079527225308  0.3054068383387436  1.0000
  H   H675      1.0  0.8329518047106047  0.06252468428678148  0.2685008689960169  1.0000
  H   H676      1.0  0.8168989633514491  0.14079787572285762  0.30511142460248286  1.0000
  H   H677      1.0  0.8146039798247785  0.1173874407101807  0.34850508658197726  1.0000
  H   H678      1.0  0.8470240196017534  0.1252968851083045  0.3270371580303782  1.0000
  H   H679      1.0  0.7851238697598865  0.11699416602654877  0.2523329398867945  1.0000
  H   H680      1.0  0.7823895147019712  0.09379221539492999  0.2963015014582773  1.0000
  H   H681      1.0  0.7916797777131711  0.08412775170976294  0.23754166790052886  1.0000
  H   H682      1.0  0.8297836600049995  0.12811295297678016  0.22422209434062923  1.0000
  H   H683      1.0  0.8362378210825294  0.09536329388042897  0.20815919653846665  1.0000
  H   H684      1.0  0.8598005548932173  0.11226621915089074  0.24622067193168978  1.0000
  N   N42       1.0  0.08720983591218823  0.7444241738399938  0.25033563961318156  1.0000
  C   C453      1.0  0.10861973563391425  0.7257230160373291  0.2634179078394463  1.0000
  C   C454      1.0  0.09805708986170503  0.7626590694418869  0.2181401026927178  1.0000
  C   C455      1.0  0.07782600216019397  0.7582474938755126  0.2932088960795178  1.0000
  C   C456      1.0  0.06435608899560252  0.7311675513783177  0.22673798129768816  1.0000
  H   H685      1.0  0.10051247293130783  0.710283394261162  0.28396927080393547  1.0000
  H   H686      1.0  0.12486957218581662  0.734759814877095  0.2853556933690167  1.0000
  H   H687      1.0  0.11840123858798313  0.7168771105394842  0.23203591961004258  1.0000
  H   H688      1.0  0.08225404800804759  0.7767760120516016  0.20719672346817297  1.0000
  H   H689      1.0  0.11492677782395333  0.7734247173829214  0.23518058141671933  1.0000
  H   H690      1.0  0.10595920303422779  0.7528071188273289  0.18579655109549553  1.0000
  H   H691      1.0  0.0945888152663874  0.7685829545489811  0.3117339387533681  1.0000
  H   H692      1.0  0.06964222069142778  0.7450429512050553  0.31842051359287077  1.0000
  H   H693      1.0  0.06160246998520824  0.772539992799911  0.2850639979562416  1.0000
  H   H694      1.0  0.0472679968312506  0.7445667761893099  0.2185529498428842  1.0000
  H   H695      1.0  0.05640066246243158  0.7163026947071829  0.24888392061065168  1.0000
  H   H696      1.0  0.07050170559522262  0.7216042785279527  0.19308775350738447  1.0000
  N   N43       1.0  0.9106281433197358  0.9011529417302245  0.5669736466174533  1.0000
  C   C457      1.0  0.9141395965807854  0.9190990868999667  0.6077468273600736  1.0000
  C   C458      1.0  0.9374419127515331  0.8927980064776302  0.5496801474235222  1.0000
  C   C459      1.0  0.8950732816602218  0.9138292252007131  0.5291829049546158  1.0000
  C   C460      1.0  0.8959068443004251  0.8788552177485756  0.5813351101837826  1.0000
  H   H697      1.0  0.8942905687001211  0.9264454493244585  0.6208080713689262  1.0000
  H   H698      1.0  0.9257217781073851  0.9358871746183294  0.5983774578621751  1.0000
  H   H699      1.0  0.925213139200739  0.9099198609438007  0.637351123915478  1.0000
  H   H700      1.0  0.949977029284365  0.8837392176110626  0.577638616808847  1.0000
  H   H701      1.0  0.9355932206619952  0.8786695315292147  0.519773746559454  1.0000
  H   H702      1.0  0.9488672189116045  0.9090367790435248  0.5374420926342192  1.0000
  H   H703      1.0  0.8912246638198289  0.9005816882388287  0.49849929783266855  1.0000
  H   H704      1.0  0.9060025821171938  0.930278618471619  0.5164996525423101  1.0000
  H   H705      1.0  0.8751377750233398  0.9213431349694127  0.5415347187985865  1.0000
  H   H706      1.0  0.8752697239834668  0.8843913985664229  0.5932612376255416  1.0000
  H   H707      1.0  0.9066395969000598  0.8693476978598028  0.6109352856402165  1.0000
  H   H708      1.0  0.8937635355809426  0.8644756077948409  0.5517866683157495  1.0000
  N   N44       1.0  0.09395778856564774  0.7586345784438739  0.9496736187938398  1.0000
  C   C461      1.0  0.07069718495165023  0.7767676835159542  0.9475134620574501  1.0000
  C   C462      1.0  0.11208879002238992  0.7659997559446622  0.9896068657858965  1.0000
  C   C463      1.0  0.10893785707022219  0.7590177187227387  0.9056061205811532  1.0000
  C   C464      1.0  0.08416929881002821  0.7328029423504598  0.9560368908910236  1.0000
  H   H709      1.0  0.05848654260435149  0.7765752713970029  0.9796738918588316  1.0000
  H   H710      1.0  0.057009534203499745  0.7722094302764271  0.9169394302482858  1.0000
  H   H711      1.0  0.07732580801041755  0.7965673324310958  0.9436210209676003  1.0000
  H   H712      1.0  0.13020085855391916  0.7530404980051698  0.991370207971428  1.0000
  H   H713      1.0  0.11945180400473854  0.7855918809357909  0.9865831829163869  1.0000
  H   H714      1.0  0.10182142219573231  0.7650166493550187  0.02371517043543836  1.0000
  H   H715      1.0  0.12697634862186002  0.7458890469383744  0.9062262817157732  1.0000
  H   H716      1.0  0.11633653205631012  0.7783374812203266  0.899686424113949  1.0000
  H   H717      1.0  0.0960258367820579  0.7533958555906868  0.8746336948939291  1.0000
  H   H718      1.0  0.10128360573314699  0.7188239034036752  0.9602033525035865  1.0000
  H   H719      1.0  0.07119247242963955  0.7261405875241823  0.925804749265399  1.0000
  H   H720      1.0  0.07175416994578665  0.7322004729997152  0.9879195199121951  1.0000
  N   N45       1.0  0.28333812752946447  0.8646251121084838  0.5856699131731826  1.0000
  C   C465      1.0  0.28505756131760773  0.8830210511947685  0.5482144476882739  1.0000
  C   C466      1.0  0.29545330928281976  0.8753735949843381  0.6298021625654998  1.0000
  C   C467      1.0  0.29813455367271074  0.8408909764113881  0.5716930313598626  1.0000
  C   C468      1.0  0.25467473447504063  0.8591546233608178  0.5929463059355  1.0000
  H   H721      1.0  0.27652364315224087  0.8752745333299043  0.5142166042143866  1.0000
  H   H722      1.0  0.30635965189554315  0.8880894213754279  0.5423385924153904  1.0000
  H   H723      1.0  0.27373257097202713  0.9010224080214192  0.5571786970051112  1.0000
  H   H724      1.0  0.3168534539090982  0.8806024652409424  0.6253184195368413  1.0000
  H   H725      1.0  0.2841975705136891  0.8927824221835797  0.6424052387866855  1.0000
  H   H726      1.0  0.2951511213175483  0.8615929660917508  0.6583064221463473  1.0000
  H   H727      1.0  0.2896009033463686  0.8322924707404902  0.5383743367600548  1.0000
  H   H728      1.0  0.2969811460890688  0.826455437225371  0.5989331388513368  1.0000
  H   H729      1.0  0.3198640644288104  0.8443504930618905  0.5661487582771413  1.0000
  H   H730      1.0  0.24297400257394214  0.8766063072028257  0.6039470250061806  1.0000
  H   H731      1.0  0.25261757963264286  0.8452559291554927  0.6209038376914319  1.0000
  H   H732      1.0  0.24489268174293374  0.851047258729391  0.5602590338308605  1.0000
  N   N46       1.0  0.8193309316085717  0.26094213461222027  0.2369045992200155  1.0000
  C   C469      1.0  0.8079919304981464  0.2471617691468452  0.275637240800117  1.0000
  C   C470      1.0  0.7985885316563182  0.2637337006531242  0.19912575985569153  1.0000
  C   C471      1.0  0.8430518455936795  0.2465301046712739  0.21835283066152464  1.0000
  C   C472      1.0  0.827623777186051  0.28640171914703044  0.25442227556262126  1.0000
  H   H733      1.0  0.8230297934824922  0.24480092155214753  0.3049433180127776  1.0000
  H   H734      1.0  0.8015924427251867  0.22782676099104804  0.2636924378171782  1.0000
  H   H735      1.0  0.7899963238465942  0.25741010874386583  0.2903369805728613  1.0000
  H   H736      1.0  0.7803881001138022  0.2745073707490197  0.21186058542701786  1.0000
  H   H737      1.0  0.8065733326294829  0.27361418223052625  0.16884964511074876  1.0000
  H   H738      1.0  0.7917178588436549  0.244965989494443  0.18542415614576882  1.0000
  H   H739      1.0  0.8520136363292612  0.2562222414530236  0.18875096609983802  1.0000
  H   H740      1.0  0.8375428648581834  0.2272185960457364  0.20481907529463667  1.0000
  H   H741      1.0  0.8591474047115362  0.2441558863223114  0.24600873066513665  1.0000
  H   H742      1.0  0.8362750041362376  0.2972642690490851  0.2260386259220746  1.0000
  H   H743      1.0  0.8433431317880034  0.28511002874618707  0.2828676313872123  1.0000
  H   H744      1.0  0.8102783698645998  0.2976919368003687  0.26909968576397636  1.0000
  N   N47       1.0  0.9331538474454492  0.7744322384762313  0.025204071628826208  1.0000
  C   C473      1.0  0.9248353619187546  0.8006387872634531  0.013512711303327318  1.0000
  C   C474      1.0  0.9302773419833749  0.7712009121367164  0.07604704722127309  1.0000
  C   C475      1.0  0.9616653244135156  0.7695356118571615  0.012768762682714874  1.0000
  C   C476      1.0  0.9158606893231733  0.7562518434778327  0.9984404373275183  1.0000
  H   H745      1.0  0.9036687569780766  0.8052217485630092  0.023686699409890988  1.0000
  H   H746      1.0  0.9258024729604398  0.8034472294585998  0.9751366653281598  1.0000
  H   H747      1.0  0.9380579535909729  0.8149312095254183  0.031561585810134574  1.0000
  H   H748      1.0  0.9360703827750486  0.7515364489182912  0.08589724781371477  1.0000
  H   H749      1.0  0.9434795286236063  0.784228349862626  0.09741158163470032  1.0000
  H   H750      1.0  0.9091106547596374  0.7748929041784682  0.08706865826261456  1.0000
  H   H751      1.0  0.9644284578085366  0.7708644227577877  0.9744007045302594  1.0000
  H   H752      1.0  0.9687937404436991  0.7501583339393155  0.022407971719753617  1.0000
  H   H753      1.0  0.9753106210468753  0.7833380864073806  0.031095414312067415  1.0000
  H   H754      1.0  0.8942401242908855  0.759017295283542  0.007459617264180984  1.0000
  H   H755      1.0  0.9219610998010545  0.7362469760515647  0.005552327634674947  1.0000
  H   H756      1.0  0.9172487087946879  0.7584923836963857  0.9598648078513521  1.0000
  N   N48       1.0  0.7958287264978833  0.9500226267770457  0.27216126134273405  1.0000
  C   C477      1.0  0.8079788968239628  0.9724138277141081  0.29637335420961797  1.0000
  C   C478      1.0  0.7849355498388452  0.9334677511616667  0.3073183955269998  1.0000
  C   C479      1.0  0.8166433573964678  0.935794257486973  0.24484346307172236  1.0000
  C   C480      1.0  0.7737273605897289  0.9584787435303  0.24018170152800306  1.0000
  H   H757      1.0  0.823969775398047  0.9666495160484053  0.3222310912253375  1.0000
  H   H758      1.0  0.7926148453477807  0.9840374633143875  0.3159426710783377  1.0000
  H   H759      1.0  0.8172274209608043  0.98495304177476  0.2711967469066969  1.0000
  H   H760      1.0  0.7690762429584029  0.9436387793819746  0.3283681674109311  1.0000
  H   H761      1.0  0.7755357371862124  0.9163925986012206  0.29036949635142806  1.0000
  H   H762      1.0  0.801080878507954  0.9268990956186941  0.3323266797166887  1.0000
  H   H763      1.0  0.8337363851153936  0.92931031234612  0.2679631950527854  1.0000
  H   H764      1.0  0.8251255139584573  0.9477282765441245  0.2178132178500083  1.0000
  H   H765      1.0  0.8081716243049439  0.9186742634394056  0.2264051074437087  1.0000
  H   H766      1.0  0.7643382905145771  0.9421813523727652  0.2205010734254241  1.0000
  H   H767      1.0  0.7810080843576026  0.971543067906791  0.21384034952465678  1.0000
  H   H768      1.0  0.7574547773540019  0.9687439241966275  0.2599738194077912  1.0000
