data_image0
_chemical_formula_structural       FeS2FeS2FeSFeS3FeS2FeS2FeSFeS3FeS2FeS2FeSFeS3FeS2FeS2FeSFeS3FeS2FeS2FeSFeS3FeS2FeS2FeSFeS3FeS2FeS2FeSFeS3FeS2FeS2FeSFeS3FeS2FeS2FeSFeS3FeS2FeS2FeSFeS3FeS2FeS2FeSFeS3FeS2FeS2FeSFeS3FeS2FeS2FeSFeS3FeS2FeS2FeSFeS3FeS2FeS2FeSFeS3FeS2FeS2FeSFeS3FeS2FeS2FeSFeS3FeS2FeS2FeSFeS3FeS2FeS2FeSFeS3FeS2FeS2FeSFeS3FeS2FeS2FeSFeS3FeS2FeS2FeSFeS3FeS2FeS2FeSFeS3FeS2FeS2FeSFeS3C6H4C6H4C6H4C6H4C6H4C6H4C6H4C6H4C6H4C6H4C6H4C6H4C6H4C6H4C6H4C6H4C6H4C6H4C6H4C6H4C6H4C6H4C6H4C6H4C6H4C6H4C6H4C6H4C6H4C6H4C6H4C6H4C6H4C6H4C6H4C6H4C6H4C6H4C6H4C6H4C6H4C6H4C6H4C6H4C6H4C6H4C6H4C6H4NC4H12NC4H12NC4H12NC4H12NC4H12NC4H12NC4H12NC4H12NC4H12NC4H12NC4H12NC4H12NC4H12NC4H12NC4H12NC4H12NC4H12NC4H12NC4H12NC4H12NC4H12NC4H12NC4H12NC4H12NC4H12NC4H12NC4H12NC4H12NC4H12NC4H12NC4H12NC4H12NC4H12NC4H12NC4H12NC4H12NC4H12NC4H12NC4H12NC4H12NC4H12NC4H12NC4H12NC4H12NC4H12NC4H12NC4H12NC4H12
_chemical_formula_sum              "Fe96 S192 C480 H768 N48"
_cell_length_a       49.94567902194883
_cell_length_b       50.57724554824756
_cell_length_c       32.812962978871184
_cell_angle_alpha    89.83365272270018
_cell_angle_beta     89.91685430644038
_cell_angle_gamma    86.24616064795433

_space_group_name_H-M_alt    "P 1"
_space_group_IT_number       1

loop_
  _space_group_symop_operation_xyz
  'x, y, z'

loop_
  _atom_site_type_symbol
  _atom_site_label
  _atom_site_symmetry_multiplicity
  _atom_site_fract_x
  _atom_site_fract_y
  _atom_site_fract_z
  _atom_site_occupancy
  Fe  Fe1       1.0  0.643574246227356  0.1466368651219742  0.2584519912215035  1.0000
  S   S1        1.0  0.6657825843941664  0.1835185469192694  0.2661063450017997  1.0000
  S   S2        1.0  0.6071855617152685  0.14086885894400086  0.22051910466421468  1.0000
  Fe  Fe2       1.0  0.6765181836928806  0.11528766631423035  0.3205809668172882  1.0000
  S   S3        1.0  0.70200558529753  0.14875435158987632  0.3346256131617513  1.0000
  S   S4        1.0  0.6803763678356599  0.07719593177119528  0.35577561917731554  1.0000
  Fe  Fe3       1.0  0.66372555131206  0.17419921687014014  0.3328413712597504  1.0000
  S   S5        1.0  0.6532617768043205  0.20540955757542598  0.37954480811264735  1.0000
  Fe  Fe4       1.0  0.702587217471389  0.15550258730531766  0.2670632560058184  1.0000
  S   S6        1.0  0.7430062138429837  0.16363498685893266  0.24124841339205433  1.0000
  S   S7        1.0  0.6380172744889426  0.13999988701400787  0.3252438607858256  1.0000
  S   S8        1.0  0.6807091923450391  0.11934522878995163  0.25282089734646745  1.0000
  Fe  Fe5       1.0  0.6971672028122975  0.17269197579561862  0.5952142193232288  1.0000
  S   S9        1.0  0.6528737446998325  0.16845083190763796  0.5986442447420907  1.0000
  S   S10       1.0  0.7207030614771023  0.18291375045722713  0.5397251962855616  1.0000
  Fe  Fe6       1.0  0.7069067635303595  0.15242822734506628  0.6819684114479754  1.0000
  S   S11       1.0  0.6633733021897334  0.14599909044426537  0.6933328279668215  1.0000
  S   S12       1.0  0.7419984461176422  0.14535477104842434  0.7243473622926268  1.0000
  Fe  Fe7       1.0  0.6641907083249158  0.12976969651430878  0.6295111459277282  1.0000
  S   S13       1.0  0.6445294854648751  0.09377012737964828  0.6076162791232976  1.0000
  Fe  Fe8       1.0  0.6559225100306787  0.18519738133585395  0.6615442689361147  1.0000
  S   S14       1.0  0.6295693851049634  0.21990057046046102  0.6834595265904745  1.0000
  S   S15       1.0  0.7083397047639278  0.13263323257635537  0.6210741685445909  1.0000
  S   S16       1.0  0.6994917136188331  0.1930074981129288  0.6553966364637827  1.0000
  Fe  Fe9       1.0  0.6698416709651299  0.9427863372151735  0.27437828438724676  1.0000
  S   S17       1.0  0.7135459711191207  0.9366783770221282  0.28861080828780344  1.0000
  S   S18       1.0  0.6535294449019151  0.9805599375732077  0.24523910444783611  1.0000
  Fe  Fe10      1.0  0.6574736402744025  0.8888386610494281  0.3057856505532352  1.0000
  S   S19       1.0  0.7002425122254288  0.8777275838479381  0.32338833512523124  1.0000
  S   S20       1.0  0.623059570989364  0.8631998776280275  0.3167149289788972  1.0000
  Fe  Fe11      1.0  0.6998603182252974  0.919271026426243  0.3473658039979741  1.0000
  S   S21       1.0  0.7170193624516858  0.9322158367436123  0.4069075472965145  1.0000
  Fe  Fe12      1.0  0.710176351021137  0.895982910739726  0.262942901287562  1.0000
  S   S22       1.0  0.7437229521225605  0.8805621969424676  0.2214025764471665  1.0000
  S   S23       1.0  0.6561892407961011  0.9288673649736928  0.33521614565185476  1.0000
  S   S24       1.0  0.6673113569828832  0.903661210894492  0.24350383465079858  1.0000
  Fe  Fe13      1.0  0.6980953828304579  0.9598770737775045  0.6420787753451482  1.0000
  S   S25       1.0  0.7121465586941392  0.9169025950366015  0.6402194114683833  1.0000
  S   S26       1.0  0.7236958198053375  0.9918622599129054  0.6208160365876887  1.0000
  Fe  Fe14      1.0  0.644542364648559  0.9492022718911748  0.680112940569232  1.0000
  S   S27       1.0  0.6535938035309847  0.9052622467539243  0.6800310108606139  1.0000
  S   S28       1.0  0.6082531666314283  0.9695360776805337  0.7094802716054748  1.0000
  Fe  Fe15      1.0  0.6940276809157515  0.9150548259020985  0.7027429780069001  1.0000
  S   S29       1.0  0.7090318645714792  0.8928111382287255  0.7584611791580212  1.0000
  Fe  Fe16      1.0  0.6704350449892771  0.9116938176854563  0.6175884154404938  1.0000
  S   S30       1.0  0.6648823201437957  0.8850036752929199  0.5639974518990425  1.0000
  S   S31       1.0  0.6839644607080514  0.9587385699861956  0.7066313114845804  1.0000
  S   S32       1.0  0.6574677621569853  0.9549808065598748  0.6155535423567248  1.0000
  Fe  Fe17      1.0  0.48019553380843855  0.11320248980824324  0.3550067017300335  1.0000
  S   S33       1.0  0.45440936406434285  0.11882050706092322  0.4104398124401316  1.0000
  S   S34       1.0  0.49101367137591034  0.07324228581674541  0.3286331416354935  1.0000
  Fe  Fe18      1.0  0.48739316957929996  0.17181488346835863  0.34587582034895603  1.0000
  S   S35       1.0  0.4621210894783718  0.1828907029456367  0.4007039940683275  1.0000
  S   S36       1.0  0.507374651300857  0.20049771127789617  0.30585226218379363  1.0000
  Fe  Fe19      1.0  0.48407801323748667  0.14741180789528913  0.4300864597857708  1.0000
  S   S37       1.0  0.504659658122853  0.1424565487781195  0.4908728330894033  1.0000
  Fe  Fe20      1.0  0.43503823451692525  0.15300335220866865  0.3757280533642188  1.0000
  S   S38       1.0  0.3909432080091869  0.15596748044156833  0.3637982091786976  1.0000
  S   S39       1.0  0.5116469570201001  0.13901099493452743  0.37699385890704207  1.0000
  S   S40       1.0  0.45861108056242605  0.1450403674217067  0.31851630420219507  1.0000
  Fe  Fe21      1.0  0.4979440854934499  0.17013877234948252  0.7664521580859712  1.0000
  S   S41       1.0  0.453100747249845  0.1709574183250648  0.7594953315548424  1.0000
  S   S42       1.0  0.5172725196906552  0.20888120430499182  0.7683151043431478  1.0000
  Fe  Fe22      1.0  0.5050273145773708  0.11109494734041964  0.7616038989260421  1.0000
  S   S43       1.0  0.4610674227447279  0.10683261656344513  0.7554815763137127  1.0000
  S   S44       1.0  0.5302314334774554  0.07315665353941925  0.7541431518673564  1.0000
  Fe  Fe23      1.0  0.4618017920354874  0.14029865447272705  0.7112565955235131  1.0000
  S   S45       1.0  0.4372888309208285  0.13866994498450885  0.6535484685464825  1.0000
  Fe  Fe24      1.0  0.45589061228752265  0.13735361565635903  0.8044602623174428  1.0000
  S   S46       1.0  0.42210110386192284  0.13033246828032155  0.8484936780365183  1.0000
  S   S47       1.0  0.5063709178426427  0.14276396962090293  0.7140464497153564  1.0000
  S   S48       1.0  0.500343865847225  0.13861359353376493  0.8152143535053146  1.0000
  Fe  Fe25      1.0  0.48365944986599635  0.9265380396029373  0.34107883783169607  1.0000
  S   S49       1.0  0.46517609725537135  0.8873247615593153  0.33909578651201355  1.0000
  S   S50       1.0  0.5179463456131221  0.9383464507663657  0.30264990019284976  1.0000
  Fe  Fe26      1.0  0.44175527475387527  0.9510053926827958  0.3981563714063176  1.0000
  S   S51       1.0  0.4191649553761233  0.9143208633123632  0.4010455995606296  1.0000
  S   S52       1.0  0.42804648655476796  0.9896511460511678  0.42679063566300385  1.0000
  Fe  Fe27      1.0  0.45999122053789093  0.8934922576887271  0.4064221634224935  1.0000
  S   S53       1.0  0.4658262729126969  0.8615505633456647  0.4534408028634819  1.0000
  Fe  Fe28      1.0  0.4261436847197679  0.9116754042586239  0.33369411125443094  1.0000
  S   S54       1.0  0.39358024485175674  0.8993766465249515  0.29170310300914387  1.0000
  S   S55       1.0  0.48221217215427137  0.9305099057789327  0.40908406541966197  1.0000
  S   S56       1.0  0.4451032530298251  0.9504325364695129  0.33035540143178005  1.0000
  Fe  Fe29      1.0  0.4214570264378113  0.9271289483101265  0.649800600800685  1.0000
  S   S57       1.0  0.46399757854594603  0.9364621662830309  0.6386942914427913  1.0000
  S   S58       1.0  0.3992928683554107  0.9017748496306234  0.6070060692331027  1.0000
  Fe  Fe30      1.0  0.4176223150453404  0.9575154077988918  0.7295042916715366  1.0000
  S   S59       1.0  0.4600730270210589  0.9690862966785335  0.7254153497923849  1.0000
  S   S60       1.0  0.3918878791792729  0.9768552442540392  0.7788890145581052  1.0000
  Fe  Fe31      1.0  0.450720749930297  0.9771528613416993  0.6596065321692804  1.0000
  S   S61       1.0  0.46183535482908034  0.01395957928838687  0.6271268044743463  1.0000
  Fe  Fe32      1.0  0.46964467186568626  0.9273230189042503  0.7050089995264839  1.0000
  S   S62       1.0  0.5068025162924615  0.9017127245968098  0.7196013593594935  1.0000
  S   S63       1.0  0.4074204189348932  0.9688412657425493  0.6649258480980452  1.0000
  S   S64       1.0  0.42790835469724114  0.914601954233428  0.7149120445525434  1.0000
  Fe  Fe33      1.0  0.3673779133143924  0.9421180696732129  0.07016040080407449  1.0000
  S   S65       1.0  0.32798601886617756  0.9641390844389618  0.08327060224472088  1.0000
  S   S66       1.0  0.4018906501626822  0.9444177041860848  0.11334752220330227  1.0000
  Fe  Fe34      1.0  0.3517989430025081  0.927898320236244  0.9848271492190375  1.0000
  S   S67       1.0  0.3112897348019009  0.9491989756394457  0.9895915288973911  1.0000
  S   S68       1.0  0.3641150168545973  0.9045530914268387  0.9289923683911253  1.0000
  Fe  Fe35      1.0  0.3324058678322688  0.9811178057508042  0.020875326158949603  1.0000
  S   S69       1.0  0.3193392938004776  0.023859882622558226  0.009522229558710293  1.0000
  Fe  Fe36      1.0  0.3096694653217274  0.9305267441026084  0.05144377759596552  1.0000
  S   S70       1.0  0.2682760035442244  0.9192915652221658  0.06911219065901753  1.0000
  S   S71       1.0  0.37333279614317466  0.9618258709263183  0.009727480643946018  1.0000
  S   S72       1.0  0.3488028034647331  0.9063623502946583  0.0445373673146352  1.0000
  Fe  Fe37      1.0  0.20136334016196222  0.7889202721250412  0.06049842075680312  1.0000
  S   S73       1.0  0.19038278146619006  0.7474577896436417  0.046415529132690425  1.0000
  S   S74       1.0  0.24486394495222463  0.7976780309885623  0.06821849258653856  1.0000
  Fe  Fe38      1.0  0.14317641781352197  0.8094546438258523  0.06782261160957681  1.0000
  S   S75       1.0  0.12728589094897982  0.769992586431326  0.05509642045007812  1.0000
  S   S76       1.0  0.11728774634948447  0.8458596558836963  0.08302928126566123  1.0000
  Fe  Fe39      1.0  0.16000110360198033  0.7540404987777638  0.09660265511554772  1.0000
  S   S77       1.0  0.152186078889343  0.7222190176604466  0.14257699653923328  1.0000
  Fe  Fe40      1.0  0.15870477205583064  0.7672146123388079  0.0060703234307881715  1.0000
  S   S78       1.0  0.1457127684077165  0.7569403445637721  0.9425851537110655  1.0000
  S   S79       1.0  0.17339517201061475  0.7938927868320337  0.11366972755074022  1.0000
  S   S80       1.0  0.17225216627705064  0.8082326075783768  0.015795151815513053  1.0000
  Fe  Fe41      1.0  0.19818496905495755  0.33464680651094025  0.13063296579396622  1.0000
  S   S81       1.0  0.1895777401589113  0.37777189604251166  0.14627471706967143  1.0000
  S   S82       1.0  0.2423217109722445  0.32176098582130863  0.12602138922411643  1.0000
  Fe  Fe42      1.0  0.1392037312442114  0.3252122309013188  0.12112515936461166  1.0000
  S   S83       1.0  0.12646998478449056  0.3672048872242964  0.13562877515288618  1.0000
  S   S84       1.0  0.10413845233072441  0.3003102092664673  0.11141252054060069  1.0000
  Fe  Fe43      1.0  0.16004925127764594  0.3773692872260191  0.09491769044474152  1.0000
  S   S85       1.0  0.15296559680411895  0.4119903813434139  0.052271068762339556  1.0000
  Fe  Fe44      1.0  0.15680516297519823  0.3634211224345095  0.1857247452677304  1.0000
  S   S86       1.0  0.14052807225056776  0.37783303725602513  0.24653524615185568  1.0000
  S   S87       1.0  0.17088794749244848  0.3354608159670043  0.0762171148080828  1.0000
  S   S88       1.0  0.1674360951185863  0.3202427230291532  0.17431419564096326  1.0000
  Fe  Fe45      1.0  0.36929027831319416  0.19922631818127087  0.14836079841937425  1.0000
  S   S89       1.0  0.33282317407908574  0.17584338061038893  0.14846547952590325  1.0000
  S   S90       1.0  0.3829818508763947  0.22267121195595332  0.20141441509950583  1.0000
  Fe  Fe46      1.0  0.3849940461174074  0.18335597790124578  0.06192591527188229  1.0000
  S   S91       1.0  0.349595402141038  0.15861571796138413  0.05415895664732706  1.0000
  S   S92       1.0  0.4205109111394888  0.18714515490753586  0.020369949600405057  1.0000
  Fe  Fe47      1.0  0.3262578777763795  0.1925897567112135  0.08557226180511845  1.0000
  S   S93       1.0  0.2834303567825355  0.20630385877265875  0.07038781509539582  1.0000
  Fe  Fe48      1.0  0.35912934686339476  0.14428755041614752  0.11771261616786588  1.0000
  S   S94       1.0  0.36344513993906086  0.10193353325656218  0.13947442813515143  1.0000
  S   S95       1.0  0.36100616431629745  0.21857942793835128  0.08785635349270815  1.0000
  S   S96       1.0  0.39625874942276396  0.16641188876306787  0.12316908219779599  1.0000
  Fe  Fe49      1.0  0.9780392704936081  0.8021517975436557  0.04653524334257675  1.0000
  S   S97       1.0  0.999587677221445  0.7623671944852909  0.03725379211916402  1.0000
  S   S98       1.0  0.992749791393758  0.8323328107868676  0.08937280136338854  1.0000
  Fe  Fe50      1.0  0.9320234419832603  0.7906380153472314  0.9912632236098363  1.0000
  S   S99       1.0  0.9493271138254833  0.7495659580625584  0.9776558833503154  1.0000
  S   S100      1.0  0.892456141254321  0.8047016369868785  0.9630942651824475  1.0000
  Fe  Fe51      1.0  0.9588120401558193  0.7471486709935137  0.044342422154550754  1.0000
  S   S101      1.0  0.9534938077512776  0.7101359977581064  0.08034888976036453  1.0000
  Fe  Fe52      1.0  0.9883624483790804  0.768549061726433  0.9716493245786542  1.0000
  S   S102      1.0  0.016566198823784628  0.7559792199240811  0.9207333408185532  1.0000
  S   S103      1.0  0.9378238322355621  0.7864947562656778  0.05877734250761911  1.0000
  S   S104      1.0  0.9705135331492075  0.8100485488555654  0.9800334209372292  1.0000
  Fe  Fe53      1.0  0.7496088959551251  0.9278095316009033  0.012876397279810492  1.0000
  S   S105      1.0  0.7764272601176778  0.9463122878330434  0.057756444131594815  1.0000
  S   S106      1.0  0.717647188860967  0.9026121244591317  0.036341201542406276  1.0000
  Fe  Fe54      1.0  0.7755341592650535  0.9532826396813945  0.9402307324467023  1.0000
  S   S107      1.0  0.8046169246067569  0.9735590123583192  0.9795156821455601  1.0000
  S   S108      1.0  0.7784900272239063  0.9614034508656945  0.8730754940078177  1.0000
  Fe  Fe55      1.0  0.8089319621120938  0.9345246904455716  0.012699644130909515  1.0000
  S   S109      1.0  0.8493738160718738  0.9163105515698096  0.032395833040197886  1.0000
  Fe  Fe56      1.0  0.7690957327021829  0.9829632377157249  0.019895537230399496  1.0000
  S   S110      1.0  0.7547628128295529  0.022417884574740254  0.04613667570134705  1.0000
  S   S111      1.0  0.7824695021622661  0.9135356744276332  0.9701949977893531  1.0000
  S   S112      1.0  0.7396053559882787  0.9653885824252753  0.978229812661018  1.0000
  Fe  Fe57      1.0  0.0032458621788133968  0.33874283722396253  0.9485200401303372  1.0000
  S   S113      1.0  0.9942168479523275  0.38165102648878735  0.9328886204137485  1.0000
  S   S114      1.0  0.045349121003397164  0.32047549335788256  0.9420797472107715  1.0000
  Fe  Fe58      1.0  0.9477290382711289  0.3318765432061417  0.9823431451052389  1.0000
  S   S115      1.0  0.9343369372297192  0.3744576269220353  0.9718693252742284  1.0000
  S   S116      1.0  0.9220092276956431  0.30367193945160703  0.015378740711708083  1.0000
  Fe  Fe59      1.0  0.9546196787550948  0.36870621922442004  0.9110294840699811  1.0000
  S   S117      1.0  0.9295894190651179  0.38746299383445587  0.8602891314719533  1.0000
  Fe  Fe60      1.0  0.9748359568566093  0.3839233491881295  0.9944614408736571  1.0000
  S   S118      1.0  0.9849949381848684  0.41757196579724093  0.034959200966501625  1.0000
  S   S119      1.0  0.9654388259845668  0.32515939772120783  0.9201012539070981  1.0000
  S   S120      1.0  0.9863876990125949  0.3419710551613578  0.0113325175182859  1.0000
  Fe  Fe61      1.0  0.7702870636309735  0.2094768732820382  0.02734789222921785  1.0000
  S   S121      1.0  0.814612352154532  0.19875454351429436  0.02264001635683477  1.0000
  S   S122      1.0  0.7476777057061428  0.23013480553243823  0.07868135011596819  1.0000
  Fe  Fe62      1.0  0.7577291481373424  0.18487497051390966  0.9460641972584181  1.0000
  S   S123      1.0  0.8007686236114924  0.17215356331941545  0.9336397617191302  1.0000
  S   S124      1.0  0.7220240768596797  0.17445182639226273  0.90895433321882  1.0000
  Fe  Fe63      1.0  0.8020300900851143  0.15966672691631  0.999184294669571  1.0000
  S   S125      1.0  0.8236273871605072  0.12054591601770065  0.015669363510478984  1.0000
  Fe  Fe64      1.0  0.8098490234958982  0.21234542589945776  0.9575475857892285  1.0000
  S   S126      1.0  0.838840630888547  0.23629529397075233  0.9218780607387432  1.0000
  S   S127      1.0  0.7582626234278877  0.16926244290983264  0.009979054216144423  1.0000
  S   S128      1.0  0.7663016221242177  0.2261658403298131  0.9640231003189573  1.0000
  Fe  Fe65      1.0  0.19286679367047166  0.4549744521521275  0.42857078758821104  1.0000
  S   S129      1.0  0.15037112018809665  0.4678152119767193  0.44504677192980246  1.0000
  S   S130      1.0  0.20721719186311305  0.44716889564249906  0.3641532257616403  1.0000
  Fe  Fe66      1.0  0.2122892993441534  0.4581190652765392  0.5164092574191748  1.0000
  S   S131      1.0  0.1716277185184254  0.4709506906227815  0.540368174094045  1.0000
  S   S132      1.0  0.24949074045112882  0.45291212799882935  0.5547134861102834  1.0000
  Fe  Fe67      1.0  0.15712006191723982  0.4402852610908891  0.4983514863808476  1.0000
  S   S133      1.0  0.12785944821802137  0.4121310543597497  0.5217880444982105  1.0000
  Fe  Fe68      1.0  0.16864205348430483  0.4973475046740604  0.4855047394822996  1.0000
  S   S134      1.0  0.150509303338077  0.5385328480756101  0.4959332864288149  1.0000
  S   S135      1.0  0.19819546943915684  0.42484866557086975  0.4787107077460018  1.0000
  S   S136      1.0  0.21074030883879707  0.4872229716439065  0.46470416214021293  1.0000
  Fe  Fe69      1.0  0.18920335963856413  0.42791032783832467  0.8321791992914742  1.0000
  S   S137      1.0  0.14839641661600184  0.44843379714655623  0.8239539980334794  1.0000
  S   S138      1.0  0.19292105466390105  0.3915689418090762  0.8718358042239109  1.0000
  Fe  Fe70      1.0  0.21605054679329944  0.465426603822377  0.7754780309563775  1.0000
  S   S139      1.0  0.17792683177381036  0.4890637426849667  0.7629119770562753  1.0000
  S   S140      1.0  0.2518639076002403  0.4793457304648156  0.7429178002800124  1.0000
  Fe  Fe71      1.0  0.17021334752552658  0.4855947992445762  0.8298046883715062  1.0000
  S   S141      1.0  0.15634680788041733  0.5226373072015527  0.8632676706447041  1.0000
  Fe  Fe72      1.0  0.1600419832903939  0.4499937969207016  0.7577461725268322  1.0000
  S   S142      1.0  0.13450553798091353  0.4461253454586812  0.7021458810455982  1.0000
  S   S143      1.0  0.21036316019725884  0.46509152956052663  0.8433034606723899  1.0000
  S   S144      1.0  0.1990278416296992  0.42616064837280154  0.7652325842381551  1.0000
  Fe  Fe73      1.0  0.0031635218334440385  0.4092805646298895  0.2671658934487363  1.0000
  S   S145      1.0  0.04665271530619042  0.4158192197815035  0.2764330571638573  1.0000
  S   S146      1.0  0.9906324737826975  0.3812302222433746  0.2190985138018985  1.0000
  Fe  Fe74      1.0  0.9862801853677453  0.43624109666881017  0.34685292483146757  1.0000
  S   S147      1.0  0.02855635797831657  0.44397526586219876  0.3632122985552247  1.0000
  S   S148      1.0  0.9524445417574413  0.4477838408614073  0.389836294749201  1.0000
  Fe  Fe75      1.0  0.03153029139479768  0.45629323545411604  0.29774056032294377  1.0000
  S   S149      1.0  0.05193307200036479  0.49403159958376075  0.28611780040395396  1.0000
  Fe  Fe76      1.0  0.03915247442260417  0.4030066533287433  0.34052953182403256  1.0000
  S   S150      1.0  0.06437687524235947  0.37080238874488386  0.37162977424180593  1.0000
  S   S151      1.0  0.9883268953560975  0.4510127894929739  0.28252053307870734  1.0000
  S   S152      1.0  0.9966018740907698  0.39402197275177897  0.33018460527923327  1.0000
  Fe  Fe77      1.0  0.973283030672382  0.4564795501763133  0.6699299152299601  1.0000
  S   S153      1.0  0.9642054104228993  0.489235928378322  0.71476364018051  1.0000
  S   S154      1.0  0.9797950440202003  0.4136220270243221  0.6885488777217891  1.0000
  Fe  Fe78      1.0  0.9852837288201194  0.49527574023373455  0.6011495591991867  1.0000
  S   S155      1.0  0.9775428190994322  0.5309174179400308  0.6406346614562144  1.0000
  S   S156      1.0  0.0028295833088027855  0.5034536265266526  0.5397623210222972  1.0000
  Fe  Fe79      1.0  0.00016885570008629003  0.5069359439920346  0.6879947668068492  1.0000
  S   S157      1.0  0.03170014920044517  0.5226231003915434  0.7276585160716481  1.0000
  Fe  Fe80      1.0  0.9423154022148437  0.5097035941956073  0.6626888477058933  1.0000
  S   S158      1.0  0.9016974014869068  0.5307724123643406  0.6682737022481504  1.0000
  S   S159      1.0  0.010916806009214852  0.47285639635446564  0.6468971767132464  1.0000
  S   S160      1.0  0.9482239074440576  0.4753431443326073  0.6194039499446274  1.0000
  Fe  Fe81      1.0  0.18102543808763433  0.724007649380582  0.373775128451594  1.0000
  S   S161      1.0  0.15376273626717554  0.6911750614490728  0.38275579981935975  1.0000
  S   S162      1.0  0.17410911709513424  0.7547786185150855  0.3244151302623869  1.0000
  Fe  Fe82      1.0  0.21183434078260763  0.7107752925789007  0.45165706862098043  1.0000
  S   S163      1.0  0.18692681574205153  0.6771349117705733  0.46803311185688834  1.0000
  S   S164      1.0  0.24724342457812903  0.7197785058280538  0.48990416086270044  1.0000
  Fe  Fe83      1.0  0.19053633448431392  0.6665702096855951  0.40190085216880506  1.0000
  S   S165      1.0  0.19900604920837978  0.6242793662637034  0.38157066410273727  1.0000
  Fe  Fe84      1.0  0.15234041272414825  0.7044257245129973  0.44796830086727113  1.0000
  S   S166      1.0  0.11236595775360045  0.7073706767037979  0.4792327948310338  1.0000
  S   S167      1.0  0.21846158242378097  0.6982723244586522  0.38660586945944564  1.0000
  S   S168      1.0  0.17680267274613307  0.7392741957654518  0.4378342325095585  1.0000
  Fe  Fe85      1.0  0.1598256742160739  0.6912738990458376  0.7242282998294931  1.0000
  S   S169      1.0  0.2025613457074465  0.6948061852888991  0.7434219648273701  1.0000
  S   S170      1.0  0.1261029628896024  0.7225035062845384  0.7191930685319249  1.0000
  Fe  Fe86      1.0  0.16418268819155918  0.6317400021828297  0.7235139858350491  1.0000
  S   S171      1.0  0.20726580755974952  0.6289755058346147  0.7426684024615332  1.0000
  S   S172      1.0  0.14012100156236057  0.596602418343303  0.7121674406177255  1.0000
  Fe  Fe87      1.0  0.19513601107112338  0.661527521840388  0.7865080870327068  1.0000
  S   S173      1.0  0.20598695145151033  0.659882615401644  0.8528301324432049  1.0000
  Fe  Fe88      1.0  0.21147853506232114  0.6621776927194524  0.6979099345045872  1.0000
  S   S174      1.0  0.24846805399863667  0.6599911100579808  0.6588246070357384  1.0000
  S   S175      1.0  0.15171991137814128  0.6610191678380524  0.7717501645827469  1.0000
  S   S176      1.0  0.16936386472259418  0.6617903522320688  0.6744898394948149  1.0000
  Fe  Fe89      1.0  0.9877591428871  0.6794075523405334  0.29981397496794543  1.0000
  S   S177      1.0  0.011152299846558078  0.6409472668434857  0.2876636639302397  1.0000
  S   S178      1.0  0.994599499293779  0.7159534901359613  0.26236523315084437  1.0000
  Fe  Fe90      1.0  0.9607507627072375  0.65808768504307  0.3753801685311121  1.0000
  S   S179      1.0  0.9811487576223786  0.6175548946923491  0.369070332225805  1.0000
  S   S180      1.0  0.9336063260066275  0.6668223582825473  0.4294927524778535  1.0000
  Fe  Fe91      1.0  0.017617678380245083  0.639076369790753  0.35505030704025436  1.0000
  S   S181      1.0  0.056854180333425264  0.6218811414603423  0.3790427079331299  1.0000
  Fe  Fe92      1.0  0.9728277242196272  0.6223634539563139  0.30240570416613166  1.0000
  S   S182      1.0  0.961803134920026  0.5866526258291238  0.2672680693726075  1.0000
  S   S183      1.0  0.9982343156165712  0.6795998725552912  0.36632490870491446  1.0000
  S   S184      1.0  0.9483505823436068  0.6610684934505274  0.30940439391460156  1.0000
  Fe  Fe93      1.0  0.9785003910431567  0.6961900065473976  0.6449527971069591  1.0000
  S   S185      1.0  0.9748601391305209  0.6565277438423056  0.6738644588244911  1.0000
  S   S186      1.0  0.000491141790524452  0.6948333883628458  0.5852671237175178  1.0000
  Fe  Fe94      1.0  0.958570185496242  0.7257150446897275  0.7216438054461156  1.0000
  S   S187      1.0  0.9532805949118957  0.6882416211041468  0.7564655867098046  1.0000
  S   S188      1.0  0.9504901301236254  0.7636048614744089  0.7566369981714363  1.0000
  Fe  Fe95      1.0  0.9927164711346039  0.674767236094784  0.7287040337785621  1.0000
  S   S189      1.0  0.02809357076662633  0.6550782400379116  0.7606786390810457  1.0000
  Fe  Fe96      1.0  0.9358345491508164  0.6742171599101726  0.6981277812847135  1.0000
  S   S190      1.0  0.8971091226438865  0.6543720311087634  0.6960177087232862  1.0000
  S   S191      1.0  0.9994506078173653  0.713181522693215  0.6979539380222111  1.0000
  S   S192      1.0  0.937792476001797  0.7129348497882615  0.6648360041739263  1.0000
  C   C1        1.0  0.9520695622379274  0.675211364383798  0.47259660579199103  1.0000
  C   C2        1.0  0.9390832199630778  0.6874929426842413  0.5061477054175375  1.0000
  C   C3        1.0  0.9537587288791649  0.6934225393781795  0.5411346203228262  1.0000
  C   C4        1.0  0.9814948547402305  0.6874484435142095  0.5422944877395571  1.0000
  C   C5        1.0  0.9944475237649638  0.675293485286087  0.5087112754726845  1.0000
  C   C6        1.0  0.9796985667149355  0.6688888845176219  0.4741839666082178  1.0000
  H   H1        1.0  0.9177259563044969  0.6926350114637613  0.5049143113116255  1.0000
  H   H2        1.0  0.9437325493346941  0.7031456842237905  0.5667968804661179  1.0000
  H   H3        1.0  0.01587705773179926  0.6705243005516103  0.5095232184282363  1.0000
  H   H4        1.0  0.9896197501458667  0.6587532154075606  0.4489026883921846  1.0000
  C   C7        1.0  0.054955957652911946  0.6742050955109596  0.7485468614604475  1.0000
  C   C8        1.0  0.05333211716407016  0.7015040068564106  0.7560422499285319  1.0000
  C   C9        1.0  0.07471711093739852  0.7168420149067875  0.7455666004988194  1.0000
  C   C10       1.0  0.09774977382986064  0.7047518567415294  0.727698477572999  1.0000
  C   C11       1.0  0.09889400446049432  0.6776678370277865  0.7190072404578126  1.0000
  C   C12       1.0  0.07786061333256544  0.6623177104441965  0.7301808289605508  1.0000
  H   H5        1.0  0.03582237788632914  0.7107220059016952  0.7707066028316609  1.0000
  H   H6        1.0  0.07368769974376453  0.7378215260300836  0.752296035444494  1.0000
  H   H7        1.0  0.11624968344023848  0.6682745768541313  0.7041860540731517  1.0000
  H   H8        1.0  0.07954946358032555  0.6412958220351551  0.7244405917387674  1.0000
  C   C13       1.0  0.09583458846477518  0.6809177557123776  0.4594113937067355  1.0000
  C   C14       1.0  0.06788897360299351  0.682199154808512  0.4562574184379662  1.0000
  C   C15       1.0  0.055515376420872675  0.6631372728510027  0.4332160271311811  1.0000
  C   C16       1.0  0.07107274176341383  0.6427827144712069  0.4140022475500383  1.0000
  C   C17       1.0  0.09877583392221467  0.6404600643758339  0.4198874079376502  1.0000
  C   C18       1.0  0.11106923349854034  0.6596341147221979  0.44243666952427685  1.0000
  H   H9        1.0  0.055945990375835704  0.6986039428719362  0.469567998720437  1.0000
  H   H10       1.0  0.034065145541939845  0.6645762820100453  0.4295448432293361  1.0000
  H   H11       1.0  0.11095331888407634  0.6247476454045601  0.4051838784398613  1.0000
  H   H12       1.0  0.13253400359306416  0.6585883927495556  0.4453969020012247  1.0000
  C   C19       1.0  0.24652241156023863  0.7058739080188947  0.5389369788581145  1.0000
  C   C20       1.0  0.27076941161026236  0.6998056718623801  0.5591778460588943  1.0000
  C   C21       1.0  0.27102802574922474  0.6863819427367365  0.5965796832157227  1.0000
  C   C22       1.0  0.24699612262107068  0.6794397126465022  0.6143988619664521  1.0000
  C   C23       1.0  0.22257754313658001  0.6864034429393316  0.5949786608937484  1.0000
  C   C24       1.0  0.2223607470238181  0.699457606409682  0.5570534945149738  1.0000
  H   H13       1.0  0.2894554249166323  0.7049245075758016  0.5454394700373012  1.0000
  H   H14       1.0  0.28992231427941006  0.6811410371804231  0.611590281329205  1.0000
  H   H15       1.0  0.2039538531503575  0.6811658097855015  0.6086026334536326  1.0000
  H   H16       1.0  0.20352265063801103  0.7046569694641851  0.5419590087095506  1.0000
  C   C25       1.0  0.9011564800403377  0.5647126772657902  0.679302335642287  1.0000
  C   C26       1.0  0.9245361481683294  0.5770503647029913  0.6896895754127417  1.0000
  C   C27       1.0  0.9235539712184656  0.6046429891235543  0.6956561040150644  1.0000
  C   C28       1.0  0.8991535930871355  0.6197429909049567  0.6915455996565043  1.0000
  C   C29       1.0  0.8758243099265148  0.6072473041712113  0.6820608010255462  1.0000
  C   C30       1.0  0.8768208790343488  0.5798410679764958  0.6759639100300912  1.0000
  H   H17       1.0  0.9432470465873408  0.5653449616183405  0.6933322180251585  1.0000
  H   H18       1.0  0.9415138779150126  0.6141406338949807  0.7038683151494055  1.0000
  H   H19       1.0  0.8569208129845188  0.6188279594894837  0.6790628301152599  1.0000
  H   H20       1.0  0.8587015751779294  0.570354006713985  0.6682283559766464  1.0000
  C   C31       1.0  0.028163702914963284  0.5205434866625999  0.2768804977797288  1.0000
  C   C32       1.0  0.03173348529843589  0.5453235239113586  0.2941330459756892  1.0000
  C   C33       1.0  0.011700854867838784  0.5659281766068642  0.29037021880559144  1.0000
  C   C34       1.0  0.9884341090466073  0.5621551120112264  0.26798552338200476  1.0000
  C   C35       1.0  0.9855779443484493  0.5378519380762052  0.24871846992765745  1.0000
  C   C36       1.0  0.0052452514950733775  0.5169400648351888  0.2536159721555907  1.0000
  H   H21       1.0  0.04962227313835155  0.548483001209159  0.3112963136508882  1.0000
  H   H22       1.0  0.014154841873921464  0.5845817508003465  0.30535209699360694  1.0000
  H   H23       1.0  0.9678128990930369  0.5349706449941676  0.23084483459756527  1.0000
  H   H24       1.0  0.002767838073567397  0.4981478237164927  0.23898355108170122  1.0000
  C   C37       1.0  0.9644789452686047  0.4655376015649842  0.4309048149924883  1.0000
  C   C38       1.0  0.9527832002956204  0.46348907272501305  0.4694482764659263  1.0000
  C   C39       1.0  0.9636936930431805  0.4761015405683012  0.5030018644347125  1.0000
  C   C40       1.0  0.9862627416698323  0.490759568562222  0.49791347228310584  1.0000
  C   C41       1.0  0.9969869343130807  0.4940015374981428  0.45897785119514634  1.0000
  C   C42       1.0  0.986027489062542  0.481512173543109  0.425488728687277  1.0000
  H   H25       1.0  0.935803578550267  0.45149529481041756  0.47359128398883676  1.0000
  H   H26       1.0  0.9550149542463399  0.4738834225442614  0.5328336456076738  1.0000
  H   H27       1.0  0.014209042208800149  0.5056275339516457  0.4548738785522169  1.0000
  H   H28       1.0  0.994373357282565  0.48421397992110843  0.3955368161888117  1.0000
  C   C43       1.0  0.10690994347542644  0.46896429947739215  0.7076841413440856  1.0000
  C   C44       1.0  0.09080607009556121  0.4765353978732735  0.6742893019326605  1.0000
  C   C45       1.0  0.06855042066199313  0.49460913732025025  0.6796781924797529  1.0000
  C   C46       1.0  0.062131201430348115  0.5045282675695771  0.7185289009407422  1.0000
  C   C47       1.0  0.07904292124086632  0.49801447616406586  0.751261914436493  1.0000
  C   C48       1.0  0.10123653932338468  0.48009125098843575  0.7458286426246545  1.0000
  H   H29       1.0  0.09542994469140079  0.46838717774729516  0.6444454947937355  1.0000
  H   H30       1.0  0.05634977138103947  0.5007642749775757  0.6537839884358287  1.0000
  H   H31       1.0  0.07457493402689797  0.5061377741715235  0.7811803057110558  1.0000
  H   H32       1.0  0.113679037811529  0.4745548303629059  0.7715141755019402  1.0000
  C   C49       1.0  0.14500247111705383  0.545564069526456  0.8261384414054291  1.0000
  C   C50       1.0  0.13268420519559346  0.5366147861562566  0.7910985371015603  1.0000
  C   C51       1.0  0.12927344063493745  0.5530726798883301  0.7568949851575663  1.0000
  C   C52       1.0  0.13901955995538212  0.5783339396617853  0.7574462561769656  1.0000
  C   C53       1.0  0.14991671303612397  0.5879115026758831  0.7933821483229864  1.0000
  C   C54       1.0  0.1522917427870248  0.5717293377234386  0.8281002407469777  1.0000
  H   H33       1.0  0.126703602283215  0.5165768932203388  0.7901095619726078  1.0000
  H   H34       1.0  0.12040091310708563  0.5456320959410482  0.7295146411760669  1.0000
  H   H35       1.0  0.15745282389664345  0.6073805582705858  0.7942100393392245  1.0000
  H   H36       1.0  0.16135744312817787  0.5789100873271505  0.8554834125226005  1.0000
  C   C55       1.0  0.11021356003895003  0.4007430651151764  0.48002950098903113  1.0000
  C   C56       1.0  0.10521082936958501  0.37394179601875316  0.4772463634300951  1.0000
  C   C57       1.0  0.0913654643518107  0.36475814180375005  0.44354037621504966  1.0000
  C   C58       1.0  0.08222587048853391  0.38243441531550776  0.4129415342953266  1.0000
  C   C59       1.0  0.08698921414988514  0.4092786779611957  0.4159720749530986  1.0000
  C   C60       1.0  0.10093072919110102  0.41842988218482957  0.4495601602882981  1.0000
  H   H37       1.0  0.1124143016333254  0.36020388741484133  0.500712141288568  1.0000
  H   H38       1.0  0.0877202929258083  0.3439630890238309  0.44113037216894346  1.0000
  H   H39       1.0  0.08034378508708429  0.42289833438119406  0.3921130192456349  1.0000
  H   H40       1.0  0.10412903629459114  0.43923526586317885  0.4520904121662869  1.0000
  C   C61       1.0  0.1643674037300894  0.5619616166229912  0.4640314147296409  1.0000
  C   C62       1.0  0.15937553130803261  0.5889007985274728  0.4724470460091003  1.0000
  C   C63       1.0  0.16971665591099686  0.6079697068978223  0.44689681800646247  1.0000
  C   C64       1.0  0.18491121852820452  0.6003566567260489  0.41262200272670563  1.0000
  C   C65       1.0  0.18982081233004697  0.5733513893361858  0.40405702293954593  1.0000
  C   C66       1.0  0.1795689025594053  0.554146656142748  0.42974626985591974  1.0000
  H   H41       1.0  0.14750774195765465  0.5950942432177979  0.49876866945479015  1.0000
  H   H42       1.0  0.16614373454367287  0.6285577758685813  0.45404944622957427  1.0000
  H   H43       1.0  0.20169310869754392  0.5672733431951967  0.37767446985580866  1.0000
  H   H44       1.0  0.1832912054512638  0.5333613029882334  0.42273915895955233  1.0000
  C   C67       1.0  0.2489719013161323  0.4614775822331631  0.6065693025088441  1.0000
  C   C68       1.0  0.22529056137646444  0.46231989614622054  0.6295069623812001  1.0000
  C   C69       1.0  0.22602852801951737  0.46747953680545606  0.6716320858053411  1.0000
  C   C70       1.0  0.2503339752272506  0.4726772210626611  0.6904448297468354  1.0000
  C   C71       1.0  0.2737786391025854  0.4725446145699994  0.6671679734155959  1.0000
  C   C72       1.0  0.2731646027087575  0.4665495672844225  0.6255366286287147  1.0000
  H   H45       1.0  0.20664008006811024  0.4584839296350936  0.6148508378366031  1.0000
  H   H46       1.0  0.2078922544839223  0.4673868483090565  0.6895738971431695  1.0000
  H   H47       1.0  0.2926140549665705  0.47643132805067867  0.6815162253691316  1.0000
  H   H48       1.0  0.29155576143277034  0.4657944135248835  0.607952867649019  1.0000
  C   C73       1.0  0.9444123461454799  0.394640020779653  0.8132040086617774  1.0000
  C   C74       1.0  0.9665145729167124  0.37926169051791603  0.7980875436933663  1.0000
  C   C75       1.0  0.9770489152232542  0.38490535217192573  0.7594369530796486  1.0000
  C   C76       1.0  0.965966683610792  0.4063216570429216  0.7363561975290157  1.0000
  C   C77       1.0  0.9442193458204345  0.421941326746499  0.7518998181964535  1.0000
  C   C78       1.0  0.9332220016210959  0.41584793936634923  0.7899097243660945  1.0000
  H   H49       1.0  0.9750629833862767  0.3626823577206725  0.8157024423893338  1.0000
  H   H50       1.0  0.9938315685372563  0.37271068138438823  0.7474447667858427  1.0000
  H   H51       1.0  0.9353701077694432  0.43831791570194506  0.734146307243834  1.0000
  H   H52       1.0  0.9160116082485098  0.42770026715725584  0.8013272854023435  1.0000
  C   C79       1.0  0.9855192998993882  0.4084334357386961  0.08662806401974515  1.0000
  C   C80       1.0  0.9751427981532601  0.3846862906726414  0.09881785923169958  1.0000
  C   C81       1.0  0.9768752691189163  0.3766240909294067  0.13960721861449063  1.0000
  C   C82       1.0  0.9885397442189754  0.39249442421559944  0.16860109307234022  1.0000
  C   C83       1.0  0.9986792800400246  0.4164916243151122  0.15671908327810852  1.0000
  C   C84       1.0  0.9972258622631858  0.42442544915194397  0.11561187941259674  1.0000
  H   H53       1.0  0.9652753522860664  0.37270721012293145  0.07703086485432355  1.0000
  H   H54       1.0  0.9687508091243746  0.35820647034326786  0.14882968374323666  1.0000
  H   H55       1.0  0.0075916292710478395  0.42886634589109696  0.17911955363878712  1.0000
  H   H56       1.0  0.005095450330965923  0.44293355465344514  0.10630393265026826  1.0000
  C   C85       1.0  0.8991035134788676  0.2850244741972597  0.988878154328051  1.0000
  C   C86       1.0  0.8800638957897944  0.27168589459423065  0.010994118392329888  1.0000
  C   C87       1.0  0.8615096988486367  0.2566179338590597  0.9908068920176457  1.0000
  C   C88       1.0  0.8620607520073658  0.2546134481728328  0.9483402383863693  1.0000
  C   C89       1.0  0.881318496788849  0.26774809010917844  0.9262169000173245  1.0000
  C   C90       1.0  0.8997959849350607  0.2829390533572642  0.9463993209407721  1.0000
  H   H57       1.0  0.8794595226236561  0.27316555258044234  0.043892525962491824  1.0000
  H   H58       1.0  0.8466871462131055  0.24668062657352627  0.008115236185753716  1.0000
  H   H59       1.0  0.8819158256486864  0.26605602242817034  0.8933519756646957  1.0000
  H   H60       1.0  0.9145611284015204  0.2929222985614288  0.9291061788816991  1.0000
  C   C91       1.0  0.7740958469893017  0.04862219178137672  0.03204866006117446  1.0000
  C   C92       1.0  0.761275378727796  0.07353333026534226  0.024020916661951386  1.0000
  C   C93       1.0  0.7764030159766739  0.09556894406911565  0.017795196256911394  1.0000
  C   C94       1.0  0.8043751296924565  0.09288998535814603  0.02024152414710856  1.0000
  C   C95       1.0  0.8172221361431582  0.06780375003420858  0.02706228716070469  1.0000
  C   C96       1.0  0.8021074567416413  0.04561394391638518  0.03261842124522696  1.0000
  H   H61       1.0  0.7395789862380175  0.0758877172891208  0.023471661385155773  1.0000
  H   H62       1.0  0.766355113747058  0.11465672230737312  0.011845115283000363  1.0000
  H   H63       1.0  0.838902177385493  0.06560033369257989  0.028713556593234824  1.0000
  H   H64       1.0  0.8121111221999519  0.02642610136938983  0.03905510893434605  1.0000
  C   C97       1.0  0.9995080285164798  0.7594053219959872  0.8740856180788358  1.0000
  C   C98       1.0  0.004854723364593694  0.7407698413156151  0.8432369085960605  1.0000
  C   C99       1.0  0.9900435645715561  0.7423633597741168  0.8069378530618062  1.0000
  C   C100      1.0  0.9705328240753854  0.7630547540521276  0.8006587202123225  1.0000
  C   C101      1.0  0.9657779621875141  0.7822093089164615  0.8310080816646681  1.0000
  C   C102      1.0  0.9799126228579008  0.780125598240825  0.867986904168068  1.0000
  H   H65       1.0  0.019716988103126054  0.7245263221229483  0.8478883381510199  1.0000
  H   H66       1.0  0.9932813303485581  0.7272523203627916  0.7840740862384672  1.0000
  H   H67       1.0  0.9507017944354118  0.7982747315313454  0.8263202835267134  1.0000
  H   H68       1.0  0.9756979075128972  0.7946234868236963  0.8916555839149196  1.0000
  C   C103      1.0  0.9643863551733807  0.7120437446660358  0.13114531132124627  1.0000
  C   C104      1.0  0.9725514938407717  0.7358903886402501  0.14696493979280797  1.0000
  C   C105      1.0  0.9813501026887047  0.7370615512420304  0.18751933674852936  1.0000
  C   C106      1.0  0.9822621056047823  0.7143683859883256  0.2122804753018581  1.0000
  C   C107      1.0  0.9739697168408926  0.690582692204494  0.1965389361956331  1.0000
  C   C108      1.0  0.9650134515250892  0.6894499138363398  0.15604814452323698  1.0000
  H   H69       1.0  0.9717612332719862  0.7534858744129946  0.12808792540216574  1.0000
  H   H70       1.0  0.9870828932344453  0.7556525181640301  0.19985793214784878  1.0000
  H   H71       1.0  0.9745270498375261  0.6729956210274285  0.21545631490050615  1.0000
  H   H72       1.0  0.9586414670612593  0.6709927985775875  0.14396343375863035  1.0000
  C   C109      1.0  0.8806770117013748  0.835887036258097  0.9816646247452785  1.0000
  C   C110      1.0  0.853678856156346  0.8445492057336618  0.976404446298043  1.0000
  C   C111      1.0  0.8438973443104569  0.8692213205667475  0.991760591734386  1.0000
  C   C112      1.0  0.8611371909239875  0.8855558172412127  0.011854615264810464  1.0000
  C   C113      1.0  0.8881810003450672  0.8769451944475127  0.016805343607006362  1.0000
  C   C114      1.0  0.897908716181981  0.8521104017608565  0.0019812790349449383  1.0000
  H   H73       1.0  0.8402065990696894  0.8319111500188077  0.9611369763820994  1.0000
  H   H74       1.0  0.8228920079796064  0.8751845179230752  0.9889651085595528  1.0000
  H   H75       1.0  0.9016452688114294  0.8893908008258775  0.032523575754909606  1.0000
  H   H76       1.0  0.9187762953748696  0.8455500171988491  0.006309905695518703  1.0000
  C   C115      1.0  0.1618742919045655  0.4062024145779766  0.0010920072113402846  1.0000
  C   C116      1.0  0.16470475826914244  0.3804427068768006  0.9855904730192693  1.0000
  C   C117      1.0  0.17348438691637838  0.37609762892995163  0.9453994414729769  1.0000
  C   C118      1.0  0.17922743955485804  0.3975226449266957  0.9204578760507709  1.0000
  C   C119      1.0  0.17521284336435186  0.42336506084950815  0.9353309499932095  1.0000
  C   C120      1.0  0.16653664037620558  0.4276833616458146  0.9756200514764787  1.0000
  H   H77       1.0  0.16008172676500598  0.3638521478282246  0.004389064117514385  1.0000
  H   H78       1.0  0.1760752902138969  0.35611553824197717  0.9336544295695046  1.0000
  H   H79       1.0  0.1794531411439  0.440020349585284  0.9161542599162219  1.0000
  H   H80       1.0  0.16408777959744422  0.44769484294998035  0.987290955149715  1.0000
  C   C121      1.0  0.16109659297234216  0.3937646730297278  0.2810801569369268  1.0000
  C   C122      1.0  0.15103057782335055  0.4004421791788175  0.31995352613952127  1.0000
  C   C123      1.0  0.16556256670261513  0.4159078645478344  0.346467726106059  1.0000
  C   C124      1.0  0.19026277343958042  0.4247830670403357  0.33418025177539146  1.0000
  C   C125      1.0  0.20072774976919705  0.4173718837146224  0.2958223362507355  1.0000
  C   C126      1.0  0.18620215775281954  0.40186850266261376  0.2693122828903131  1.0000
  H   H81       1.0  0.1316469039092939  0.39411006779686836  0.3293463701077602  1.0000
  H   H82       1.0  0.15737020773716262  0.4214180916935633  0.3760213186243251  1.0000
  H   H83       1.0  0.21985386012999136  0.42417907627381324  0.2862520159521413  1.0000
  H   H84       1.0  0.19413386444202066  0.39679300135592876  0.23945948687860882  1.0000
  C   C127      1.0  0.08830359698117018  0.3054759837211219  0.06397486997623192  1.0000
  C   C128      1.0  0.10250406554612256  0.31367605713500263  0.029890706754558627  1.0000
  C   C129      1.0  0.08941353404506147  0.31747387410439637  0.9922107204478681  1.0000
  C   C130      1.0  0.06189241648749744  0.31403456837926835  0.9888395199384019  1.0000
  C   C131      1.0  0.047798410977495376  0.3058076694382247  0.02297561228308931  1.0000
  C   C132      1.0  0.060995846126424606  0.30127094317740083  0.06028415211283544  1.0000
  H   H85       1.0  0.1236918087960491  0.3165121095213818  0.03229396183828226  1.0000
  H   H86       1.0  0.100572005413885  0.3234247937347162  0.9657937331662854  1.0000
  H   H87       1.0  0.026828972777840576  0.3024426782107951  0.020593526018423125  1.0000
  H   H88       1.0  0.049962034900001395  0.2947886813977544  0.08648219390828382  1.0000
  C   C133      1.0  0.25292583411288866  0.2902198171420904  0.1072958005260436  1.0000
  C   C134      1.0  0.2804536708845382  0.2841008825580966  0.1015192901014527  1.0000
  C   C135      1.0  0.28998123075298715  0.2585061454739716  0.08974587453142563  1.0000
  C   C136      1.0  0.27195615436131165  0.23897804982429185  0.08294542295638974  1.0000
  C   C137      1.0  0.24430657398998476  0.24541411989775289  0.08715729740091183  1.0000
  C   C138      1.0  0.23477927284700967  0.27095717150925336  0.09951876647909286  1.0000
  H   H89       1.0  0.2945371899591849  0.29908249736939696  0.10687298432241381  1.0000
  H   H90       1.0  0.31125143429916485  0.25390751278532064  0.08580156012513802  1.0000
  H   H91       1.0  0.23024836160641785  0.23041794227866114  0.08165901862303815  1.0000
  H   H92       1.0  0.21348291727916507  0.275541333042972  0.10370984052015753  1.0000
  C   C139      1.0  0.16463692721730128  0.7310585974150828  0.9182404863313911  1.0000
  C   C140      1.0  0.17959889407959984  0.7116594983584613  0.9405459351494326  1.0000
  C   C141      1.0  0.19273375015637523  0.6899971394892298  0.9203519162869951  1.0000
  C   C142      1.0  0.19093979902528402  0.687738312244473  0.8778884432905795  1.0000
  C   C143      1.0  0.17627277916134879  0.7073756669108537  0.8556607301715652  1.0000
  C   C144      1.0  0.16323108165992903  0.7289862273304478  0.8757720923988392  1.0000
  H   H93       1.0  0.18059578851089375  0.7129900817689224  0.9733653835637583  1.0000
  H   H94       1.0  0.2040272872878983  0.6748366934747323  0.9376682967802255  1.0000
  H   H95       1.0  0.1748885598604798  0.7059306398273147  0.822906081379761  1.0000
  H   H96       1.0  0.15201271189348356  0.7441046978155094  0.8582810758426626  1.0000
  C   C145      1.0  0.1563152697248199  0.7310266277900075  0.19380855687520052  1.0000
  C   C146      1.0  0.154308762893098  0.7576195328636522  0.20545670731436064  1.0000
  C   C147      1.0  0.15931175802954614  0.7645635238325201  0.24590067285859488  1.0000
  C   C148      1.0  0.1661879367966335  0.7449588114103558  0.2749640614965751  1.0000
  C   C149      1.0  0.16735126256121383  0.7182572101691377  0.26373629937312065  1.0000
  C   C150      1.0  0.16229028213667926  0.7113083329122651  0.22314766343267237  1.0000
  H   H97       1.0  0.14886786169296004  0.7728866030927468  0.1833927199685712  1.0000
  H   H98       1.0  0.1581643176891447  0.7852355180667053  0.25464848054459815  1.0000
  H   H99       1.0  0.1727065852178169  0.7030287487903806  0.28607110842436223  1.0000
  H   H100      1.0  0.1637386416378685  0.6906647256593638  0.21425850339891717  1.0000
  C   C151      1.0  0.08271769278529752  0.8418912700236654  0.08383040629650562  1.0000
  C   C152      1.0  0.0660113569201559  0.8592323347716492  0.1070880175647495  1.0000
  C   C153      1.0  0.038367333894804956  0.8561320558949496  0.10875981703960513  1.0000
  C   C154      1.0  0.02728758211634874  0.8360004373429756  0.08654546901093108  1.0000
  C   C155      1.0  0.04391427979303942  0.8188506045284641  0.06284392974397046  1.0000
  C   C156      1.0  0.0716468051929  0.8216846300646077  0.06169702644649133  1.0000
  H   H101      1.0  0.07448059570131571  0.874955612910401  0.12414013908034449  1.0000
  H   H102      1.0  0.025526771274028137  0.8694781210146664  0.12705342708678713  1.0000
  H   H103      1.0  0.035388255913838984  0.8034263401009222  0.04551034839600043  1.0000
  H   H104      1.0  0.08436547199141646  0.8084325920954656  0.04347030910511096  1.0000
  C   C157      1.0  0.3309093325726718  0.04509500159086932  0.04681720195696082  1.0000
  C   C158      1.0  0.3492161397681791  0.0356487617833392  0.0765151388605565  1.0000
  C   C159      1.0  0.3587284318272691  0.05309101189364829  0.10553023059632904  1.0000
  C   C160      1.0  0.3501030113271981  0.08000948496496951  0.10470080978400631  1.0000
  C   C161      1.0  0.33135665998536346  0.08928747248641611  0.07553768997024675  1.0000
  C   C162      1.0  0.32178454938466017  0.07185265701996912  0.04663148862185196  1.0000
  H   H105      1.0  0.35645582741302895  0.015013036344967645  0.07676803420448386  1.0000
  H   H106      1.0  0.3731686473846102  0.04577544806989198  0.1281072078755887  1.0000
  H   H107      1.0  0.32413086377468564  0.10990298525539255  0.07531273720224502  1.0000
  H   H108      1.0  0.30741682833557343  0.07918718013231407  0.023946970596294692  1.0000
  C   C163      1.0  0.2620795908956012  0.8854180673806819  0.07033805341640287  1.0000
  C   C164      1.0  0.2355960416605306  0.8779645930716369  0.06755201614499831  1.0000
  C   C165      1.0  0.23011825309840286  0.851072556640732  0.06724103815073246  1.0000
  C   C166      1.0  0.2511185940587209  0.8314944946771171  0.07014824252374496  1.0000
  C   C167      1.0  0.2775916743351212  0.8389280753885806  0.07378244652829746  1.0000
  C   C168      1.0  0.28308305814581514  0.8658500083935994  0.0736713210215294  1.0000
  H   H109      1.0  0.21923898359797606  0.8930154935891195  0.06522865813615714  1.0000
  H   H110      1.0  0.20962466059395687  0.8455404952928074  0.06468998586202014  1.0000
  H   H111      1.0  0.29388878283240555  0.8238409094405368  0.07639691613839372  1.0000
  H   H112      1.0  0.3035002798878915  0.871484443803202  0.07670933275532588  1.0000
  C   C169      1.0  0.38453945579134363  0.9565416219982501  0.8205548366317604  1.0000
  C   C170      1.0  0.37210063011255545  0.9679820831040061  0.8551799848324554  1.0000
  C   C171      1.0  0.3660017745976907  0.9521552405328344  0.8887574035317918  1.0000
  C   C172      1.0  0.3720469813115672  0.9247657990651532  0.8875896037859325  1.0000
  C   C173      1.0  0.3842849289365054  0.9132914917130641  0.8528823860626269  1.0000
  C   C174      1.0  0.39068372350333064  0.9291708265209881  0.8195237752504825  1.0000
  H   H113      1.0  0.3672444126205069  0.9891251923884403  0.8560933524716832  1.0000
  H   H114      1.0  0.35644998395446564  0.9611337879963766  0.9153693439977244  1.0000
  H   H115      1.0  0.3890223712605303  0.8921268490885859  0.8518816538073973  1.0000
  H   H116      1.0  0.4001882957881763  0.9201789820614155  0.7929765173559055  1.0000
  C   C175      1.0  0.4480299424423665  0.8724883586012374  0.49674563494122415  1.0000
  C   C176      1.0  0.4530214406859172  0.8968087326290693  0.5144664337141559  1.0000
  C   C177      1.0  0.43847962909998195  0.905683346135077  0.548955352620749  1.0000
  C   C178      1.0  0.4184749856127915  0.8905670430731404  0.5650357713882618  1.0000
  C   C179      1.0  0.4133070205239508  0.8664051721525028  0.5469975712886684  1.0000
  C   C180      1.0  0.4282727218500314  0.85722567134359  0.5131383208145314  1.0000
  H   H117      1.0  0.46805782597913265  0.9088052090666331  0.5014550981397288  1.0000
  H   H118      1.0  0.4419652439618775  0.9247555241992784  0.5618815720477395  1.0000
  H   H119      1.0  0.39780218830965547  0.8546889565289523  0.5593243038749253  1.0000
  H   H120      1.0  0.42424415306214497  0.8385203259459999  0.4991995746976741  1.0000
  C   C181      1.0  0.39312584711974147  0.913962586653355  0.24298661184632708  1.0000
  C   C182      1.0  0.40852570930667087  0.9354203733567503  0.23467139976175672  1.0000
  C   C183      1.0  0.4100685732729834  0.9453693161143761  0.19496875480682407  1.0000
  C   C184      1.0  0.3961511172909037  0.9339871876517749  0.16331148756186348  1.0000
  C   C185      1.0  0.3796925084205389  0.9132954841658772  0.171673098323455  1.0000
  C   C186      1.0  0.37824057959685803  0.90324308695084  0.2115709517854261  1.0000
  H   H121      1.0  0.41948749376361494  0.9442483008888302  0.25860374416872167  1.0000
  H   H122      1.0  0.4222945233390691  0.961786065906171  0.18863980469707103  1.0000
  H   H123      1.0  0.36887880742928436  0.9044456555136225  0.14722538330672094  1.0000
  H   H124      1.0  0.36615710691156017  0.886710648146754  0.21787160587252916  1.0000
  C   C187      1.0  0.514444145807468  0.05630333992360681  0.7152238726687712  1.0000
  C   C188      1.0  0.499200712591354  0.07063492884117095  0.6859118580743813  1.0000
  C   C189      1.0  0.4842287503264403  0.057527684980818394  0.6572208408970139  1.0000
  C   C190      1.0  0.48436966557793926  0.029915008413860633  0.6579179285302716  1.0000
  C   C191      1.0  0.5008114731983269  0.015430446138800402  0.6856544644917422  1.0000
  C   C192      1.0  0.5157373442864792  0.02864647157050837  0.7144780976573628  1.0000
  H   H125      1.0  0.4983516541950114  0.09191645810912097  0.6859445543726589  1.0000
  H   H126      1.0  0.4716697489512129  0.06894531224121692  0.6358640499186422  1.0000
  H   H127      1.0  0.5017720876379621  0.9940288434268821  0.6853648493094373  1.0000
  H   H128      1.0  0.527253915703782  0.01749447984428465  0.737286870774785  1.0000
  C   C193      1.0  0.42136822505165  0.14823421151109561  0.89449315638016  1.0000
  C   C194      1.0  0.4445475505658145  0.15848776317571875  0.9100878367058641  1.0000
  C   C195      1.0  0.443928014277616  0.17077586845765624  0.9484856741265483  1.0000
  C   C196      1.0  0.4201674328004224  0.17289880828680076  0.9714463207505172  1.0000
  C   C197      1.0  0.39681085157234036  0.1632321303569962  0.9553975895729806  1.0000
  C   C198      1.0  0.39743249766374833  0.15093307081223753  0.9169883237314277  1.0000
  H   H129      1.0  0.4630711092493359  0.15657610236578656  0.8928995003887673  1.0000
  H   H130      1.0  0.46200898700873927  0.17842656567710166  0.9605997383064625  1.0000
  H   H131      1.0  0.3782820762202963  0.16536103397016677  0.9724790120330506  1.0000
  H   H132      1.0  0.37932229347114327  0.14352775069263357  0.9046048093208939  1.0000
  C   C199      1.0  0.47281442013970154  0.04985986069545367  0.3543212055422832  1.0000
  C   C200      1.0  0.4476831938889341  0.05716739188933406  0.371289486693061  1.0000
  C   C201      1.0  0.43408200407594943  0.03889406391625694  0.3943996059589049  1.0000
  C   C202      1.0  0.4452886658084294  0.013046307991988915  0.39949415725104737  1.0000
  C   C203      1.0  0.4700497246930897  0.005567743036774431  0.38149706360082575  1.0000
  C   C204      1.0  0.4838033837441868  0.023935530362602542  0.35895042563608376  1.0000
  H   H133      1.0  0.4384471824509372  0.07673122089983164  0.36597002605025164  1.0000
  H   H134      1.0  0.41465761055369593  0.04458789717830336  0.40746093260003785  1.0000
  H   H135      1.0  0.47881065769610875  0.9856250807565796  0.38505854014215374  1.0000
  H   H136      1.0  0.5030615670179063  0.018039051962010832  0.3454697679749006  1.0000
  C   C205      1.0  0.4850725222750608  0.13991645795915825  0.5348594502436986  1.0000
  C   C206      1.0  0.45730109413206177  0.14565828623571517  0.5343927157311079  1.0000
  C   C207      1.0  0.4425573101619211  0.1446780571991411  0.5708732854543144  1.0000
  C   C208      1.0  0.4555663364690869  0.1379512663759465  0.60769289123077  1.0000
  C   C209      1.0  0.48315018306651436  0.13135651495824924  0.6076498436115616  1.0000
  C   C210      1.0  0.49787748870056064  0.13244567569419663  0.5714088472477774  1.0000
  H   H137      1.0  0.4473025996911583  0.15142218830756338  0.5061810829692581  1.0000
  H   H138      1.0  0.4211578666692994  0.14972158383440462  0.5707041811008795  1.0000
  H   H139      1.0  0.493236939992002  0.12550773770846388  0.6355283257049164  1.0000
  H   H140      1.0  0.5193380321435802  0.12774139496542178  0.5717684599451217  1.0000
  C   C211      1.0  0.3869844768962813  0.1754656625952225  0.3199091845868621  1.0000
  C   C212      1.0  0.40185898084227833  0.19774878460529255  0.3152420023161936  1.0000
  C   C213      1.0  0.39987399342365576  0.2126512957394997  0.2792211518549061  1.0000
  C   C214      1.0  0.3841362576535864  0.20448490062315253  0.24697444960327417  1.0000
  C   C215      1.0  0.36973504907026766  0.18182136806992638  0.2512893312489068  1.0000
  C   C216      1.0  0.3705730074349528  0.16773305807113617  0.28817704676955846  1.0000
  H   H141      1.0  0.4146657357130022  0.2037016248559815  0.3397009459270037  1.0000
  H   H142      1.0  0.41093939659186685  0.23023256292746766  0.2762662668603974  1.0000
  H   H143      1.0  0.3577691163314967  0.175209651587839  0.22646771061937032  1.0000
  H   H144      1.0  0.359108028241976  0.15046756495475028  0.29174386801284674  1.0000
  C   C217      1.0  0.5798842051904617  0.9508621147122792  0.7103377768084844  1.0000
  C   C218      1.0  0.5568579894041181  0.9608772668968854  0.730810699580416  1.0000
  C   C219      1.0  0.5342156861865769  0.945977464266164  0.7331961910367828  1.0000
  C   C220      1.0  0.5348496166271601  0.9206622639943263  0.7160993542884863  1.0000
  C   C221      1.0  0.5579942033856484  0.9104574180858438  0.6959854657333738  1.0000
  C   C222      1.0  0.5803311038458085  0.9257580020830705  0.6924647042157456  1.0000
  H   H145      1.0  0.5566206827225725  0.9800695443083597  0.7452127307551791  1.0000
  H   H146      1.0  0.5165229545813385  0.9538222723781856  0.7492243728549922  1.0000
  H   H147      1.0  0.5584986688467715  0.8909372064446096  0.6825299555406666  1.0000
  H   H148      1.0  0.5978190271632955  0.9180786712661764  0.6759770862893768  1.0000
  C   C223      1.0  0.7281701366320852  0.9119845786606262  0.7903426883033835  1.0000
  C   C224      1.0  0.7401552863335827  0.9341593477116644  0.775005197760481  1.0000
  C   C225      1.0  0.7555294573898642  0.949265960755651  0.8007053626457427  1.0000
  C   C226      1.0  0.7584875869223119  0.9425855567147398  0.8419700743009371  1.0000
  C   C227      1.0  0.7461749566260526  0.9206281798822308  0.8575222205523524  1.0000
  C   C228      1.0  0.7312847667957842  0.905151997372148  0.8315788651496668  1.0000
  H   H149      1.0  0.7380079020867005  0.9394128230254201  0.7431460199917762  1.0000
  H   H150      1.0  0.7650491367750291  0.9662248983967541  0.7885716160642496  1.0000
  H   H151      1.0  0.7483161044348144  0.9154128749481824  0.88939290632583  1.0000
  H   H152      1.0  0.7220833743852028  0.8879637737910924  0.8435185369033642  1.0000
  C   C229      1.0  0.5931737190608337  0.8827231494177957  0.3095189084452818  1.0000
  C   C230      1.0  0.5938693396182059  0.9076011664142923  0.2910515096668481  1.0000
  C   C231      1.0  0.5705582521241165  0.9244258248291397  0.28872022667348507  1.0000
  C   C232      1.0  0.5465835060380074  0.9166485639153548  0.30553711658954824  1.0000
  C   C233      1.0  0.5456925891154123  0.8916734236978934  0.3237635023672866  1.0000
  C   C234      1.0  0.5689391066780735  0.8745251364926134  0.32518300062414673  1.0000
  H   H153      1.0  0.612399928452293  0.9140149135900114  0.27860324322034613  1.0000
  H   H154      1.0  0.5712610241301205  0.9436875275576351  0.27442441644873466  1.0000
  H   H155      1.0  0.5271505458448172  0.8855551497603642  0.33669197479521745  1.0000
  H   H156      1.0  0.5682747226585196  0.8551922954566503  0.3391972030224898  1.0000
  C   C235      1.0  0.7010117887474037  0.9187295410622563  0.4488096213768801  1.0000
  C   C236      1.0  0.6881886544268297  0.935667562339572  0.47739970554853955  1.0000
  C   C237      1.0  0.6772869685642385  0.9253375988550198  0.5129236643740398  1.0000
  C   C238      1.0  0.6788725263014916  0.8979907977013528  0.5198105880544889  1.0000
  C   C239      1.0  0.6913148633662991  0.8809665204375428  0.49089588948373436  1.0000
  C   C240      1.0  0.70248353230464  0.8913326924515599  0.45541668812433556  1.0000
  H   H157      1.0  0.6867011348409295  0.9568397533583768  0.47206593474420816  1.0000
  H   H158      1.0  0.6672488392875309  0.9385605285921564  0.5345918882237523  1.0000
  H   H159      1.0  0.6926030787368532  0.8597798177329918  0.4961435199528263  1.0000
  H   H160      1.0  0.7125660128145355  0.8781837497568498  0.43346447576838637  1.0000
  C   C241      1.0  0.7363749032547413  0.8828326225136601  0.16913628012415435  1.0000
  C   C242      1.0  0.7573238968845751  0.8853621568601922  0.14127335474464883  1.0000
  C   C243      1.0  0.7517148655392341  0.8899813810218209  0.09988337587654701  1.0000
  C   C244      1.0  0.7251277143936039  0.8921321979796893  0.08628171667323584  1.0000
  C   C245      1.0  0.7043112667019127  0.8879210966278795  0.11363388713791484  1.0000
  C   C246      1.0  0.7099224784677717  0.883449681159116  0.1550793493867841  1.0000
  H   H161      1.0  0.7777545998220861  0.8850392351126267  0.1520353623843987  1.0000
  H   H162      1.0  0.7678835955866344  0.8924813262652423  0.07862183515493316  1.0000
  H   H163      1.0  0.6837497436908115  0.8890476498213045  0.10307089496150759  1.0000
  H   H164      1.0  0.6937649129705447  0.8804260446270467  0.17604267609651525  1.0000
  C   C247      1.0  0.5990593305151857  0.2152072501466923  0.7081820326220508  1.0000
  C   C248      1.0  0.5897929391652287  0.1900132066167181  0.7151684219287752  1.0000
  C   C249      1.0  0.5649229567832115  0.18756603418954707  0.734784778869644  1.0000
  C   C250      1.0  0.5494327484008423  0.21033121240962585  0.7470226824728021  1.0000
  C   C251      1.0  0.5591188810145638  0.23529997032693173  0.7406262451481318  1.0000
  C   C252      1.0  0.5837567781949615  0.23772775539746893  0.7212177210224727  1.0000
  H   H165      1.0  0.6016648997554991  0.17253219866552416  0.7053412948546556  1.0000
  H   H166      1.0  0.5576676659659309  0.16818229179150382  0.7401669677289248  1.0000
  H   H167      1.0  0.5473179287786641  0.2529059967454224  0.7502340488880567  1.0000
  H   H168      1.0  0.590878340713739  0.2572114655049313  0.7160144059654311  1.0000
  C   C253      1.0  0.6672944754025143  0.06593515856668697  0.6098003121598815  1.0000
  C   C254      1.0  0.6621261008480489  0.043155859556955  0.5878323617883235  1.0000
  C   C255      1.0  0.6796938087403864  0.02045616759816582  0.5907257919202412  1.0000
  C   C256      1.0  0.702657691422177  0.02067358394320551  0.6150700727331891  1.0000
  C   C257      1.0  0.7080765706103427  0.04359495248610101  0.6364069058425598  1.0000
  C   C258      1.0  0.690208020072253  0.06609926958299606  0.63420401399605  1.0000
  H   H169      1.0  0.6443939531005787  0.042934206112972495  0.5689722245936948  1.0000
  H   H170      1.0  0.6755654507722763  0.0028314965220090915  0.5739218177608906  1.0000
  H   H171      1.0  0.7256558601424313  0.04369865352098867  0.6556499227708251  1.0000
  H   H172      1.0  0.6939143307251833  0.08328307203438107  0.6522791279306346  1.0000
  C   C259      1.0  0.7362199213495896  0.15359142539259038  0.7754466366803744  1.0000
  C   C260      1.0  0.7112417656342095  0.15048612976024123  0.7934075951428605  1.0000
  C   C261      1.0  0.7071822906252799  0.15671748683554593  0.8346719538357927  1.0000
  C   C262      1.0  0.7279100528278718  0.16649631981491617  0.8577652652406562  1.0000
  C   C263      1.0  0.7528300255949173  0.16978595886941805  0.8397374488483491  1.0000
  C   C264      1.0  0.7570634084013611  0.16305127500144473  0.7986801390131973  1.0000
  H   H173      1.0  0.6952164542044582  0.14289547144552095  0.7756639005834522  1.0000
  H   H174      1.0  0.6879135499357801  0.1540497875353485  0.8487149795932223  1.0000
  H   H175      1.0  0.7687835239314534  0.17766108322042884  0.8572688456491028  1.0000
  H   H176      1.0  0.7763989857029577  0.165525846399307  0.7847165045066308  1.0000
  C   C265      1.0  0.5793937149014845  0.1576812150380615  0.24366484372699398  1.0000
  C   C266      1.0  0.5537597495252585  0.14842623511900246  0.23892156004141948  1.0000
  C   C267      1.0  0.5317081963158587  0.16107446302129863  0.25913342632007036  1.0000
  C   C268      1.0  0.5351111333683459  0.1837059307493464  0.2825678942566472  1.0000
  C   C269      1.0  0.5606202392020821  0.19324194989002136  0.28660179647110756  1.0000
  C   C270      1.0  0.5828398850733018  0.17991254391517425  0.26787281263054963  1.0000
  H   H177      1.0  0.5510641680478104  0.13123523857808894  0.22021363012926473  1.0000
  H   H178      1.0  0.5120126798881559  0.15362528582110885  0.2560360448288069  1.0000
  H   H179      1.0  0.5633056487785775  0.21067518092063095  0.30483539052932623  1.0000
  H   H180      1.0  0.602586597094571  0.18713230546879092  0.2717121981853052  1.0000
  C   C271      1.0  0.6728705693672348  0.050357173538572164  0.32505110372674867  1.0000
  C   C272      1.0  0.6607811558262608  0.05468503541179803  0.28696504898042197  1.0000
  C   C273      1.0  0.6548052173773885  0.03317831699792806  0.26252451997014153  1.0000
  C   C274      1.0  0.6608216227774127  0.0072750369159853  0.2762057037536143  1.0000
  C   C275      1.0  0.6727599024169414  0.0028974631825140484  0.31439162373726726  1.0000
  C   C276      1.0  0.6786610313674278  0.024434116769701975  0.33888125139156766  1.0000
  H   H181      1.0  0.6556021728002118  0.07456454892437236  0.2765605665254443  1.0000
  H   H182      1.0  0.645578770698086  0.03659830092639793  0.23299965817820836  1.0000
  H   H183      1.0  0.6775079864508243  0.9829375994941406  0.3251756018519985  1.0000
  H   H184      1.0  0.6879678911061248  0.020948535250525428  0.36834293898558634  1.0000
  C   C277      1.0  0.6721973939501523  0.2004865329564723  0.4241884902641345  1.0000
  C   C278      1.0  0.6992818539064776  0.19170116288412725  0.42198049954688965  1.0000
  C   C279      1.0  0.7141365684742612  0.18697158279043566  0.45770806061545644  1.0000
  C   C280      1.0  0.7018499642569589  0.19051632893692802  0.49580386491748724  1.0000
  C   C281      1.0  0.6747845921398742  0.19943023577024585  0.49816600774816594  1.0000
  C   C282      1.0  0.6600467611730166  0.20474811228415238  0.46231559995929233  1.0000
  H   H185      1.0  0.7089553856064565  0.18884283657951412  0.39283762710162584  1.0000
  H   H186      1.0  0.7351202837404703  0.18022457013487192  0.45587418964729964  1.0000
  H   H187      1.0  0.6653336201417086  0.20264804368552328  0.5275455044749516  1.0000
  H   H188      1.0  0.6391261345781942  0.2117269168113908  0.46413055675568243  1.0000
  C   C283      1.0  0.7437441724434943  0.1817620728996498  0.1956395701837552  1.0000
  C   C284      1.0  0.7201031691232309  0.1900952686637185  0.1752852873418058  1.0000
  C   C285      1.0  0.72136607551522  0.20493662762161982  0.1391846013201472  1.0000
  C   C286      1.0  0.7462622026116106  0.2105905603715397  0.12266967307640843  1.0000
  C   C287      1.0  0.7698853153241785  0.2016771364062068  0.1425554593145354  1.0000
  C   C288      1.0  0.7686020882152473  0.1876706842799939  0.17934431471488715  1.0000
  H   H189      1.0  0.7008460226030292  0.18535011547451385  0.187418465559471  1.0000
  H   H190      1.0  0.7030734516076427  0.21188216744657606  0.12377294597284082  1.0000
  H   H191      1.0  0.7891211718662811  0.20627046236011526  0.13006743182241964  1.0000
  H   H192      1.0  0.7869579946996472  0.18140903498312078  0.1951214951732562  1.0000
  N   N1        1.0  0.25187852367502217  0.004501770567019614  0.08256323059791892  1.0000
  C   C289      1.0  0.27195724491864526  0.023444740536779918  0.09377878849459576  1.0000
  C   C290      1.0  0.2249381340104548  0.018407236126575244  0.08117697474898056  1.0000
  C   C291      1.0  0.2520959476456477  0.9829123463630277  0.11309131654370619  1.0000
  C   C292      1.0  0.2585233526388274  0.9932106190627904  0.042037214464214934  1.0000
  H   H193      1.0  0.2726542696880756  0.039741551489213434  0.07095093761432314  1.0000
  H   H194      1.0  0.2925327735615036  0.013586981777597096  0.09512061973546238  1.0000
  H   H195      1.0  0.2676046127897157  0.03255492703567997  0.12407756393744318  1.0000
  H   H196      1.0  0.20936453559068124  0.004636473078698522  0.07265308075916477  1.0000
  H   H197      1.0  0.2192338021203879  0.0271773704419227  0.11128547388299648  1.0000
  H   H198      1.0  0.22414568558284295  0.034790942809154846  0.058358925818066565  1.0000
  H   H199      1.0  0.24713762327824865  0.9905769229365919  0.14410831050658834  1.0000
  H   H200      1.0  0.272113851679151  0.9719000857381382  0.11478605244333862  1.0000
  H   H201      1.0  0.2374525711146816  0.9680213373669362  0.10522171028320781  1.0000
  H   H202      1.0  0.2441808133532288  0.978386949773545  0.03275930213420697  1.0000
  H   H203      1.0  0.27878159675384057  0.9828730346809004  0.042072410411954975  1.0000
  H   H204      1.0  0.2586982497968663  0.008858722015604892  0.01809093883627777  1.0000
  N   N2        1.0  0.9302332073051469  0.526511273405846  0.34667161694168636  1.0000
  C   C293      1.0  0.9503606190869328  0.5437128527644197  0.3633803596683578  1.0000
  C   C294      1.0  0.914143441798022  0.5163390556448858  0.3804213585839467  1.0000
  C   C295      1.0  0.9440204875943803  0.5040135837310099  0.3248047204541864  1.0000
  C   C296      1.0  0.9124505827026076  0.5419297977567101  0.3180553206236542  1.0000
  H   H205      1.0  0.9638087714348058  0.5328557196036343  0.3856863432339189  1.0000
  H   H206      1.0  0.9406887450105713  0.5613821379680511  0.3789477418381905  1.0000
  H   H207      1.0  0.9632735243518376  0.5511700254164809  0.33887126773775494  1.0000
  H   H208      1.0  0.8990128113448864  0.5029283849206994  0.3690449912953351  1.0000
  H   H209      1.0  0.927037673202228  0.5046315932210803  0.40249116711454935  1.0000
  H   H210      1.0  0.903336191350768  0.5327453836279494  0.39749711842842084  1.0000
  H   H211      1.0  0.9543485828383939  0.5106638055556276  0.29704094339779064  1.0000
  H   H212      1.0  0.9298024161445144  0.4891615846391351  0.31520457631679  1.0000
  H   H213      1.0  0.9595565552593021  0.493523858414781  0.34411348855740576  1.0000
  H   H214      1.0  0.8969854482883655  0.5295707686461867  0.3049500634577957  1.0000
  H   H215      1.0  0.924028344019271  0.5497128000153181  0.29207213012172845  1.0000
  H   H216      1.0  0.9019965615449694  0.5593621212869602  0.33320203515919494  1.0000
  N   N3        1.0  0.12603183180945865  0.46666471866417575  0.23936652814907322  1.0000
  C   C297      1.0  0.10714366205841142  0.4511160863663852  0.26264876530731257  1.0000
  C   C298      1.0  0.14894349640844662  0.4723949556446269  0.26562159696510895  1.0000
  C   C299      1.0  0.11212893319506745  0.4918564196718953  0.2257828892292851  1.0000
  C   C300      1.0  0.13585912934077315  0.45123587619689304  0.2035101709103283  1.0000
  H   H217      1.0  0.08872700973672276  0.4481086844332104  0.24471731712027703  1.0000
  H   H218      1.0  0.1007663052882335  0.4611688829168087  0.2915103132071873  1.0000
  H   H219      1.0  0.11623364446820883  0.4311985069947463  0.2709597834006316  1.0000
  H   H220      1.0  0.16390927549287104  0.48372825230681293  0.2490043770804061  1.0000
  H   H221      1.0  0.14233309970620467  0.4839793701643248  0.2930333005849673  1.0000
  H   H222      1.0  0.15953100038157686  0.45383144898112976  0.2767916253422971  1.0000
  H   H223      1.0  0.12563825508919124  0.5040020185711358  0.20764655868945073  1.0000
  H   H224      1.0  0.10463432546479678  0.5039742057158068  0.2522223210485032  1.0000
  H   H225      1.0  0.09430548717627474  0.48830711047629843  0.2066679136279759  1.0000
  H   H226      1.0  0.15004672224220883  0.4623476600221809  0.1849401779143312  1.0000
  H   H227      1.0  0.11901535385699602  0.446169018907598  0.18342348346900014  1.0000
  H   H228      1.0  0.14666483190968704  0.43220827115224925  0.2128711196328842  1.0000
  N   N4        1.0  0.8393661484032938  0.8428802294958888  0.12014583730953549  1.0000
  C   C301      1.0  0.8390677572297875  0.8138629169369921  0.1255387756953189  1.0000
  C   C302      1.0  0.8193030771307498  0.8518259800398557  0.08911584804637837  1.0000
  C   C303      1.0  0.8663332197445809  0.8496062873030888  0.10656021102025147  1.0000
  C   C304      1.0  0.83277734561055  0.8562152874007155  0.15927689463358338  1.0000
  H   H229      1.0  0.8539840142673342  0.806428053533046  0.14877580404108295  1.0000
  H   H230      1.0  0.8440919833424444  0.8032000852608212  0.09655909144372837  1.0000
  H   H231      1.0  0.818969387452012  0.808041901587651  0.1356306938689373  1.0000
  H   H232      1.0  0.7986177525866635  0.8475137600778702  0.09863752071090891  1.0000
  H   H233      1.0  0.8194250825425938  0.8735857689761263  0.08355685991293653  1.0000
  H   H234      1.0  0.8234087781007183  0.8417827056492211  0.05941697005150669  1.0000
  H   H235      1.0  0.8671908914065236  0.8713364997256867  0.10139494864793902  1.0000
  H   H236      1.0  0.8720679192539623  0.8395019713808415  0.07742321778959452  1.0000
  H   H237      1.0  0.8820342100278034  0.8434718906598679  0.12936396109915405  1.0000
  H   H238      1.0  0.812728027560238  0.8511768191623796  0.17084084198615454  1.0000
  H   H239      1.0  0.8323601099703624  0.8781754425560997  0.1560307696496534  1.0000
  H   H240      1.0  0.8477629105297035  0.8502873604096522  0.18324542482179  1.0000
  N   N5        1.0  0.30032613092047294  0.24897078557065574  0.21576748778921995  1.0000
  C   C305      1.0  0.2892119204029442  0.27077648972521834  0.24194140513635035  1.0000
  C   C306      1.0  0.278474474297234  0.23843426355063307  0.19155525194089712  1.0000
  C   C307      1.0  0.3129672776524921  0.22759680599907292  0.24143621568899282  1.0000
  C   C308      1.0  0.3207113200066642  0.2590825702891648  0.18810184032144966  1.0000
  H   H241      1.0  0.27947677665296633  0.28722581081596327  0.22336453678867912  1.0000
  H   H242      1.0  0.30519390439998706  0.27924216701799726  0.2605323990420663  1.0000
  H   H243      1.0  0.2737565622100556  0.2638732446719712  0.2632555101474955  1.0000
  H   H244      1.0  0.26329500239383863  0.229607062157663  0.21134634112505757  1.0000
  H   H245      1.0  0.2677222160300117  0.25430793860593925  0.17322131677143238  1.0000
  H   H246      1.0  0.2862489686609402  0.22281732235992857  0.16985588745074137  1.0000
  H   H247      1.0  0.32127676153488427  0.2108446756910361  0.22241868912000673  1.0000
  H   H248      1.0  0.29838087490214754  0.21960924288478104  0.26316061174390765  1.0000
  H   H249      1.0  0.329955528812807  0.23466771867514005  0.25952078918002586  1.0000
  H   H250      1.0  0.3122900912052884  0.27608867659681385  0.1696686745955429  1.0000
  H   H251      1.0  0.32867842167866357  0.2434750813889859  0.16659386739842388  1.0000
  H   H252      1.0  0.3381714850255242  0.2659349096919496  0.205287101788624  1.0000
  N   N6        1.0  0.02360688236816988  0.44916864164643006  0.8052984626185044  1.0000
  C   C309      1.0  0.05108238130842335  0.44291888593801143  0.8207796547353993  1.0000
  C   C310      1.0  0.004797942816336054  0.43212493976187727  0.8259326219906448  1.0000
  C   C311      1.0  0.02305186477490495  0.4443708200765508  0.7608971212048267  1.0000
  C   C312      1.0  0.015414123114215306  0.4772678518873647  0.8135174877361583  1.0000
  H   H253      1.0  0.06579113187986096  0.45531407915234345  0.8055591694872413  1.0000
  H   H254      1.0  0.05779929942692297  0.42181625471046186  0.8151085172389722  1.0000
  H   H255      1.0  0.052341603109353096  0.44651599631649913  0.8541374556759866  1.0000
  H   H256      1.0  0.9838848166022168  0.4364102220425584  0.8148865887023281  1.0000
  H   H257      1.0  0.010194616403217172  0.41075801436260384  0.8202085032294621  1.0000
  H   H258      1.0  0.004591974048541392  0.4351492312122133  0.8595121844637261  1.0000
  H   H259      1.0  0.03694233648152201  0.4569336677282471  0.7442184935750679  1.0000
  H   H260      1.0  0.002645828136972339  0.44890814140970253  0.7482413138672216  1.0000
  H   H261      1.0  0.02875031704130926  0.4232931844127997  0.7533884624651419  1.0000
  H   H262      1.0  0.9950830381900291  0.48283810746918376  0.8010217416904262  1.0000
  H   H263      1.0  0.029462579180645765  0.4907190586095067  0.7992158666813304  1.0000
  H   H264      1.0  0.014925921756981486  0.48153365243362234  0.8467606526523578  1.0000
  N   N7        1.0  0.17918694771006266  0.39176218226445836  0.6242909338272837  1.0000
  C   C313      1.0  0.18936212742635058  0.4070615868649476  0.6586053094590768  1.0000
  C   C314      1.0  0.18676533521679756  0.36330430911262007  0.63043976345577  1.0000
  C   C315      1.0  0.19094474024004243  0.4007189254981129  0.5856716373249813  1.0000
  C   C316      1.0  0.14962838346367788  0.3959815323412229  0.6225123250990374  1.0000
  H   H265      1.0  0.1814697461782593  0.4002194506329242  0.6882959657422714  1.0000
  H   H266      1.0  0.1828588650940655  0.42843255420110216  0.6559009938682785  1.0000
  H   H267      1.0  0.21169173066315353  0.4054107378753659  0.6600963734514059  1.0000
  H   H268      1.0  0.17951493522534678  0.35121757311612506  0.6048897094039225  1.0000
  H   H269      1.0  0.2089618078445274  0.3595626716868304  0.6322095500398923  1.0000
  H   H270      1.0  0.17806859737908237  0.3558464546750063  0.6592064953321772  1.0000
  H   H271      1.0  0.1834968848508679  0.38972790278429076  0.5590337181621937  1.0000
  H   H272      1.0  0.2132812703202164  0.3981624500397945  0.5858484516213395  1.0000
  H   H273      1.0  0.18553390445698204  0.4220195915650771  0.580103234346237  1.0000
  H   H274      1.0  0.14108191890329772  0.3841568029779786  0.5977134213057782  1.0000
  H   H275      1.0  0.14328103457074962  0.4171721211285964  0.6164852313296023  1.0000
  H   H276      1.0  0.14010419257383358  0.390506508958835  0.651781598521852  1.0000
  N   N8        1.0  0.2350686020335995  0.5555463000906034  0.8098627920516908  1.0000
  C   C317      1.0  0.25698954013738873  0.5664472426137833  0.7861000755449546  1.0000
  C   C318      1.0  0.21383044693740424  0.5479009890011705  0.7817826629750533  1.0000
  C   C319      1.0  0.2238108997364579  0.5757782958448489  0.8387194306534599  1.0000
  C   C320      1.0  0.24557980119645623  0.5318993300636526  0.8328176091964775  1.0000
  H   H277      1.0  0.2734363225201765  0.5723847761659653  0.8062894182547677  1.0000
  H   H278      1.0  0.24968705348132803  0.5843393986134028  0.7684705762508338  1.0000
  H   H279      1.0  0.26585953721549377  0.5516068428766754  0.7640218700721708  1.0000
  H   H280      1.0  0.19737195894326123  0.5389857349386059  0.7987569256806374  1.0000
  H   H281      1.0  0.20480012034076162  0.565310027601554  0.7646735027360095  1.0000
  H   H282      1.0  0.2217835384874547  0.5328923734414638  0.7593045897362974  1.0000
  H   H283      1.0  0.2080081391536399  0.5677186002304689  0.858269629133816  1.0000
  H   H284      1.0  0.21457353299280033  0.5935177202777154  0.8225521633099925  1.0000
  H   H285      1.0  0.23949319091061622  0.5828277716570498  0.8593552356797117  1.0000
  H   H286      1.0  0.22941501299754902  0.5231439303771213  0.8508948055179065  1.0000
  H   H287      1.0  0.26166316411197993  0.5368150630631059  0.8543943946330615  1.0000
  H   H288      1.0  0.25412305091964654  0.5161386335742976  0.8119773099819599  1.0000
  N   N9        1.0  0.7619872271146897  0.9463875258906664  0.5307491281934528  1.0000
  C   C321      1.0  0.7844441975359727  0.952412493643017  0.5036004387879944  1.0000
  C   C322      1.0  0.7539379884740144  0.919322868019291  0.5223331064248667  1.0000
  C   C323      1.0  0.7390250283951877  0.9657241686011472  0.5232273142509822  1.0000
  C   C324      1.0  0.7705161185455629  0.9481224623979827  0.5737197149006017  1.0000
  H   H289      1.0  0.7909763327902756  0.972721426645091  0.5091518359594914  1.0000
  H   H290      1.0  0.778517145048847  0.951311912885006  0.47090485997228243  1.0000
  H   H291      1.0  0.8021036808499561  0.9381412876366648  0.5082428218175326  1.0000
  H   H292      1.0  0.7360934453767152  0.9145645929226636  0.5407478707411181  1.0000
  H   H293      1.0  0.7486633761946567  0.9169929254993028  0.4896621241844168  1.0000
  H   H294      1.0  0.7703534663888524  0.9040839364331413  0.5294118001070398  1.0000
  H   H295      1.0  0.7328257025124627  0.965721490642339  0.49064164658336207  1.0000
  H   H296      1.0  0.7439655723384601  0.9862435204945621  0.5311189057349689  1.0000
  H   H297      1.0  0.7213233286161094  0.9612212137826947  0.5421204506141717  1.0000
  H   H298      1.0  0.7880568178456813  0.93412931829225  0.5804993182660425  1.0000
  H   H299      1.0  0.7540561822750215  0.9433852683153076  0.5948547463692859  1.0000
  H   H300      1.0  0.7760038838053169  0.9684997639862621  0.5815302776561146  1.0000
  N   N10       1.0  0.4834030652019564  0.89818092277811  0.20633951822175792  1.0000
  C   C325      1.0  0.5042973841196577  0.8853552958383425  0.23299501078123  1.0000
  C   C326      1.0  0.48007518706760105  0.9267360608588788  0.21598257797100207  1.0000
  C   C327      1.0  0.45770438593649176  0.885860343612509  0.21308470280723005  1.0000
  C   C328      1.0  0.49154547033454743  0.8948565642266125  0.16323781649636807  1.0000
  H   H301      1.0  0.5073910912667762  0.8637548461547923  0.22687194846381223  1.0000
  H   H302      1.0  0.4988326438142897  0.8877863527989793  0.26568583959351355  1.0000
  H   H303      1.0  0.5239409741514982  0.8942885015511501  0.2289042381030673  1.0000
  H   H304      1.0  0.46571973741643086  0.93737911283315  0.194833323775402  1.0000
  H   H305      1.0  0.4724132500966297  0.930059559136057  0.24756488326651171  1.0000
  H   H306      1.0  0.49946925608342957  0.9363482862111538  0.21387163604532156  1.0000
  H   H307      1.0  0.44167750031603537  0.8946008262616084  0.19261877620345524  1.0000
  H   H308      1.0  0.45041879749377317  0.8887403546477842  0.24499337705366755  1.0000
  H   H309      1.0  0.4595969971738911  0.8641707139676149  0.20725753776502337  1.0000
  H   H310      1.0  0.47608840335089786  0.9042780755701676  0.14233999031369624  1.0000
  H   H311      1.0  0.4943417088347076  0.8735384481297815  0.15490456714084735  1.0000
  H   H312      1.0  0.5107704632377001  0.9041188684276779  0.1570711235051982  1.0000
  N   N11       1.0  0.3953222006653094  0.07860589244547506  0.9728044044539935  1.0000
  C   C329      1.0  0.41945163538669406  0.0917890473928621  0.9858216021755487  1.0000
  C   C330      1.0  0.3710489688920604  0.09556525492714948  0.9831015471287257  1.0000
  C   C331      1.0  0.3943169454887304  0.05287706637431833  0.9941093584348527  1.0000
  C   C332      1.0  0.3963964956289455  0.0741912307542718  0.9282795032206683  1.0000
  H   H313      1.0  0.43815360503572354  0.07941766515893921  0.9789795341989364  1.0000
  H   H314      1.0  0.4190487385179751  0.09597393576953231  0.019126531886783926  1.0000
  H   H315      1.0  0.4210489442270482  0.11107560738398917  0.9698462503512658  1.0000
  H   H316      1.0  0.37065908372293965  0.11488034019188206  0.9668499995272065  1.0000
  H   H317      1.0  0.3524262687492638  0.08589407423109027  0.9747653020404426  1.0000
  H   H318      1.0  0.3700792817648814  0.09994960154702277  0.01631274216455436  1.0000
  H   H319      1.0  0.41222851977039165  0.039408215551683945  0.9870502943952942  1.0000
  H   H320      1.0  0.3762304122736411  0.042454412957338546  0.985156523548446  1.0000
  H   H321      1.0  0.39343679043130214  0.05553215859024352  0.027779476151638338  1.0000
  H   H322      1.0  0.3784107795010191  0.0644127839736568  0.9173733143148607  1.0000
  H   H323      1.0  0.4144636478350885  0.06143367065567418  0.9194220585219851  1.0000
  H   H324      1.0  0.39733824702563386  0.09321107235724964  0.9112356290141743  1.0000
  N   N12       1.0  0.5019600117776459  0.20991078491709386  0.6339458467695764  1.0000
  C   C333      1.0  0.5104641144832451  0.2362539531826561  0.6458492453183952  1.0000
  C   C334      1.0  0.48005740418776244  0.20246112643660627  0.661175272534644  1.0000
  C   C335      1.0  0.5250010063209348  0.19019182307629182  0.6376457958474836  1.0000
  C   C336      1.0  0.49238742870745084  0.21069345316530108  0.5913100572242577  1.0000
  H   H325      1.0  0.4936670024477229  0.2517311322242042  0.6432263945466461  1.0000
  H   H326      1.0  0.5273243914239131  0.24238780439159482  0.6265101577843194  1.0000
  H   H327      1.0  0.5174666013111788  0.23619893707993592  0.6781194446552213  1.0000
  H   H328      1.0  0.47338719127284673  0.1825076534582721  0.6536664967751006  1.0000
  H   H329      1.0  0.4865002780274773  0.2020034559125707  0.6936691177060422  1.0000
  H   H330      1.0  0.4621896316858111  0.21671265085985947  0.6588682554002748  1.0000
  H   H331      1.0  0.5195172049279969  0.17012091984028244  0.6284783962691076  1.0000
  H   H332      1.0  0.532303209152983  0.18874417303563254  0.6695620214565975  1.0000
  H   H333      1.0  0.5421689012742801  0.19547847067108734  0.6182384218422529  1.0000
  H   H334      1.0  0.4855557125489105  0.19111568007557247  0.5817305491808733  1.0000
  H   H335      1.0  0.5085325966736496  0.21582721176923733  0.5698075880149033  1.0000
  H   H336      1.0  0.4751362644754755  0.22552239291356635  0.5872153765540549  1.0000
  N   N13       1.0  0.5795140981625109  0.0764355301752333  0.30906109531606923  1.0000
  C   C337      1.0  0.5916406167039943  0.07973184750956519  0.26841363988048916  1.0000
  C   C338      1.0  0.5594314094813827  0.05626727884018501  0.3068871768629549  1.0000
  C   C339      1.0  0.5662896004819801  0.10197370700366415  0.3223821098213256  1.0000
  C   C340      1.0  0.6007028335908875  0.06775314293567125  0.33851474553412564  1.0000
  H   H337      1.0  0.5765113641236862  0.08748877851238213  0.24575148849490236  1.0000
  H   H338      1.0  0.600900998154108  0.06065423104715251  0.25664530971742366  1.0000
  H   H339      1.0  0.6076267009196434  0.09405188047903712  0.269352954562895  1.0000
  H   H340      1.0  0.5494394952465601  0.053654907054809575  0.3368674983071106  1.0000
  H   H341      1.0  0.543293328501974  0.062052073183624934  0.2845751669587222  1.0000
  H   H342      1.0  0.5687214034387608  0.03661352425543174  0.29744802288228206  1.0000
  H   H343      1.0  0.557856642999077  0.1005043748587291  0.3536428280906657  1.0000
  H   H344      1.0  0.5493448985453112  0.10846087089039758  0.301897385771671  1.0000
  H   H345      1.0  0.5805104020745716  0.11805836944026993  0.3223802471134009  1.0000
  H   H346      1.0  0.5923244109649192  0.06522643520917426  0.36959968794632025  1.0000
  H   H347      1.0  0.6163751654196723  0.08239409007710674  0.3406236580710503  1.0000
  H   H348      1.0  0.6109909214347706  0.048446378547063906  0.32944105316456246  1.0000
  N   N14       1.0  0.07878763836073066  0.7158071758582749  0.331293271939238  1.0000
  C   C341      1.0  0.10185420125280653  0.7251589872289711  0.30829134058824603  1.0000
  C   C342      1.0  0.08019670396133693  0.6865126480807778  0.3317024571746662  1.0000
  C   C343      1.0  0.05352342119955433  0.7258200257689151  0.3116103372262173  1.0000
  C   C344      1.0  0.07941961482299331  0.7257214864982663  0.3735970437774188  1.0000
  H   H349      1.0  0.10157879655185464  0.7471824010171288  0.30760069630690895  1.0000
  H   H350      1.0  0.10216998926335674  0.7179277859691738  0.27628719282103  1.0000
  H   H351      1.0  0.12123182378229047  0.7180548290579574  0.3223887395703414  1.0000
  H   H352      1.0  0.08038322809737486  0.6782159132287988  0.30032687151094534  1.0000
  H   H353      1.0  0.09851931981932371  0.6781202859151835  0.3476309050096393  1.0000
  H   H354      1.0  0.06259041313758429  0.678889003916395  0.3476947347589134  1.0000
  H   H355      1.0  0.035668591757777035  0.7193479605154303  0.32842034339345927  1.0000
  H   H356      1.0  0.052015962477178546  0.7182366058947235  0.279940348859655  1.0000
  H   H357      1.0  0.05164853971499017  0.7478368674685071  0.31042649876799205  1.0000
  H   H358      1.0  0.0787386285974978  0.7477379786144104  0.3745797284374022  1.0000
  H   H359      1.0  0.09800908389564  0.7182232027903699  0.3897134548972181  1.0000
  H   H360      1.0  0.062098197597217464  0.7192652317695342  0.3916275113890848  1.0000
  N   N15       1.0  0.07792008777085413  0.8093231490965568  0.9302856382133545  1.0000
  C   C345      1.0  0.0814008561277284  0.7840439929856634  0.9077524756946597  1.0000
  C   C346      1.0  0.05312084762190561  0.8095672566135175  0.95497870251808  1.0000
  C   C347      1.0  0.07592744884909997  0.8316454734514167  0.9010676228253385  1.0000
  C   C348      1.0  0.10123667926237712  0.8120122684505637  0.9573158359661642  1.0000
  H   H361      1.0  0.06422395392201463  0.7813860709726159  0.8868755210273719  1.0000
  H   H362      1.0  0.08271658950169725  0.7667871881037668  0.9289953538425495  1.0000
  H   H363      1.0  0.10020282613370934  0.7829550142113011  0.8893484313142097  1.0000
  H   H364      1.0  0.0502364667016546  0.8279446212752212  0.9735123798305585  1.0000
  H   H365      1.0  0.035034740477499104  0.808370805462356  0.9354166828770739  1.0000
  H   H366      1.0  0.053501743478486574  0.7923290970467594  0.9762023372439969  1.0000
  H   H367      1.0  0.058513888013708604  0.8301910872452727  0.8801948000501721  1.0000
  H   H368      1.0  0.09432483440691852  0.8319890211461355  0.8819046537008964  1.0000
  H   H369      1.0  0.07330412288952415  0.8510004970905269  0.9171607649909247  1.0000
  H   H370      1.0  0.12027439292455  0.8123511503122264  0.939647244016675  1.0000
  H   H371      1.0  0.10380779041821753  0.794985536366215  0.9787611177754706  1.0000
  H   H372      1.0  0.09910637222139385  0.8304853815050843  0.975800003575239  1.0000
  N   N16       1.0  0.9188406781830759  0.6181973203466945  0.5613739607141287  1.0000
  C   C349      1.0  0.9018956773476666  0.6244094018125577  0.5252418203165654  1.0000
  C   C350      1.0  0.9473948477086926  0.616099137023844  0.549116141414997  1.0000
  C   C351      1.0  0.9116797714172933  0.5927558086514852  0.5793468310233175  1.0000
  C   C352      1.0  0.9144283717782887  0.6395122415965474  0.5918652620345769  1.0000
  H   H373      1.0  0.9046346871916111  0.6087289116583242  0.5016111024181784  1.0000
  H   H374      1.0  0.9069952168935892  0.643333948240782  0.5105781060816793  1.0000
  H   H375      1.0  0.880236307273623  0.6264468452786135  0.5335047668706487  1.0000
  H   H376      1.0  0.9514398110780593  0.6003273495207236  0.525908755859793  1.0000
  H   H377      1.0  0.9535053887762751  0.6349711956146796  0.5355980656696839  1.0000
  H   H378      1.0  0.9607376387675974  0.6114774950687335  0.5756665915089793  1.0000
  H   H379      1.0  0.9244783327800971  0.5872285361157699  0.6061396535793812  1.0000
  H   H380      1.0  0.9142332110307124  0.5762161391662283  0.5571011804676251  1.0000
  H   H381      1.0  0.8904664814036172  0.5937712137683291  0.5900850709782018  1.0000
  H   H382      1.0  0.91877393886689  0.6591620459247627  0.5791130317323098  1.0000
  H   H383      1.0  0.9275087176714274  0.6359437105349022  0.6189914371977553  1.0000
  H   H384      1.0  0.8933115087239766  0.6410924027722575  0.603062134907323  1.0000
  N   N17       1.0  0.07006793321243787  0.3985237889045889  0.02087678386338676  1.0000
  C   C353      1.0  0.09195099078299673  0.38572743464027687  0.996049591435365  1.0000
  C   C354      1.0  0.052939573042170895  0.37810900767602057  0.03691173263063985  1.0000
  C   C355      1.0  0.05377659091568754  0.41753124944866704  0.9953387930841826  1.0000
  C   C356      1.0  0.08160599098684762  0.4127939792190981  0.05520480719790055  1.0000
  H   H385      1.0  0.08391862041365972  0.3743924317209807  0.9702268416742413  1.0000
  H   H386      1.0  0.10499424566020243  0.3716652479425267  0.014630295244619784  1.0000
  H   H387      1.0  0.10512257801596547  0.40058148648600417  0.9830925080017133  1.0000
  H   H388      1.0  0.04344987853414084  0.36734256764297185  0.011775209556807775  1.0000
  H   H389      1.0  0.06469330309703358  0.36313799239984673  0.055729999554331  1.0000
  H   H390      1.0  0.03640931407508008  0.38702363004932705  0.05624956405146819  1.0000
  H   H391      1.0  0.04384913330949747  0.4073019924416846  0.9700734478336632  1.0000
  H   H392      1.0  0.06625543216480989  0.4327286011935517  0.9817477739917893  1.0000
  H   H393      1.0  0.03765678147556839  0.42821660982813337  0.013516390072289441  1.0000
  H   H394      1.0  0.09456013135950903  0.42844775151797493  0.04416044101761574  1.0000
  H   H395      1.0  0.09439073224163597  0.39912594383306044  0.07470224646652746  1.0000
  H   H396      1.0  0.06560459616453662  0.42244309930798335  0.07482689655955133  1.0000
  N   N18       1.0  0.6351014312076031  0.9145173403676998  0.8146583547106565  1.0000
  C   C357      1.0  0.609294642827368  0.9140322878567514  0.7927258379939053  1.0000
  C   C358      1.0  0.6519495204596687  0.9336923605446729  0.7946717593744445  1.0000
  C   C359      1.0  0.6491409557861839  0.8878623025354138  0.8135724039827024  1.0000
  C   C360      1.0  0.6301391639064772  0.9225310223326461  0.8574160537436839  1.0000
  H   H397      1.0  0.5958718762538207  0.899869770774792  0.8068611849591725  1.0000
  H   H398      1.0  0.6124703431430797  0.9080464154200437  0.760350732444329  1.0000
  H   H399      1.0  0.5983259929831397  0.9339404938129033  0.7923608087232765  1.0000
  H   H400      1.0  0.6716141226195155  0.934808062313504  0.8103645484530656  1.0000
  H   H401      1.0  0.6564201155995252  0.927734469700181  0.7627615199502773  1.0000
  H   H402      1.0  0.6418068022133183  0.9539573771426315  0.7936707349597275  1.0000
  H   H403      1.0  0.6531494296850869  0.8812351335907982  0.7816311201295788  1.0000
  H   H404      1.0  0.6372189924074239  0.8728025321445206  0.8286736516121765  1.0000
  H   H405      1.0  0.6690176762265966  0.8876788042497791  0.8289984958640773  1.0000
  H   H406      1.0  0.6196755336681458  0.9426284633496625  0.8591886735363226  1.0000
  H   H407      1.0  0.649301645697295  0.923080786775307  0.8746731396097336  1.0000
  H   H408      1.0  0.6174376821365302  0.9084972450223858  0.8734587687737874  1.0000
  N   N19       1.0  0.46805509562798214  0.21032002876255065  0.19032882025495923  1.0000
  C   C361      1.0  0.45908503488201635  0.18751023236118755  0.2137828259155488  1.0000
  C   C362      1.0  0.4975370021360457  0.20759246615248128  0.1853718403113273  1.0000
  C   C363      1.0  0.4604921728976943  0.23506964847691447  0.2125883546555356  1.0000
  C   C364      1.0  0.45508934778117865  0.2111499803432705  0.1497864712104767  1.0000
  H   H409      1.0  0.46795655789129015  0.1867496117641179  0.2449407292341612  1.0000
  H   H410      1.0  0.4649937892591391  0.16842603260963276  0.19847574077544852  1.0000
  H   H411      1.0  0.43688644535430715  0.18878127555585972  0.21741360764493003  1.0000
  H   H412      1.0  0.5049422385625025  0.2240909156189462  0.16687498650183766  1.0000
  H   H413      1.0  0.5078692453883638  0.2078977821559498  0.21540008281730308  1.0000
  H   H414      1.0  0.5041966766707566  0.1886588191104091  0.17011447594235335  1.0000
  H   H415      1.0  0.46749859511938835  0.2526892778261218  0.1963725988053451  1.0000
  H   H416      1.0  0.4693837684602486  0.23472204177085135  0.24379574702020448  1.0000
  H   H417      1.0  0.43833073211654555  0.23809226682725596  0.21602484866707003  1.0000
  H   H418      1.0  0.46019677579019713  0.19271533969022597  0.13216177376290733  1.0000
  H   H419      1.0  0.46135949959314976  0.22812178863390806  0.13118824162904777  1.0000
  H   H420      1.0  0.43281201287197657  0.21337158210531007  0.15247364954383716  1.0000
  N   N20       1.0  0.6752570612157627  0.11035225708850165  0.480984504014213  1.0000
  C   C365      1.0  0.6752885789648766  0.12823225374213573  0.4452699910707627  1.0000
  C   C366      1.0  0.6472890668042236  0.1057857622069155  0.4923760029526252  1.0000
  C   C367      1.0  0.6886500038650558  0.12258510579689608  0.5156278779822583  1.0000
  C   C368      1.0  0.6897585393098613  0.08480719512271737  0.4708081917768117  1.0000
  H   H421      1.0  0.6640012087272525  0.14747627995504875  0.45166854323816463  1.0000
  H   H422      1.0  0.6658912688817507  0.11937114577881837  0.41823206638857535  1.0000
  H   H423      1.0  0.69605920487707  0.1326553259921289  0.4364407776911514  1.0000
  H   H424      1.0  0.6465636136885353  0.09203517159114552  0.5188700473154203  1.0000
  H   H425      1.0  0.6360104035008887  0.12463061091088752  0.5012822084447482  1.0000
  H   H426      1.0  0.6363764697238717  0.09705586146489621  0.4666893272098081  1.0000
  H   H427      1.0  0.688827552529779  0.10965201850360627  0.5431618177318401  1.0000
  H   H428      1.0  0.6782600047303485  0.14192083241104625  0.5240792892281764  1.0000
  H   H429      1.0  0.7098099784924307  0.12654868677500086  0.5083187437445438  1.0000
  H   H430      1.0  0.6904513913275392  0.07099467283808081  0.4973499123984187  1.0000
  H   H431      1.0  0.7107968415410202  0.08766346362321872  0.4613652947973298  1.0000
  H   H432      1.0  0.6799858277294656  0.07484852636846875  0.4450776685212342  1.0000
  N   N21       1.0  0.6824609476888802  0.23049646716526914  0.7763079139284977  1.0000
  C   C369      1.0  0.7111966021694319  0.22156181540377787  0.7738800935385498  1.0000
  C   C370      1.0  0.6769257557659593  0.24360269635132722  0.8159272928727552  1.0000
  C   C371      1.0  0.66592706613145  0.2074239746686323  0.7726810787914162  1.0000
  C   C372      1.0  0.6757731846100307  0.2493556029431821  0.7427789146406031  1.0000
  H   H433      1.0  0.7158657327793185  0.21012236131115208  0.7454599250446251  1.0000
  H   H434      1.0  0.7172342809639323  0.20851046210084045  0.7999977187781904  1.0000
  H   H435      1.0  0.724258031795602  0.238542319039608  0.7744402774274953  1.0000
  H   H436      1.0  0.6553688113959484  0.25050767225570136  0.8187675693687946  1.0000
  H   H437      1.0  0.6818159580431953  0.2298025175883507  0.8418585139709176  1.0000
  H   H438      1.0  0.6890899847271496  0.2610802630363937  0.8198508642576914  1.0000
  H   H439      1.0  0.6440914661820824  0.21356022919872344  0.7728193373753266  1.0000
  H   H440      1.0  0.6697332944085876  0.19320251493121476  0.7982021084616776  1.0000
  H   H441      1.0  0.6701769553791238  0.19655369579709261  0.7437162743229941  1.0000
  H   H442      1.0  0.6800431165866345  0.24007180113389417  0.7125025613527014  1.0000
  H   H443      1.0  0.6875042384221356  0.26724455292712007  0.744777456737131  1.0000
  H   H444      1.0  0.6540562069735836  0.25600570799824524  0.7429710067679711  1.0000
  N   N22       1.0  0.4062264666374004  0.05426537103126772  0.7206519065934958  1.0000
  C   C373      1.0  0.41397833433308895  0.0711873732512791  0.6863072932813116  1.0000
  C   C374      1.0  0.3960850677128311  0.0709603544268893  0.7549922031619792  1.0000
  C   C375      1.0  0.42981337352919  0.03730502785360601  0.7341152288502074  1.0000
  C   C376      1.0  0.38491971576514034  0.03737310496737822  0.7070789696432086  1.0000
  H   H445      1.0  0.42141677984087  0.05904492953214513  0.6598659566716235  1.0000
  H   H446      1.0  0.4303788417954159  0.08387234607721994  0.694903378610903  1.0000
  H   H447      1.0  0.3968892488985596  0.08469476554141675  0.6757646854317789  1.0000
  H   H448      1.0  0.37859245404524017  0.0843891737242708  0.7457811750963164  1.0000
  H   H449      1.0  0.3897337024600711  0.05860970124960829  0.7809964004796306  1.0000
  H   H450      1.0  0.4116730752568969  0.08365408069573  0.7667508238828716  1.0000
  H   H451      1.0  0.4377195872548369  0.024295088764130224  0.7090339042338862  1.0000
  H   H452      1.0  0.4247252262898808  0.02417739865154034  0.7599588793069331  1.0000
  H   H453      1.0  0.44651845567897197  0.04928702744731028  0.7441555975349216  1.0000
  H   H454      1.0  0.3789211016479657  0.02390562883672276  0.7319366936678431  1.0000
  H   H455      1.0  0.3917957433519298  0.024704671352220098  0.6809645492587371  1.0000
  H   H456      1.0  0.36664694441795953  0.04945841065331047  0.6972760225733038  1.0000
  N   N23       1.0  0.6049913941406886  0.05295355246682676  0.7012767287012032  1.0000
  C   C377      1.0  0.6297069619201233  0.06486040078143085  0.7148569458764784  1.0000
  C   C378      1.0  0.6114428124584361  0.03427317551791953  0.6675768463121595  1.0000
  C   C379      1.0  0.5853781378899265  0.07410619639881842  0.6869672536837677  1.0000
  C   C380      1.0  0.5934237359084387  0.03856812906796359  0.7356593009254  1.0000
  H   H457      1.0  0.6451195883880798  0.04942535289378913  0.7252651178911477  1.0000
  H   H458      1.0  0.6255250021165241  0.07894300264720533  0.740429249157566  1.0000
  H   H459      1.0  0.6388240907472739  0.07605701275412884  0.6897408032961687  1.0000
  H   H460      1.0  0.5936431378566698  0.0234705067876253  0.6586342075169551  1.0000
  H   H461      1.0  0.6183861918953638  0.0447852497518888  0.6401559494899135  1.0000
  H   H462      1.0  0.6275812276231394  0.01907721415685715  0.6762854431754619  1.0000
  H   H463      1.0  0.5665060497396736  0.06577518208118471  0.6764299524247902  1.0000
  H   H464      1.0  0.5935799002903238  0.08550334773257438  0.6612014531173065  1.0000
  H   H465      1.0  0.5797812014680876  0.0884128151963677  0.711776742898663  1.0000
  H   H466      1.0  0.5749410234595883  0.029044487315417197  0.7262785667316806  1.0000
  H   H467      1.0  0.5877092698453934  0.05212543297537575  0.7613618684323153  1.0000
  H   H468      1.0  0.6077671079364391  0.022576651686653237  0.7473472819780762  1.0000
  N   N24       1.0  0.16881671335859538  0.5313061644377289  0.636605852603876  1.0000
  C   C381      1.0  0.1833310732974975  0.5372301217642426  0.6743952930244982  1.0000
  C   C382      1.0  0.14806116980328737  0.5528121919842222  0.6281912312502242  1.0000
  C   C383      1.0  0.15582090323209355  0.5060488785480667  0.6416270638234868  1.0000
  C   C384      1.0  0.18797755239455924  0.5292198801089062  0.602193532518604  1.0000
  H   H469      1.0  0.1994913124393571  0.5216070005679955  0.6811701201268715  1.0000
  H   H470      1.0  0.16955445828311244  0.5384990632339978  0.7010618729049795  1.0000
  H   H471      1.0  0.19269079336182776  0.556568906062169  0.6721644602169881  1.0000
  H   H472      1.0  0.1327908936583994  0.5544267109375174  0.652959593356573  1.0000
  H   H473      1.0  0.15694453962604  0.5723999995052258  0.6258768478523923  1.0000
  H   H474      1.0  0.1374467464992758  0.5494228227225377  0.5989982259642549  1.0000
  H   H475      1.0  0.14439087622811128  0.5010839378344278  0.613888708918803  1.0000
  H   H476      1.0  0.14151681694384924  0.5069203553759973  0.6677528855273648  1.0000
  H   H477      1.0  0.1707612363259994  0.4892564151209228  0.6477177341203597  1.0000
  H   H478      1.0  0.19815152161601018  0.547945596735273  0.5977926209928983  1.0000
  H   H479      1.0  0.17769274789354264  0.525108705320025  0.5730490705060662  1.0000
  H   H480      1.0  0.20384356084339283  0.513032202779917  0.6070908623009252  1.0000
  N   N25       1.0  0.6109830760509907  0.891068453575554  0.43756103110426736  1.0000
  C   C385      1.0  0.5969141634993109  0.913231943766364  0.4151103010878987  1.0000
  C   C386      1.0  0.6109985528042905  0.897090522889435  0.4816286555426355  1.0000
  C   C387      1.0  0.6389229669874963  0.8874749175174506  0.4228746353380759  1.0000
  C   C388      1.0  0.5973147107324233  0.8664366902030747  0.43055378072535877  1.0000
  H   H481      1.0  0.5972104902542099  0.9095411378977668  0.38170635770817085  1.0000
  H   H482      1.0  0.6066265539098765  0.9321486988546395  0.42006459442804284  1.0000
  H   H483      1.0  0.5755131087547402  0.916192429761665  0.4245058937959603  1.0000
  H   H484      1.0  0.6213594167072845  0.9154722331036517  0.48799900318946365  1.0000
  H   H485      1.0  0.5902483846439958  0.8998464254208258  0.4939272583576725  1.0000
  H   H486      1.0  0.6217863916161523  0.880868037121427  0.4993962754510513  1.0000
  H   H487      1.0  0.6501125276755286  0.8707505250861435  0.43875774074778046  1.0000
  H   H488      1.0  0.6497976833151395  0.9057025861873024  0.42744682533645695  1.0000
  H   H489      1.0  0.6398347157190809  0.8829491182139352  0.3898119627251138  1.0000
  H   H490      1.0  0.5981529880493571  0.8607321991478696  0.39782399692325787  1.0000
  H   H491      1.0  0.5758020553803581  0.8686737563464717  0.4395740865869166  1.0000
  H   H492      1.0  0.6070259634471267  0.8495208717665572  0.44801586216370315  1.0000
  N   N26       1.0  0.2601473343152905  0.6260440310359298  0.49114177974111406  1.0000
  C   C389      1.0  0.2652907287427179  0.6514666345216141  0.4711886693492168  1.0000
  C   C390      1.0  0.2499036452068689  0.631128902352004  0.5328610437291342  1.0000
  C   C391      1.0  0.28532152488739676  0.6090400696027508  0.4930016869391371  1.0000
  C   C392      1.0  0.2399406457427895  0.6126088857990877  0.46744730674231877  1.0000
  H   H493      1.0  0.24659289147790212  0.6645699743011443  0.4687252407867095  1.0000
  H   H494      1.0  0.27319857608431125  0.6484875314757315  0.439703897470118  1.0000
  H   H495      1.0  0.27992098371959573  0.6626464882099901  0.48868357859719513  1.0000
  H   H496      1.0  0.24512908266081368  0.6125075723451258  0.5485971444516387  1.0000
  H   H497      1.0  0.2648471155801541  0.6407751699374773  0.5519198775245683  1.0000
  H   H498      1.0  0.23128396500115547  0.6445136076619016  0.5325746652139732  1.0000
  H   H499      1.0  0.2821278422680657  0.5897291920041552  0.5080354308912951  1.0000
  H   H500      1.0  0.301014761829207  0.6187533401591573  0.5105575093130207  1.0000
  H   H501      1.0  0.29344659630529624  0.6047186584923024  0.4619328183431054  1.0000
  H   H502      1.0  0.23550217696090872  0.5932146397152972  0.4811274211076542  1.0000
  H   H503      1.0  0.2465882943624411  0.608914007319002  0.4354186386378048  1.0000
  H   H504      1.0  0.22072689140960472  0.6249587620631247  0.46595634041999656  1.0000
  N   N27       1.0  0.9872226937538969  0.24828650566075638  0.9917678382912051  1.0000
  C   C393      1.0  0.9624781710161759  0.2505577541109467  0.9670108523979104  1.0000
  C   C394      1.0  0.9935311615742348  0.22022183773186454  0.0027901206761029584  1.0000
  C   C395      1.0  0.983119036540732  0.2641420738134652  0.029312239267334617  1.0000
  C   C396      1.0  0.009665432935853202  0.258250866107413  0.9679816823741555  1.0000
  H   H505      1.0  0.9645384761183718  0.23860363786206573  0.9386370690671261  1.0000
  H   H506      1.0  0.9573782457091182  0.27146611063474  0.9579086695614323  1.0000
  H   H507      1.0  0.944913477332522  0.24384071122384898  0.9842980631069285  1.0000
  H   H508      1.0  0.9967187119573603  0.20766572826435192  0.9751686871702379  1.0000
  H   H509      1.0  0.012083265927322007  0.2178120642295831  0.02159370540051797  1.0000
  H   H510      1.0  0.9769086860516736  0.212160802743238  0.02068724749077311  1.0000
  H   H511      1.0  0.001245449423751932  0.2627772463592133  0.049086820873820436  1.0000
  H   H512      1.0  0.9658528706948659  0.2576509065793777  0.04750704361247626  1.0000
  H   H513      1.0  0.9784657336417872  0.2854335181032752  0.022101881093363307  1.0000
  H   H514      1.0  0.005623766911064587  0.279465071745022  0.9593864642703297  1.0000
  H   H515      1.0  0.013192626525742046  0.24695766744467185  0.9392092708750626  1.0000
  H   H516      1.0  0.028762918017001704  0.2568207238277056  0.9855741681876447  1.0000
  N   N28       1.0  0.7116000367759336  0.9706974022881086  0.155299298220541  1.0000
  C   C397      1.0  0.7123688475852631  0.9841212859625361  0.11527542259379975  1.0000
  C   C398      1.0  0.7360262878570357  0.9528937370357321  0.16022987764305152  1.0000
  C   C399      1.0  0.6876840318819738  0.9550206514300316  0.15742260993477708  1.0000
  C   C400      1.0  0.7103769175506829  0.9906314348671958  0.18821100805226698  1.0000
  H   H517      1.0  0.6942505522094107  0.9977500903212254  0.11040414311255331  1.0000
  H   H518      1.0  0.7133671599281081  0.969561479561632  0.08975643164139213  1.0000
  H   H519      1.0  0.7302706574516055  0.9959860463850659  0.11249944722654326  1.0000
  H   H520      1.0  0.7357193244752632  0.9415410083971544  0.18940490903797302  1.0000
  H   H521      1.0  0.7378642914376299  0.9382567708315755  0.1350972752291002  1.0000
  H   H522      1.0  0.7544956788496656  0.9640403712109749  0.15982086266470796  1.0000
  H   H523      1.0  0.6869522642201918  0.9439684246929063  0.18672313269516527  1.0000
  H   H524      1.0  0.6875709711702185  0.9402798854010057  0.13233214724136788  1.0000
  H   H525      1.0  0.6687787607207217  0.9678966054277879  0.1553841680959156  1.0000
  H   H526      1.0  0.7279233606620362  0.003051783692201715  0.18725453801242775  1.0000
  H   H527      1.0  0.7100749465358421  0.9810043003911767  0.21878867305987293  1.0000
  H   H528      1.0  0.6918332139836818  0.004044539582674478  0.1860424482370575  1.0000
  N   N29       1.0  0.09027137398056281  0.5448323819398531  0.40124450134227957  1.0000
  C   C401      1.0  0.09823310799929318  0.556843329905364  0.36229768104330834  1.0000
  C   C402      1.0  0.09200011516138197  0.564336554906407  0.43446526241273203  1.0000
  C   C403      1.0  0.108520043763273  0.5213481904504157  0.410090938400895  1.0000
  C   C404      1.0  0.06241369508078808  0.5367840635942007  0.3981645463077742  1.0000
  H   H529      1.0  0.08474278920315538  0.5745025516943676  0.3544412987135661  1.0000
  H   H530      1.0  0.09736972833783314  0.5425814403956036  0.3366459376850727  1.0000
  H   H531      1.0  0.1190227764525142  0.5635490076808838  0.3638409025327328  1.0000
  H   H532      1.0  0.08840482061634404  0.5553452969809087  0.46481017663195545  1.0000
  H   H533      1.0  0.11210126142281238  0.5725037835656936  0.43543852366995484  1.0000
  H   H534      1.0  0.07706375086324992  0.5814130101624015  0.43052018520822877  1.0000
  H   H535      1.0  0.10354049600614862  0.5121079109678719  0.43976107546797466  1.0000
  H   H536      1.0  0.12973957791829455  0.5267431781393384  0.41210221929912966  1.0000
  H   H537      1.0  0.10745975841052534  0.5059665355433192  0.38605666422627033  1.0000
  H   H538      1.0  0.055660546224517  0.5280935995124018  0.4273193260729937  1.0000
  H   H539      1.0  0.06042565124005406  0.5217007317836351  0.37382660114032273  1.0000
  H   H540      1.0  0.04822124716636967  0.5540734093621097  0.39073227685165907  1.0000
  N   N30       1.0  0.7712323425411474  0.09088621269651231  0.8909256781044705  1.0000
  C   C405      1.0  0.7954762617313255  0.08407166576403884  0.9155811380730506  1.0000
  C   C406      1.0  0.7516546094645614  0.10733123305113985  0.9153753285533895  1.0000
  C   C407      1.0  0.7590704627876277  0.06630413389244749  0.8783700183747903  1.0000
  C   C408      1.0  0.7786989306797658  0.1058655229526049  0.8543491803366748  1.0000
  H   H541      1.0  0.8112379609087754  0.07281482241709725  0.8975124537531163  1.0000
  H   H542      1.0  0.7908112386514756  0.07151792073870755  0.9422307439914128  1.0000
  H   H543      1.0  0.8043859696748262  0.10216299216925069  0.9275421014848148  1.0000
  H   H544      1.0  0.7602458279794413  0.12591870297283728  0.9258716616843391  1.0000
  H   H545      1.0  0.7333198409719313  0.11335376911641602  0.8974631986467978  1.0000
  H   H546      1.0  0.7451708091237269  0.09656662845138066  0.9428908644642  1.0000
  H   H547      1.0  0.7407711538846826  0.07075124967023716  0.8595646278787533  1.0000
  H   H548      1.0  0.7531095510430751  0.054546355305449705  0.9053034206916509  1.0000
  H   H549      1.0  0.77332412736523  0.053340036211276816  0.8599865743181762  1.0000
  H   H550      1.0  0.7934635344335224  0.09417926381934603  0.8350513541438069  1.0000
  H   H551      1.0  0.7878161541433993  0.12460905333011989  0.8628086969413875  1.0000
  H   H552      1.0  0.7608561417689225  0.11126954243542815  0.8349851555146266  1.0000
  N   N31       1.0  0.039080227858419914  0.5941511744705295  0.6770209125161434  1.0000
  C   C409      1.0  0.011613851060870983  0.5928804862237318  0.693526718897976  1.0000
  C   C410      1.0  0.05875453727431745  0.5899162089229425  0.7104749364482001  1.0000
  C   C411      1.0  0.041883613525368624  0.6204500660206024  0.6582539481402827  1.0000
  C   C412      1.0  0.044063150804672935  0.5734007150147464  0.6457741237958534  1.0000
  H   H553      1.0  0.9961764613042365  0.5958002298592802  0.66926330287834  1.0000
  H   H554      1.0  0.007253452256916759  0.6083253127139121  0.7172105000889906  1.0000
  H   H555      1.0  0.008807929678124715  0.5734169628261422  0.7082307726743303  1.0000
  H   H556      1.0  0.07968052239289336  0.5920972266042175  0.6998613622085708  1.0000
  H   H557      1.0  0.05455513537857537  0.6042200873477096  0.7357472624676392  1.0000
  H   H558      1.0  0.058136360745409954  0.5698001385986885  0.7240320588756958  1.0000
  H   H559      1.0  0.06258749572154554  0.6224360597977211  0.6465890008770141  1.0000
  H   H560      1.0  0.037564111950397105  0.63662583847522  0.6806316477286547  1.0000
  H   H561      1.0  0.02766305724133633  0.6241345176336558  0.6324498353260577  1.0000
  H   H562      1.0  0.041930390383936755  0.5533058732284215  0.6587099548441073  1.0000
  H   H563      1.0  0.06470340545015185  0.5736785923429705  0.6330635629906834  1.0000
  H   H564      1.0  0.02957811396886889  0.5759388059578663  0.6200954360754453  1.0000
  N   N32       1.0  0.302357879224762  0.8559169532228279  0.9495451940611915  1.0000
  C   C413      1.0  0.28008363076439197  0.8387093463815153  0.9574703983110139  1.0000
  C   C414      1.0  0.3113319834282231  0.852815580439466  0.9067547416195685  1.0000
  C   C415      1.0  0.32502719324797  0.8483921698955994  0.9770597965407052  1.0000
  C   C416      1.0  0.293060320621145  0.8838451193428993  0.9568611859809775  1.0000
  H   H565      1.0  0.27232238470580233  0.8412028257077343  0.989121402226092  1.0000
  H   H566      1.0  0.28653520248147096  0.8173809709557003  0.9535285994792946  1.0000
  H   H567      1.0  0.26288182595225473  0.8434236282063743  0.9365863397715788  1.0000
  H   H568      1.0  0.2948871663430901  0.8586749095680698  0.8850509281436779  1.0000
  H   H569      1.0  0.3282860963869951  0.8654563376958048  0.8999517702916452  1.0000
  H   H570      1.0  0.3184187453775594  0.8319630089396004  0.9000462384257071  1.0000
  H   H571      1.0  0.342111340627134  0.8611364892566914  0.9719934789884538  1.0000
  H   H572      1.0  0.332697262960707  0.827485978410137  0.9722689419847073  1.0000
  H   H573      1.0  0.3190572994273134  0.8505143467050739  0.009586868970957285  1.0000
  H   H574      1.0  0.30918829285059585  0.8973480805115359  0.9499585219078748  1.0000
  H   H575      1.0  0.28695513820620766  0.8872006763003611  0.9891895122633837  1.0000
  H   H576      1.0  0.2755575395003555  0.8900909883503757  0.9373810902399513  1.0000
  N   N33       1.0  0.06550697555186846  0.3379560659094488  0.22726699645063714  1.0000
  C   C417      1.0  0.04542476793279526  0.32197948764099094  0.20763178707335184  1.0000
  C   C418      1.0  0.09181920356540552  0.3227611936478516  0.2279757823145741  1.0000
  C   C419      1.0  0.05702064728452738  0.3444427022170002  0.26945013587513084  1.0000
  C   C420      1.0  0.06779342429516166  0.3627229756715747  0.20390070500028049  1.0000
  H   H577      1.0  0.04274877701636104  0.30337604706963855  0.2248781942532166  1.0000
  H   H578      1.0  0.051541387234312896  0.3164328410322154  0.1759412841231853  1.0000
  H   H579      1.0  0.025446839974309965  0.33313803421365246  0.20593758783836005  1.0000
  H   H580      1.0  0.10727978817737749  0.33404161336347205  0.24344557725169064  1.0000
  H   H581      1.0  0.09071984196703364  0.3036700581598035  0.24458954096115  1.0000
  H   H582      1.0  0.09922461812944694  0.31816242273151657  0.19659905994310573  1.0000
  H   H583      1.0  0.03702334731635415  0.3555768510802534  0.2701653990790442  1.0000
  H   H584      1.0  0.07159816893033599  0.35686702774581763  0.2848511419945024  1.0000
  H   H585      1.0  0.055515180925971075  0.3263292889088584  0.2883897301754845  1.0000
  H   H586      1.0  0.07339048516355073  0.3584857425819371  0.17165670288781718  1.0000
  H   H587      1.0  0.08330827181397926  0.37496092515688767  0.21726922543821853  1.0000
  H   H588      1.0  0.048425519097391234  0.37495706462072637  0.2036158172981401  1.0000
  N   N34       1.0  0.4071615392305047  0.09087131927920788  0.2531851703671959  1.0000
  C   C421      1.0  0.4046743615254356  0.11615266771529176  0.2303103934193449  1.0000
  C   C422      1.0  0.43569998563826756  0.08114058551792325  0.2553015865949677  1.0000
  C   C423      1.0  0.3916426301532923  0.07107014258387956  0.2321507751113694  1.0000
  C   C424      1.0  0.39661965858360354  0.09510645572088916  0.29496000056253524  1.0000
  H   H589      1.0  0.4127083232770505  0.1137504211038376  0.19875731697834784  1.0000
  H   H590      1.0  0.4155426905601701  0.13183149674425843  0.24576823227250058  1.0000
  H   H591      1.0  0.38328502817609955  0.12361908552259093  0.22727083126074496  1.0000
  H   H592      1.0  0.43836493950596955  0.06225231555470434  0.2728644209486441  1.0000
  H   H593      1.0  0.44434808743451876  0.0774622249445609  0.22441264804791936  1.0000
  H   H594      1.0  0.4480530703035165  0.09562992422122418  0.2707916774339036  1.0000
  H   H595      1.0  0.39302946922561444  0.05167955164091942  0.2484098050316223  1.0000
  H   H596      1.0  0.3989655280613184  0.0675865673587015  0.20039190019497385  1.0000
  H   H597      1.0  0.37002071190944985  0.07785832844617202  0.22975947183755688  1.0000
  H   H598      1.0  0.3751499137094313  0.10252234677904926  0.29470497592851636  1.0000
  H   H599      1.0  0.40785828327156  0.11000669084648451  0.31165699121740525  1.0000
  H   H600      1.0  0.39823581828535976  0.07646076028860538  0.31316493815856433  1.0000
  N   N35       1.0  0.08260370458682538  0.7138933248590608  0.5995928520510718  1.0000
  C   C425      1.0  0.1074868729724866  0.6991835873472112  0.6135092856519716  1.0000
  C   C426      1.0  0.06478000478823054  0.7199997327030185  0.6348139557381783  1.0000
  C   C427      1.0  0.06869507581825784  0.6975666376828076  0.5700709207464802  1.0000
  C   C428      1.0  0.08948699181739624  0.7388816172581061  0.5798817438219366  1.0000
  H   H601      1.0  0.12131677745373153  0.6943099088633085  0.587516556631792  1.0000
  H   H602      1.0  0.10313680886211388  0.6803062455088388  0.6288326999665618  1.0000
  H   H603      1.0  0.11862618919879481  0.7110332404988922  0.6355405040837799  1.0000
  H   H604      1.0  0.045427277877651884  0.7302800869524293  0.6250111581259508  1.0000
  H   H605      1.0  0.05976493507228953  0.7016750271620655  0.6512365833160703  1.0000
  H   H606      1.0  0.07434133937884013  0.7329359297570062  0.6572033245298086  1.0000
  H   H607      1.0  0.06087405541339398  0.6798167583032104  0.5848448921172434  1.0000
  H   H608      1.0  0.08226895464686408  0.6905114922852078  0.5450210468073863  1.0000
  H   H609      1.0  0.05131591811002824  0.7089688317730504  0.5557868550590576  1.0000
  H   H610      1.0  0.07123683556554884  0.7504250581572343  0.5686014437901139  1.0000
  H   H611      1.0  0.10302192307714134  0.7350213657629898  0.5532828935250591  1.0000
  H   H612      1.0  0.09998837929765701  0.7516541056209123  0.6014246721648502  1.0000
  N   N36       1.0  0.2393248333877209  0.7613145500117466  0.18370612094477695  1.0000
  C   C429      1.0  0.23687981809271552  0.7475198833621582  0.2232085048059837  1.0000
  C   C430      1.0  0.26796126157638456  0.7636531862664447  0.17383151077155673  1.0000
  C   C431      1.0  0.2256722673172959  0.7880901801973125  0.18629704255869903  1.0000
  C   C432      1.0  0.2267679782712821  0.7460413027959664  0.15137089939008694  1.0000
  H   H613      1.0  0.21549075601008563  0.7451588290374651  0.23112417840022967  1.0000
  H   H614      1.0  0.24566040074068612  0.75868416501032  0.24856902586883678  1.0000
  H   H615      1.0  0.24714687719355144  0.7273227174964153  0.22258761935949578  1.0000
  H   H616      1.0  0.27812145257747733  0.7750475205970712  0.1975800603941056  1.0000
  H   H617      1.0  0.2788866424381007  0.7438347752337048  0.17125724260287423  1.0000
  H   H618      1.0  0.270330018684366  0.7741249787690168  0.14418740468223376  1.0000
  H   H619      1.0  0.22706716295010979  0.7990399670382977  0.15689730305484975  1.0000
  H   H620      1.0  0.2346972575826847  0.8001959678024795  0.21029896418894764  1.0000
  H   H621      1.0  0.20401857964056277  0.7871170859949387  0.19382525007113838  1.0000
  H   H622      1.0  0.228614698046513  0.755636379599787  0.12102384623429836  1.0000
  H   H623      1.0  0.20503238432615908  0.7443288875755144  0.15728540238610403  1.0000
  H   H624      1.0  0.23620345560125686  0.7255609904224997  0.1489964105806944  1.0000
  N   N37       1.0  0.029119983501958435  0.41756750419632754  0.5318265148259554  1.0000
  C   C433      1.0  0.04961370794566444  0.43637703862698335  0.5416606930578952  1.0000
  C   C434      1.0  0.005080207621241728  0.42345526068769734  0.5574383580914272  1.0000
  C   C435      1.0  0.04004541742318679  0.3902076343460757  0.5399605028192284  1.0000
  C   C436      1.0  0.021809632892877406  0.42020184800395516  0.48825907965918025  1.0000
  H   H625      1.0  0.06817293821779113  0.43234900559325  0.5232735009420918  1.0000
  H   H626      1.0  0.055422298306052165  0.4351522026293754  0.5743796056730098  1.0000
  H   H627      1.0  0.0420999307779748  0.4572140432801537  0.5353741717123117  1.0000
  H   H628      1.0  0.9886407362341304  0.4105428536160301  0.549567162702476  1.0000
  H   H629      1.0  0.009608929603865057  0.4205056110014187  0.5904538784629145  1.0000
  H   H630      1.0  0.997131955699114  0.4443539155560311  0.5535869687658542  1.0000
  H   H631      1.0  0.04595980707509062  0.38750694260872903  0.5724780459045534  1.0000
  H   H632      1.0  0.058154147024477965  0.3851298382835234  0.5210428353034864  1.0000
  H   H633      1.0  0.02506568342647575  0.37552941399694456  0.532846272598961  1.0000
  H   H634      1.0  0.006035716019708204  0.4066691856227975  0.47972864589966213  1.0000
  H   H635      1.0  0.039433492760009736  0.41548617463358767  0.4681004454535225  1.0000
  H   H636      1.0  0.013915225716772728  0.44068182417360524  0.48081245358818525  1.0000
  N   N38       1.0  0.09329142935404877  0.6863065183445516  0.871765302710709  1.0000
  C   C437      1.0  0.07566135823209619  0.6942179329821252  0.9065037084043793  1.0000
  C   C438      1.0  0.11918689347649458  0.6744758366212749  0.8872350304701233  1.0000
  C   C439      1.0  0.09803051745366353  0.7099199244413439  0.8467854603895558  1.0000
  C   C440      1.0  0.08028481983125868  0.6666665933420406  0.8465305308867717  1.0000
  H   H637      1.0  0.05602676174908083  0.7035525123717546  0.8959794705189273  1.0000
  H   H638      1.0  0.08502994192828206  0.7088661735817442  0.9263596016686053  1.0000
  H   H639      1.0  0.0713815594615379  0.6768623159747926  0.9258202494490739  1.0000
  H   H640      1.0  0.13328535560842325  0.6688824638596975  0.8618747271821927  1.0000
  H   H641      1.0  0.129322430596585  0.688549650828724  0.9070943449284511  1.0000
  H   H642      1.0  0.11650202371077945  0.6562828525733442  0.9055280271931755  1.0000
  H   H643      1.0  0.11165021937128894  0.7048511324221787  0.8205780217061496  1.0000
  H   H644      1.0  0.1074300709654945  0.7252904173013596  0.8650880202152222  1.0000
  H   H645      1.0  0.07893759574205594  0.719066755095024  0.8340987810248386  1.0000
  H   H646      1.0  0.06030362602876749  0.6746301234229184  0.8353457774744163  1.0000
  H   H647      1.0  0.07703784827316063  0.648245894265947  0.8639650381674407  1.0000
  H   H648      1.0  0.09270003434187357  0.6609172816361669  0.8193275550151223  1.0000
  N   N39       1.0  0.24576122761466593  0.3570631270224495  0.011609609277427824  1.0000
  C   C441      1.0  0.2729816954871028  0.34833660216127404  0.025924068874686235  1.0000
  C   C442      1.0  0.24763438954713266  0.37045580667292016  0.971671683701182  1.0000
  C   C443      1.0  0.23284513273062088  0.3756848410288306  0.041478472954251444  1.0000
  C   C444      1.0  0.22963093014400915  0.33372885070694336  0.007441570360953831  1.0000
  H   H649      1.0  0.27225350615974625  0.3382514979619945  0.05608419853321567  1.0000
  H   H650      1.0  0.28576437990554104  0.36539000368849917  0.029462904376712507  1.0000
  H   H651      1.0  0.28323362081592984  0.33405818247114805  0.0043235368029352905  1.0000
  H   H652      1.0  0.22751414435724443  0.37768679118375514  0.9602339557427972  1.0000
  H   H653      1.0  0.25991644258945046  0.38798906749943174  0.9735479636935165  1.0000
  H   H654      1.0  0.2567790612205428  0.3568758036608891  0.9481024661035408  1.0000
  H   H655      1.0  0.21220597674848865  0.38258483109680164  0.031861444036668685  1.0000
  H   H656      1.0  0.24439663943982054  0.39357466227390603  0.04536774077848271  1.0000
  H   H657      1.0  0.23117697766314055  0.36625463149127924  0.07198972990973385  1.0000
  H   H658      1.0  0.23878956274377114  0.3192098655111631  0.985208477179367  1.0000
  H   H659      1.0  0.20894718722859035  0.3395284744472221  0.9967490625672406  1.0000
  H   H660      1.0  0.2278775307972631  0.3231563486829266  0.03707212176949204  1.0000
  N   N40       1.0  0.8454093202610102  0.9075194221713926  0.8783401898550027  1.0000
  C   C445      1.0  0.8451499036861808  0.9213575031923656  0.8385694524295153  1.0000
  C   C446      1.0  0.8211762272774757  0.8923716557700424  0.8818478034542296  1.0000
  C   C447      1.0  0.845579696500344  0.927235947441275  0.9114880186274148  1.0000
  C   C448      1.0  0.8696374940579656  0.8891915161418749  0.8814696383659151  1.0000
  H   H661      1.0  0.8450902598841014  0.9071242227334252  0.8127700096117608  1.0000
  H   H662      1.0  0.8629256363890795  0.9333231805543635  0.8349755593267718  1.0000
  H   H663      1.0  0.8269044979288407  0.9351586864153136  0.8353132719304185  1.0000
  H   H664      1.0  0.8200826035269442  0.8776685100355988  0.8568430052253572  1.0000
  H   H665      1.0  0.8207862093180681  0.8813793611806653  0.9112242011338035  1.0000
  H   H666      1.0  0.8025565813715209  0.9057141723260627  0.880291067158908  1.0000
  H   H667      1.0  0.8449966497874674  0.9176638428329398  0.9419940535307896  1.0000
  H   H668      1.0  0.8279234211925802  0.9417502415235147  0.9094786968255205  1.0000
  H   H669      1.0  0.8638611284541127  0.9386579515670511  0.9104418920372787  1.0000
  H   H670      1.0  0.8706038836747508  0.8788224917311535  0.9114958676349493  1.0000
  H   H671      1.0  0.8883036951620081  0.8999212426539823  0.8784816204386166  1.0000
  H   H672      1.0  0.8699996820502707  0.8737169739336539  0.8573900452728125  1.0000
  N   N41       1.0  0.48992419756727107  0.8528138245161786  0.625814705291002  1.0000
  C   C449      1.0  0.46522396583484177  0.8609307399123907  0.6486853294442353  1.0000
  C   C450      1.0  0.4831780780636497  0.8355240872131559  0.5915873109368703  1.0000
  C   C451      1.0  0.5091523082813334  0.8382713974874149  0.6533422816948469  1.0000
  C   C452      1.0  0.5021227458611922  0.8765514763911433  0.6096184524240809  1.0000
  H   H673      1.0  0.46958760022378687  0.873587179127762  0.6751981132865785  1.0000
  H   H674      1.0  0.4551200677044618  0.8435427300146549  0.6606269488251556  1.0000
  H   H675      1.0  0.45050449236417645  0.8725362128409905  0.6292695153443453  1.0000
  H   H676      1.0  0.4687812755523602  0.8460425767381058  0.5703145559806353  1.0000
  H   H677      1.0  0.5012808150472049  0.8290430739848693  0.5734768580730735  1.0000
  H   H678      1.0  0.4737283060857375  0.8174749334252919  0.6025071913120827  1.0000
  H   H679      1.0  0.5280736481300621  0.8318712805715257  0.6371986528817691  1.0000
  H   H680      1.0  0.5005490016998118  0.8203244626091133  0.6663259026211925  1.0000
  H   H681      1.0  0.5146168386434374  0.8508927486209837  0.6794674643415891  1.0000
  H   H682      1.0  0.4880987758935041  0.8880691129818763  0.5888889203378534  1.0000
  H   H683      1.0  0.5207637101637781  0.8711636170509541  0.5921267080894591  1.0000
  H   H684      1.0  0.5075155187619981  0.8900737789522085  0.6345891214231446  1.0000
  N   N42       1.0  0.9034856859397581  0.7349934180536939  0.8662164067643656  1.0000
  C   C453      1.0  0.8906118164091595  0.7333764817551673  0.9066806241020623  1.0000
  C   C454      1.0  0.8894317866337867  0.7188757048630808  0.836529913420438  1.0000
  C   C455      1.0  0.9318678357381845  0.7248506283220377  0.8689865976492774  1.0000
  C   C456      1.0  0.9020736433694189  0.7629245514659556  0.8525516371366362  1.0000
  H   H685      1.0  0.9002222043486497  0.7460970411698621  0.9293334722188726  1.0000
  H   H686      1.0  0.8919979714659153  0.7127426712443631  0.9187617003227069  1.0000
  H   H687      1.0  0.869018135841686  0.7403158418927509  0.9054879406459265  1.0000
  H   H688      1.0  0.8679283383247222  0.7258530963626522  0.833539546664548  1.0000
  H   H689      1.0  0.898667037542145  0.7198873412376666  0.8056111330539806  1.0000
  H   H690      1.0  0.8903202857538504  0.6976175522072879  0.8456875965802494  1.0000
  H   H691      1.0  0.9416873962413127  0.724522315869827  0.8385257495712447  1.0000
  H   H692      1.0  0.9338205018621906  0.70426854914919  0.8811975225841885  1.0000
  H   H693      1.0  0.9436089007951213  0.7374021788749663  0.8891748350855347  1.0000
  H   H694      1.0  0.8809733898172134  0.7713419494384002  0.8507410284044477  1.0000
  H   H695      1.0  0.911216704402853  0.7648914162807938  0.821812367318192  1.0000
  H   H696      1.0  0.9129026825261776  0.7755753394536629  0.8739454249159097  1.0000
  N   N43       1.0  0.36105810379207276  0.9347129127933438  0.49028598086402253  1.0000
  C   C457      1.0  0.34639483673741034  0.9607071748477318  0.4966649074554913  1.0000
  C   C458      1.0  0.35495709928382946  0.924637122558766  0.44929416570980457  1.0000
  C   C459      1.0  0.35286784887098094  0.9157290176631316  0.5215601464125276  1.0000
  C   C460      1.0  0.390167219902834  0.9377883908934393  0.4936568683966028  1.0000
  H   H697      1.0  0.3507201336684149  0.968821572343319  0.5273153155556021  1.0000
  H   H698      1.0  0.3243177477505383  0.9591956307889584  0.49437994460659557  1.0000
  H   H699      1.0  0.35230555082551235  0.975465468340375  0.47358079823318716  1.0000
  H   H700      1.0  0.36555353640062016  0.9048864305270149  0.4437203215256523  1.0000
  H   H701      1.0  0.33310526134255214  0.9223546629723409  0.44537232657087006  1.0000
  H   H702      1.0  0.3614032468690549  0.9382430879545558  0.42490078217365457  1.0000
  H   H703      1.0  0.36409313931991827  0.8960827723208632  0.5181824666012588  1.0000
  H   H704      1.0  0.33108666834404094  0.9125175078164475  0.5196734380827714  1.0000
  H   H705      1.0  0.3569883959683177  0.922819079352887  0.5529162674634881  1.0000
  H   H706      1.0  0.4018276207889233  0.9187016860782896  0.4877423914291802  1.0000
  H   H707      1.0  0.3956898452750229  0.9445392702225066  0.5246258322278925  1.0000
  H   H708      1.0  0.39706247840010717  0.9524670254536403  0.471259384683647  1.0000
  N   N44       1.0  0.47161856906888283  0.05357665228271835  0.5168423650435457  1.0000
  C   C461      1.0  0.4750188882693969  0.0679064517397916  0.4780702640058678  1.0000
  C   C462      1.0  0.4624935216981054  0.026921757205787378  0.5082410642907065  1.0000
  C   C463      1.0  0.45141833783178914  0.06848214945075859  0.5423024821561906  1.0000
  C   C464      1.0  0.4975019876277072  0.05109574335582701  0.5387542775755235  1.0000
  H   H709      1.0  0.4557968837925313  0.07021919644222097  0.4609571894638386  1.0000
  H   H710      1.0  0.48991492800348696  0.057167691478342775  0.45777302734138736  1.0000
  H   H711      1.0  0.48199707782858014  0.08810568320164758  0.48338518315339973  1.0000
  H   H712      1.0  0.4769102659487672  0.0152737328315502  0.4882832130202745  1.0000
  H   H713      1.0  0.4601550926780884  0.015334456878010716  0.5368053742450651  1.0000
  H   H714      1.0  0.4427691338580919  0.028115065674330086  0.4923259718389731  1.0000
  H   H715      1.0  0.4478444801765786  0.05786406810127742  0.5713587378632125  1.0000
  H   H716      1.0  0.4318308790206692  0.07147095404589421  0.526283223720238  1.0000
  H   H717      1.0  0.4580330036112255  0.08839680543637754  0.5503360184226174  1.0000
  H   H718      1.0  0.4956405642876432  0.04033756547848256  0.568181533901418  1.0000
  H   H719      1.0  0.5048131351152958  0.07092587308888043  0.5458425679024328  1.0000
  H   H720      1.0  0.5132385353330389  0.04000328124686936  0.5204243721720156  1.0000
  N   N45       1.0  0.7602672546752651  0.10759301783629804  0.14238093141075558  1.0000
  C   C465      1.0  0.7652652447998198  0.08040184134335071  0.12651263579502953  1.0000
  C   C466      1.0  0.7603501543388793  0.12682851980190502  0.10833390722174364  1.0000
  C   C467      1.0  0.7816324023318307  0.11314877852771743  0.1716547275915271  1.0000
  C   C468      1.0  0.7338838529123628  0.10992137663810508  0.16303354375399653  1.0000
  H   H721      1.0  0.7663356908408352  0.06547293174165647  0.15150575205925634  1.0000
  H   H722      1.0  0.7845330960056985  0.0782133336973283  0.10930068441268294  1.0000
  H   H723      1.0  0.7490063140264817  0.07504880623428467  0.10553762096380258  1.0000
  H   H724      1.0  0.7801508377720975  0.1260791574051039  0.09249784845005055  1.0000
  H   H725      1.0  0.7448222639571809  0.12295424544646649  0.08520927246656726  1.0000
  H   H726      1.0  0.7561558452678785  0.1475316421654962  0.119162923795363  1.0000
  H   H727      1.0  0.7784656984934132  0.1333889785458353  0.18449749478291008  1.0000
  H   H728      1.0  0.801761449113334  0.11174059169930417  0.15686243718501822  1.0000
  H   H729      1.0  0.7821482736049645  0.09911848047815686  0.19786601528280354  1.0000
  H   H730      1.0  0.7291497257555669  0.13035016571495062  0.1745097555738637  1.0000
  H   H731      1.0  0.7333069101445302  0.09632682306801854  0.18970953343111133  1.0000
  H   H732      1.0  0.717379704236294  0.10533995933423701  0.14195829314521782  1.0000
  N   N46       1.0  0.7229275424370767  0.2424278234590755  0.29099533904595654  1.0000
  C   C469      1.0  0.7503850967009977  0.23991296499547587  0.27389539265644564  1.0000
  C   C470      1.0  0.7187980481694287  0.2677290780512018  0.3132735900202127  1.0000
  C   C471      1.0  0.7192401576387792  0.2201849123916155  0.3193102184820569  1.0000
  C   C472      1.0  0.7032043263288303  0.2417872491312172  0.2575326487445819  1.0000
  H   H733      1.0  0.7541355789892265  0.22082456173811865  0.2573195243624773  1.0000
  H   H734      1.0  0.7658299792217195  0.24041995701675842  0.2982435487366885  1.0000
  H   H735      1.0  0.7537873934081001  0.2561171996198701  0.2518191648069113  1.0000
  H   H736      1.0  0.7333659855347681  0.26886869390947193  0.33877252863795304  1.0000
  H   H737      1.0  0.7212477605977382  0.28500473532244097  0.2928144096610162  1.0000
  H   H738      1.0  0.698272541942599  0.26999992813496076  0.32677113023866033  1.0000
  H   H739      1.0  0.7225196260346206  0.20075747160758234  0.3036657005366783  1.0000
  H   H740      1.0  0.6985783527125248  0.22120713339285727  0.3323043825965436  1.0000
  H   H741      1.0  0.7335352008538389  0.2201731101191917  0.34529977377174575  1.0000
  H   H742      1.0  0.6822232909697008  0.24343749303484827  0.2693094140329348  1.0000
  H   H743      1.0  0.7058104387637928  0.22292119423163506  0.24024219107584283  1.0000
  H   H744      1.0  0.7054181136955442  0.2582023133644525  0.2353547468369959  1.0000
  N   N47       1.0  0.06134730354771522  0.7605632301039038  0.15760058473893412  1.0000
  C   C473      1.0  0.08067061287070466  0.7373925553075935  0.15234590384017  1.0000
  C   C474      1.0  0.07569354067626421  0.7851801626826178  0.1548540716022906  1.0000
  C   C475      1.0  0.0482532410225558  0.7590794764543082  0.1978969715026211  1.0000
  C   C476      1.0  0.04074582574754903  0.760570891130184  0.12529389026720383  1.0000
  H   H745      1.0  0.07053458156064553  0.7184434170194318  0.15389940593142004  1.0000
  H   H746      1.0  0.09650163088910856  0.7366842464740969  0.176244078804348  1.0000
  H   H747      1.0  0.09114118267687732  0.7379176126120606  0.12237184712077953  1.0000
  H   H748      1.0  0.0864338975592553  0.7865320043185758  0.1252749833567608  1.0000
  H   H749      1.0  0.06161083962840609  0.8031461742789283  0.15729720567263228  1.0000
  H   H750      1.0  0.0910060439074462  0.7861913911020043  0.1793115570382422  1.0000
  H   H751      1.0  0.0330649881538656  0.7759562134099116  0.20243221892881813  1.0000
  H   H752      1.0  0.06310151899332973  0.7595456666119  0.22304541589818827  1.0000
  H   H753      1.0  0.03762059119888183  0.74047636857879  0.2012202283883604  1.0000
  H   H754      1.0  0.02577009239681494  0.7778281850375763  0.1282271329027107  1.0000
  H   H755      1.0  0.029433176270236013  0.7422977277434585  0.126485522422096  1.0000
  H   H756      1.0  0.04991446796935817  0.7616477588247934  0.09446052203948696  1.0000
  N   N48       1.0  0.8616373140912279  0.3535299585280042  0.9072628996768195  1.0000
  C   C477      1.0  0.8837241081170323  0.3395422692278832  0.8842728577341882  1.0000
  C   C478      1.0  0.8358873874126185  0.3496697487186623  0.8866628084264269  1.0000
  C   C479      1.0  0.8661087763644665  0.3821267625898133  0.9087704322233559  1.0000
  C   C480      1.0  0.860822460499807  0.34276515985839573  0.949191119983509  1.0000
  H   H757      1.0  0.9033779685013335  0.34138472223588445  0.899606788974058  1.0000
  H   H758      1.0  0.8856284126232913  0.3479138135813919  0.8530246299461643  1.0000
  H   H759      1.0  0.8805511434845356  0.318090808839813  0.8811147299698541  1.0000
  H   H760      1.0  0.818745742799676  0.3599621536797066  0.903167796432112  1.0000
  H   H761      1.0  0.8358693976901674  0.35749612236769907  0.8548992519120088  1.0000
  H   H762      1.0  0.8319335824470737  0.32824849426428865  0.8850408110543205  1.0000
  H   H763      1.0  0.8497484217964884  0.3934854780662275  0.9254722297989647  1.0000
  H   H764      1.0  0.867430617980846  0.3907654980942027  0.8775981307739452  1.0000
  H   H765      1.0  0.8853280087559086  0.38572972654187815  0.9242492078260933  1.0000
  H   H766      1.0  0.8451368579562334  0.3535994980967732  0.9679617174380788  1.0000
  H   H767      1.0  0.880370600780859  0.3441564824529455  0.9651398013849432  1.0000
  H   H768      1.0  0.8562785202746019  0.3214934458015653  0.9492533701478226  1.0000
