data_image0
_chemical_formula_structural       FeS2FeS2FeSFeS3FeS2FeS2FeSFeS3FeS2FeS2FeSFeS3FeS2FeS2FeSFeS3FeS2FeS2FeSFeS3FeS2FeS2FeSFeS3FeS2FeS2FeSFeS3FeS2FeS2FeSFeS3FeS2FeS2FeSFeS3FeS2FeS2FeSFeS3FeS2FeS2FeSFeS3FeS2FeS2FeSFeS3FeS2FeS2FeSFeS3FeS2FeS2FeSFeS3FeS2FeS2FeSFeS3FeS2FeS2FeSFeS3FeS2FeS2FeSFeS3FeS2FeS2FeSFeS3FeS2FeS2FeSFeS3FeS2FeS2FeSFeS3FeS2FeS2FeSFeS3FeS2FeS2FeSFeS3FeS2FeS2FeSFeS3FeS2FeS2FeSFeS3FeS2FeS2FeSFeS3FeS2FeS2FeSFeS3FeS2FeS2FeSFeS3FeS2FeS2FeSFeS3FeS2FeS2FeSFeS3FeS2FeS2FeSFeS3FeS2FeS2FeSFeS3FeS2FeS2FeSFeS3C6H4C6H4C6H4C6H4C6H4C6H4C6H4C6H4C6H4C6H4C6H4C6H4C6H4C6H4C6H4C6H4C6H4C6H4C6H4C6H4C6H4C6H4C6H4C6H4C6H4C6H4C6H4C6H4C6H4C6H4C6H4C6H4C6H4C6H4C6H4C6H4C6H4C6H4C6H4C6H4C6H4C6H4C6H4C6H4C6H4C6H4C6H4C6H4C6H4C6H4C6H4C6H4C6H4C6H4C6H4C6H4C6H4C6H4C6H4C6H4C6H4C6H4C6H4C6H4NC4H12NC4H12NC4H12NC4H12NC4H12NC4H12NC4H12NC4H12NC4H12NC4H12NC4H12NC4H12NC4H12NC4H12NC4H12NC4H12NC4H12NC4H12NC4H12NC4H12NC4H12NC4H12NC4H12NC4H12NC4H12NC4H12NC4H12NC4H12NC4H12NC4H12NC4H12NC4H12NC4H12NC4H12NC4H12NC4H12NC4H12NC4H12NC4H12NC4H12NC4H12NC4H12NC4H12NC4H12NC4H12NC4H12NC4H12NC4H12NC4H12NC4H12NC4H12NC4H12NC4H12NC4H12NC4H12NC4H12NC4H12NC4H12NC4H12NC4H12NC4H12NC4H12NC4H12NC4H12
_chemical_formula_sum              "Fe128 S256 C640 H1024 N64"
_cell_length_a       59.801625644508825
_cell_length_b       59.15139241618871
_cell_length_c       36.94362765263077
_cell_angle_alpha    90.13221255549169
_cell_angle_beta     90.19092737933778
_cell_angle_gamma    83.65044434357317

_space_group_name_H-M_alt    "P 1"
_space_group_IT_number       1

loop_
  _space_group_symop_operation_xyz
  'x, y, z'

loop_
  _atom_site_type_symbol
  _atom_site_label
  _atom_site_symmetry_multiplicity
  _atom_site_fract_x
  _atom_site_fract_y
  _atom_site_fract_z
  _atom_site_occupancy
  Fe  Fe1       1.0  0.7884568949153695  0.08127663581742303  0.8832609701600829  1.0000
  S   S1        1.0  0.8224266140489596  0.08973938128033941  0.8656876646998598  1.0000
  S   S2        1.0  0.7654929915891888  0.07027683193502546  0.8395899022662543  1.0000
  Fe  Fe2       1.0  0.7998438049998525  0.08514344521211407  0.9632970938965005  1.0000
  S   S3        1.0  0.8344661833671884  0.09447750464081271  0.9524893626900223  1.0000
  S   S4        1.0  0.7912097553310099  0.07775980542844763  0.020795523077627998  1.0000
  Fe  Fe3       1.0  0.8179283195041435  0.1166838895598293  0.9086714551448366  1.0000
  S   S5        1.0  0.8254103346401973  0.15249560716115315  0.8965667069511473  1.0000
  Fe  Fe4       1.0  0.8357170357360769  0.06685876868107922  0.9108355845803685  1.0000
  S   S6        1.0  0.8641224643744  0.039068624450848015  0.9093218040358906  1.0000
  S   S7        1.0  0.782687528575941  0.10997066543362811  0.9233707389516654  1.0000
  S   S8        1.0  0.8023022881966669  0.05584775009442166  0.9246566831442631  1.0000
  Fe  Fe5       1.0  0.6756087963130885  0.13537250015072888  0.727029988302728  1.0000
  S   S9        1.0  0.7005186728462963  0.1255695215199858  0.6831339976972862  1.0000
  S   S10       1.0  0.6846542652937733  0.1403497821199494  0.7856252678397844  1.0000
  Fe  Fe6       1.0  0.6355559406179504  0.13762604079662238  0.6756437483475431  1.0000
  S   S11       1.0  0.6567819421574334  0.12786230736494775  0.6269035290387311  1.0000
  S   S12       1.0  0.598099741890625  0.14745619340117203  0.6723675537971381  1.0000
  Fe  Fe7       1.0  0.6754709866495883  0.10268858979590749  0.6642399369966715  1.0000
  S   S13       1.0  0.6866597653715176  0.06703835697726941  0.6475691659884978  1.0000
  Fe  Fe8       1.0  0.6799911593713147  0.15170826482038888  0.6493475953831997  1.0000
  S   S14       1.0  0.6989544922677325  0.1752742739910101  0.6167067462337728  1.0000
  S   S15       1.0  0.652209793071187  0.10999661215865508  0.71113603106606  1.0000
  S   S16       1.0  0.6572105899070657  0.16388488015176286  0.6951448188276086  1.0000
  Fe  Fe9       1.0  0.8792756799611091  0.15223235176627684  0.21457882365571446  1.0000
  S   S17       1.0  0.8443213863187002  0.17073715066898015  0.21329969712307825  1.0000
  S   S18       1.0  0.9144124192142963  0.1630498717200436  0.21437640255104615  1.0000
  Fe  Fe10      1.0  0.8624616168118311  0.10563645330587748  0.21169880407244154  1.0000
  S   S19       1.0  0.8259826246669502  0.11928847088627732  0.20957402156783347  1.0000
  S   S20       1.0  0.8780405543159954  0.06944236731775676  0.21565342481564112  1.0000
  Fe  Fe11      1.0  0.8375179494132957  0.1449264497107031  0.1710365401402889  1.0000
  S   S21       1.0  0.81971041643955  0.1567516753049544  0.11985118043820206  1.0000
  Fe  Fe12      1.0  0.8350170489103851  0.14391666712074436  0.25196497304158294  1.0000
  S   S22       1.0  0.8143226749845919  0.15003289149066432  0.3027155069501974  1.0000
  S   S23       1.0  0.873117574853765  0.12873450223957064  0.16885536176407204  1.0000
  S   S24       1.0  0.8706403590179221  0.12800984052467812  0.2575278048420105  1.0000
  Fe  Fe13      1.0  0.6864590641461779  0.1413650048713542  0.42125654445584143  1.0000
  S   S25       1.0  0.6737599959624414  0.14087308844842952  0.36406339023056705  1.0000
  S   S26       1.0  0.6946594908771345  0.17419160465210615  0.44565014911263867  1.0000
  Fe  Fe14      1.0  0.6901754587072462  0.09053401063862991  0.4282014045219419  1.0000
  S   S27       1.0  0.6780838792821117  0.08550675379353016  0.3716818044842273  1.0000
  S   S28       1.0  0.6996073616523911  0.06051168988862687  0.463819549742527  1.0000
  Fe  Fe15      1.0  0.7007369370921057  0.11173999332441559  0.35659829242375984  1.0000
  S   S29       1.0  0.7213903665919715  0.10815864752947278  0.30536657363359765  1.0000
  Fe  Fe16      1.0  0.6522352336975442  0.11488082162648866  0.38468807279040323  1.0000
  S   S30       1.0  0.6165283530055121  0.11273336683937592  0.3659929994411703  1.0000
  S   S31       1.0  0.7151224803849944  0.11418099272796858  0.4123088937785724  1.0000
  S   S32       1.0  0.6627523112600326  0.11787303965823219  0.4427919343124752  1.0000
  Fe  Fe17      1.0  0.8121443628415506  0.9296132321209558  0.944004226429813  1.0000
  S   S33       1.0  0.8415918058724525  0.9193459147859625  0.908033373853843  1.0000
  S   S34       1.0  0.8131739803388397  0.9503714875901598  0.9944461829392196  1.0000
  Fe  Fe18      1.0  0.7782481202975351  0.9134041660434407  0.8920759962088043  1.0000
  S   S35       1.0  0.8043682648231175  0.9015963845846187  0.8507500807680245  1.0000
  S   S36       1.0  0.7408676831914682  0.9134254659215235  0.8889002716224313  1.0000
  Fe  Fe19      1.0  0.8248076497836548  0.8876879590638864  0.8985437426537278  1.0000
  S   S37       1.0  0.8430867470307228  0.8524119183618006  0.893923559573246  1.0000
  Fe  Fe20      1.0  0.8188673371353922  0.9340215285548148  0.8636629960103358  1.0000
  S   S38       1.0  0.8288614441254344  0.9583259255141247  0.821959453024107  1.0000
  S   S39       1.0  0.7972266929638506  0.8965978173004187  0.9388599718215622  1.0000
  S   S40       1.0  0.790893888701902  0.9470676500695981  0.9005026542666095  1.0000
  Fe  Fe21      1.0  0.6226483814123889  0.9758881693955938  0.70679069560137  1.0000
  S   S41       1.0  0.6392076713313557  0.9719778292936524  0.7611952136244962  1.0000
  S   S42       1.0  0.6073773031579774  0.009775696133530687  0.6866098030500067  1.0000
  Fe  Fe22      1.0  0.6315564373251021  0.9257788441133443  0.6887655040626911  1.0000
  S   S43       1.0  0.6493254563324258  0.9173184034763834  0.741210654074145  1.0000
  S   S44       1.0  0.6249812941648618  0.9000250054516027  0.6466213623843065  1.0000
  Fe  Fe23      1.0  0.6212106357146638  0.9407893239300051  0.7652937789713878  1.0000
  S   S45       1.0  0.6058638466971473  0.9302115817190639  0.8168689883207719  1.0000
  Fe  Fe24      1.0  0.6656564879799792  0.9491337384472684  0.7319881524980609  1.0000
  S   S46       1.0  0.702568921811761  0.9517231514730129  0.7390770641197751  1.0000
  S   S47       1.0  0.6020853964327256  0.9468424366361249  0.7134584449836491  1.0000
  S   S48       1.0  0.6504079515451933  0.9554351325570652  0.6769178753364474  1.0000
  Fe  Fe25      1.0  0.8201934393610122  0.9651887085743999  0.19220589144613612  1.0000
  S   S49       1.0  0.7908540069621122  0.9457483769553034  0.2039416347363837  1.0000
  S   S50       1.0  0.8127165602623625  0.9993582718194574  0.1651570357675434  1.0000
  Fe  Fe26      1.0  0.8546916904991627  0.9265962969557974  0.21799238260809492  1.0000
  S   S51       1.0  0.8281235471294712  0.904016479410969  0.2309129950734979  1.0000
  S   S52       1.0  0.8915919019657514  0.9157447553644733  0.22790493074186063  1.0000
  Fe  Fe27      1.0  0.8124706910499765  0.9165540629406419  0.1787152721541971  1.0000
  S   S53       1.0  0.8015180832310334  0.8935814703272789  0.13551899603603182  1.0000
  Fe  Fe28      1.0  0.8093894050492774  0.9352466899516112  0.2553145990356219  1.0000
  S   S54       1.0  0.796805091488881  0.9335706895545348  0.31273212740073064  1.0000
  S   S55       1.0  0.8406350240767819  0.9366731975762268  0.16349908037772312  1.0000
  S   S56       1.0  0.8370361398603197  0.9573011696944019  0.24588698674285564  1.0000
  Fe  Fe29      1.0  0.6727504450012871  0.9209280292110857  0.465297495251011  1.0000
  S   S57       1.0  0.6705345545127595  0.8968272609427954  0.4184292884097602  1.0000
  S   S58       1.0  0.6911439971403557  0.9144157023005508  0.5179629227516919  1.0000
  Fe  Fe30      1.0  0.6441195727372004  0.9595213621468154  0.4297177019478918  1.0000
  S   S59       1.0  0.6389950117332076  0.9392621861949223  0.38015751391191677  1.0000
  S   S60       1.0  0.6262931890131538  0.9947446537099923  0.4343085211443006  1.0000
  Fe  Fe31      1.0  0.6340901824115232  0.9108680992011323  0.41801389511401416  1.0000
  S   S61       1.0  0.6054727898075553  0.8910892180704577  0.4032915866339638  1.0000
  Fe  Fe32      1.0  0.6757306089843566  0.9271425176385372  0.38404598810995133  1.0000
  S   S62       1.0  0.6923250619587115  0.9274898345059023  0.3294298269769379  1.0000
  S   S63       1.0  0.6358094632210739  0.932500463123803  0.46759946689563886  1.0000
  S   S64       1.0  0.6814369544545034  0.9500077867924764  0.4308086255881019  1.0000
  Fe  Fe33      1.0  0.45258118880149373  0.11145587001004914  0.7753062692496098  1.0000
  S   S65       1.0  0.4360006685502792  0.12367800566659674  0.7232675786799648  1.0000
  S   S66       1.0  0.43530768452324353  0.10898960446198162  0.829411472679546  1.0000
  Fe  Fe34      1.0  0.4983842716348358  0.09864459032923052  0.739383621500158  1.0000
  S   S67       1.0  0.48563958481494385  0.10929561629592571  0.6842058286091892  1.0000
  S   S68       1.0  0.5342281240889365  0.08299154149583583  0.746462090978229  1.0000
  Fe  Fe35      1.0  0.4679293573991334  0.13935685393763864  0.7130636895790445  1.0000
  S   S69       1.0  0.4690869532836741  0.17422011998345577  0.6901636820691183  1.0000
  Fe  Fe36      1.0  0.45508993031462  0.09264701285058131  0.6991295246980553  1.0000
  S   S70       1.0  0.43857862704211437  0.06859607636797026  0.6636355879021062  1.0000
  S   S71       1.0  0.4830259635480134  0.13016829370624572  0.7676051634152935  1.0000
  S   S72       1.0  0.46948248765920536  0.07901918918661165  0.7518088221736396  1.0000
  Fe  Fe37      1.0  0.3126519328158455  0.13185410320430124  0.8934697949863165  1.0000
  S   S73       1.0  0.28268911481802855  0.11595648963699769  0.9139654848985529  1.0000
  S   S74       1.0  0.3289358932455714  0.1206567801403026  0.8403684973018911  1.0000
  Fe  Fe38      1.0  0.3138443607685982  0.16285792122254186  0.9586127343115503  1.0000
  S   S75       1.0  0.2839696389172357  0.14994391891485412  0.9841406149170786  1.0000
  S   S76       1.0  0.3311463095496155  0.1886320127016032  0.9898571885232321  1.0000
  Fe  Fe39      1.0  0.30015418549656553  0.11568534798460949  0.9677551073060005  1.0000
  S   S77       1.0  0.305089662146206  0.08746284484804748  0.008473231281607596  1.0000
  Fe  Fe40      1.0  0.2689144870013116  0.15183144980186744  0.9285651974359206  1.0000
  S   S78       1.0  0.23167705665157062  0.16339068143849841  0.925611042338819  1.0000
  S   S79       1.0  0.3313234267728962  0.12834855032350645  0.9459562779185243  1.0000
  S   S80       1.0  0.2975329525400575  0.16793092618335953  0.9038290663945256  1.0000
  Fe  Fe41      1.0  0.4595503712591603  0.15887348795795259  0.4857926032866327  1.0000
  S   S81       1.0  0.48738234196280733  0.1670593801591307  0.44927576104367234  1.0000
  S   S82       1.0  0.44564958411191175  0.18638941191242003  0.5238342151460059  1.0000
  Fe  Fe42      1.0  0.4585549944255922  0.11204557824580824  0.45359634076991306  1.0000
  S   S83       1.0  0.4867489339375931  0.11597043225809275  0.4150186623023904  1.0000
  S   S84       1.0  0.43887236612538033  0.08192960708219302  0.4524186229958935  1.0000
  Fe  Fe43      1.0  0.5028788023696872  0.13178252212857938  0.46238247306897845  1.0000
  S   S85       1.0  0.5388036706256871  0.12805481425928567  0.4822102910783637  1.0000
  Fe  Fe44      1.0  0.4685419385498976  0.15071396098447537  0.4057203560003433  1.0000
  S   S86       1.0  0.46412398638954555  0.16283598054756326  0.3481935475724234  1.0000
  S   S87       1.0  0.4761605601314292  0.12464983254739494  0.5021045539472284  1.0000
  S   S88       1.0  0.43923713514078966  0.1456564737316179  0.44096583609914247  1.0000
  Fe  Fe45      1.0  0.35188447874482265  0.15110821705518587  0.18819929923597803  1.0000
  S   S89       1.0  0.32292527102153296  0.13088062631567507  0.19780130792220976  1.0000
  S   S90       1.0  0.3707475003974712  0.1449464405714184  0.1359832086585251  1.0000
  Fe  Fe46      1.0  0.3493406709854671  0.17143908105627634  0.26351464913283706  1.0000
  S   S91       1.0  0.3198430494498862  0.15325387303733898  0.2788300732961562  1.0000
  S   S92       1.0  0.36198562541515167  0.19235571536694193  0.30854660807820466  1.0000
  Fe  Fe47      1.0  0.3386260300738394  0.12306776701265068  0.25195485568780146  1.0000
  S   S93       1.0  0.34420071946142566  0.08922154185157626  0.2799438344094285  1.0000
  Fe  Fe48      1.0  0.3067928913241679  0.16306847374561637  0.22352388338717394  1.0000
  S   S94       1.0  0.2698377402920803  0.17376845103509597  0.21432944945438898  1.0000
  S   S95       1.0  0.3691561433530379  0.14051036361249858  0.24047795451200007  1.0000
  S   S96       1.0  0.33471235643574115  0.18403047441505144  0.21002448054722364  1.0000
  Fe  Fe49      1.0  0.4833709666287015  0.9218703330013349  0.7835050550556598  1.0000
  S   S97       1.0  0.4829981767083101  0.924520046628357  0.7234160738871868  1.0000
  S   S98       1.0  0.5091741671512223  0.8969126415847447  0.8099373153955821  1.0000
  Fe  Fe50      1.0  0.44600526392816103  0.9600094187636661  0.7931377119603685  1.0000
  S   S99       1.0  0.44274124783597957  0.9667764335591988  0.7336691128666011  1.0000
  S   S100      1.0  0.4245599874243694  0.981740575796232  0.8328616634392121  1.0000
  Fe  Fe51      1.0  0.44551098379918735  0.9288969891332193  0.7280822878360003  1.0000
  S   S101      1.0  0.4268212216412802  0.9121970342738526  0.6843784619646519  1.0000
  Fe  Fe52      1.0  0.48040599727936123  0.9618208140648015  0.7329319575963977  1.0000
  S   S102      1.0  0.502405492548896  0.9811953432373343  0.6984453426170609  1.0000
  S   S103      1.0  0.44585586828175094  0.9221311491522046  0.7879693066792354  1.0000
  S   S104      1.0  0.4836959393007116  0.9592162664907418  0.7931732155221087  1.0000
  Fe  Fe53      1.0  0.281814159295455  0.9735019970654005  0.9625202365066698  1.0000
  S   S105      1.0  0.31796855064306867  0.9781437137411642  0.9529738436902775  1.0000
  S   S106      1.0  0.256405508985956  0.004083503877292394  0.9574299768006131  1.0000
  Fe  Fe54      1.0  0.2917445084796429  0.9233418591338787  0.9800878808411296  1.0000
  S   S107      1.0  0.32896196726751226  0.9237104438766438  0.9724763780671009  1.0000
  S   S108      1.0  0.2800706191168571  0.8900362276208336  0.9975929491911975  1.0000
  Fe  Fe55      1.0  0.3240842793148926  0.9567427771989244  0.002689320844771803  1.0000
  S   S109      1.0  0.3459165941058176  0.9673073542212206  0.047573230504032615  1.0000
  Fe  Fe56      1.0  0.31937331802418667  0.9449729848184711  0.9235107074903692  1.0000
  S   S110      1.0  0.3353716806776117  0.9377288257935321  0.8691348896385626  1.0000
  S   S111      1.0  0.2877022612931062  0.9547013422467463  0.01475980394774723  1.0000
  S   S112      1.0  0.2823755662721622  0.9420267861787259  0.9284265860866767  1.0000
  Fe  Fe57      1.0  0.495830922580427  0.9217610556067697  0.4844119910081717  1.0000
  S   S113      1.0  0.4887436891153402  0.9587796701525922  0.49754669695746034  1.0000
  S   S114      1.0  0.5254962917262682  0.9041982194925409  0.5140690798576326  1.0000
  Fe  Fe58      1.0  0.4561856079343519  0.9224813667196538  0.4334527814307695  1.0000
  S   S115      1.0  0.4459018958405784  0.9596887519572693  0.4423798900518521  1.0000
  S   S116      1.0  0.434787576992405  0.9020964215575392  0.3987612318337134  1.0000
  Fe  Fe59      1.0  0.4827142350885301  0.9629395911997687  0.4381559519836741  1.0000
  S   S117      1.0  0.4984146446604419  0.9911613939583017  0.41141130801349846  1.0000
  Fe  Fe60      1.0  0.4528201961295962  0.9520141085501378  0.5006225231736068  1.0000
  S   S118      1.0  0.4301115917117667  0.9703247584053705  0.5419987389535583  1.0000
  S   S119      1.0  0.4926582000186898  0.9263733651195387  0.4242748144934128  1.0000
  S   S120      1.0  0.46024356402355315  0.9143816221170976  0.4926241260472378  1.0000
  Fe  Fe61      1.0  0.3142795592092721  0.9372422792699209  0.23403708122619035  1.0000
  S   S121      1.0  0.2782098507867828  0.9500698967096289  0.24345425880239738  1.0000
  S   S122      1.0  0.3229338722669822  0.9136795032133865  0.18741325537789594  1.0000
  Fe  Fe62      1.0  0.33043856314317926  0.9607345163744083  0.30080426185380893  1.0000
  S   S123      1.0  0.2956418562754416  0.9751932162250163  0.31680231646891077  1.0000
  S   S124      1.0  0.3610782473722444  0.9720533584179433  0.3273375897956326  1.0000
  Fe  Fe63      1.0  0.28593679839490255  0.9407461555707782  0.3013411135528248  1.0000
  S   S125      1.0  0.26564176012510127  0.9183248363986305  0.3339299880589154  1.0000
  Fe  Fe64      1.0  0.29132670961416945  0.9831276636563054  0.25763273923140034  1.0000
  S   S126      1.0  0.2782562332041735  0.017167816242146694  0.2346990107807131  1.0000
  S   S127      1.0  0.32138512391900975  0.9255123748349116  0.2907739883906204  1.0000
  S   S128      1.0  0.3267508133303273  0.9710065987591711  0.2426952491305556  1.0000
  Fe  Fe65      1.0  0.18911531594809933  0.8211357253476197  0.9173851675504479  1.0000
  S   S129      1.0  0.20481435402674886  0.7941924761634986  0.9553454175824551  1.0000
  S   S130      1.0  0.19998664524387236  0.8559713838175873  0.9080819428274705  1.0000
  Fe  Fe66      1.0  0.15088132430421294  0.7937871679620675  0.8961222727662188  1.0000
  S   S131      1.0  0.1635668474148527  0.7646986267009577  0.9318172916198862  1.0000
  S   S132      1.0  0.11886141119055826  0.7918562751114557  0.864736083918639  1.0000
  Fe  Fe67      1.0  0.16924376504284358  0.7913194416802797  0.972661062611365  1.0000
  S   S133      1.0  0.15370249315459508  0.7891868012837012  0.027608107213295874  1.0000
  Fe  Fe68      1.0  0.19754809503156576  0.7700855086432135  0.910599913082294  1.0000
  S   S134      1.0  0.22009803569221834  0.7383513669054789  0.8964218662677494  1.0000
  S   S135      1.0  0.15410190002088558  0.8202302854071712  0.938438506393063  1.0000
  S   S136      1.0  0.18446544721717725  0.7972191187152117  0.8711877338611328  1.0000
  Fe  Fe69      1.0  0.13562435418525562  0.655192301702343  0.7736427290061676  1.0000
  S   S137      1.0  0.16838451211884073  0.6558636543956711  0.8032416041553875  1.0000
  S   S138      1.0  0.10112047624546364  0.6667651313164219  0.7949137514370019  1.0000
  Fe  Fe70      1.0  0.15747871881956324  0.6338037611774724  0.7060408020448183  1.0000
  S   S139      1.0  0.19232590452149398  0.6330571755030282  0.728492086070799  1.0000
  S   S140      1.0  0.14823550932805493  0.6188077882716011  0.6529696669510789  1.0000
  Fe  Fe71      1.0  0.1770814397372106  0.6209343178549669  0.7794943131314978  1.0000
  S   S141      1.0  0.19418749919492043  0.5896408871994202  0.8063689194867285  1.0000
  Fe  Fe72      1.0  0.18073609196674714  0.6679179721269405  0.7499833618706561  1.0000
  S   S142      1.0  0.19827323428957178  0.6992588659165246  0.742812140721968  1.0000
  S   S143      1.0  0.14309369664217234  0.619138836393288  0.7551990868825242  1.0000
  S   S144      1.0  0.14725106306409166  0.6699349758295698  0.7222222928801896  1.0000
  Fe  Fe73      1.0  0.17465266563763882  0.8551829242126182  0.24952385690533385  1.0000
  S   S145      1.0  0.20209538796374368  0.826951853375727  0.26017605909108354  1.0000
  S   S146      1.0  0.17965729449806597  0.892297699316726  0.25068986874440197  1.0000
  Fe  Fe74      1.0  0.141932504724146  0.8231207356319195  0.22246692441037333  1.0000
  S   S147      1.0  0.16650038080181032  0.7921994159907669  0.23115737327701394  1.0000
  S   S148      1.0  0.11002524444204927  0.816841369893731  0.1937677576094406  1.0000
  Fe  Fe75      1.0  0.174264185625466  0.8087208076156762  0.2834555804434254  1.0000
  S   S149      1.0  0.18093184402744208  0.7872208720544663  0.3334715156723348  1.0000
  Fe  Fe76      1.0  0.19173404554769097  0.8129570650213733  0.20717768047203078  1.0000
  S   S150      1.0  0.2156556537786305  0.798956121141814  0.1640086233537526  1.0000
  S   S151      1.0  0.1474205685852521  0.8382438639586812  0.2772752954287089  1.0000
  S   S152      1.0  0.1666489593041961  0.8426204679957741  0.19424869527260336  1.0000
  Fe  Fe77      1.0  0.15779135370556074  0.6684061726804481  0.4728485823750923  1.0000
  S   S153      1.0  0.1677657785602684  0.6700230194037989  0.4142400520227348  1.0000
  S   S154      1.0  0.17842350172491456  0.6760413326729995  0.5214948954663639  1.0000
  Fe  Fe78      1.0  0.11404354428892201  0.6496741522882635  0.4563776789901084  1.0000
  S   S155      1.0  0.11960933385111182  0.6495891991155301  0.3964087829512444  1.0000
  S   S156      1.0  0.08486339136534703  0.6384226584472581  0.48690308085288186  1.0000
  Fe  Fe79      1.0  0.1549936519188532  0.6357550653807968  0.4100805758200022  1.0000
  S   S157      1.0  0.1729691032757805  0.6047036871364951  0.38373721011906736  1.0000
  Fe  Fe80      1.0  0.13152086682304362  0.6838281832908029  0.4052492166976584  1.0000
  S   S158      1.0  0.11748511214150686  0.7107270276690878  0.3654248482735166  1.0000
  S   S159      1.0  0.14835843395443024  0.6329322175703662  0.4691509817239808  1.0000
  S   S160      1.0  0.12269395656499175  0.6851994153210567  0.46433798775484736  1.0000
  Fe  Fe81      1.0  0.9628847717294821  0.8054872221583208  0.9275005149712803  1.0000
  S   S161      1.0  0.9426009901891551  0.7758517361247192  0.9250902874917418  1.0000
  S   S162      1.0  0.9479043335196125  0.8418693708507811  0.9210989643531043  1.0000
  Fe  Fe82      1.0  0.005638951562396688  0.7758719160184562  0.9509401266257347  1.0000
  S   S163      1.0  0.988830704883305  0.743834000956053  0.9505091628355705  1.0000
  S   S164      1.0  0.04107354550777065  0.773486423166831  0.972256348229369  1.0000
  Fe  Fe83      1.0  0.9732315791000027  0.7574750400684926  0.8985629711609608  1.0000
  S   S165      1.0  0.9736442245680951  0.7383056528910298  0.8457645576951903  1.0000
  Fe  Fe84      1.0  0.9601639601560982  0.7652925713214084  0.9772029538462172  1.0000
  S   S166      1.0  0.9423165016718702  0.757029382275389  0.028173102234988034  1.0000
  S   S167      1.0  0.9922927341532716  0.7881937901316531  0.8969243658801463  1.0000
  S   S168      1.0  0.978155325946101  0.7962979561895623  0.9815108615098422  1.0000
  Fe  Fe85      1.0  0.010732293730692621  0.6078336265105647  0.720503024034759  1.0000
  S   S169      1.0  0.013533196327088826  0.5960364362937156  0.7779259653040108  1.0000
  S   S170      1.0  0.039636024330262254  0.6178292327570342  0.6886922975136126  1.0000
  Fe  Fe86      1.0  0.9630787442023659  0.5988232342447997  0.7122329713728539  1.0000
  S   S171      1.0  0.9604997256992085  0.5857976653297305  0.7689352105970569  1.0000
  S   S172      1.0  0.9371649175552595  0.600464605574897  0.6680232840816217  1.0000
  Fe  Fe87      1.0  0.9793272336384751  0.6152071478526505  0.7849019057130656  1.0000
  S   S173      1.0  0.9721001903165875  0.631411573006757  0.8396429022114773  1.0000
  Fe  Fe88      1.0  0.994805747183943  0.5675702693773542  0.759095237131089  1.0000
  S   S174      1.0  0.007496663591092467  0.5332100801836043  0.7810245240651026  1.0000
  S   S175      1.0  0.978474962637127  0.6301971549866102  0.7290219072601571  1.0000
  S   S176      1.0  0.9955129717942608  0.5772945427548056  0.7008073511282927  1.0000
  Fe  Fe89      1.0  0.00025378891690031047  0.812368325070904  0.26963465432881867  1.0000
  S   S177      1.0  0.017457856486064127  0.7774748803001007  0.2593069879525047  1.0000
  S   S178      1.0  0.021729523113140692  0.8396114546191162  0.28498274568501636  1.0000
  Fe  Fe90      1.0  0.9543820908504648  0.7983541562174464  0.25210757360404895  1.0000
  S   S179      1.0  0.9678193229043299  0.7620068689482199  0.2403429517527932  1.0000
  S   S180      1.0  0.9175903687672038  0.8096191500569909  0.24332063194261694  1.0000
  Fe  Fe91      1.0  0.9889554916556843  0.7654342818425368  0.29021560386049183  1.0000
  S   S181      1.0  0.9994118479048851  0.7406436954646406  0.33507915892090934  1.0000
  Fe  Fe92      1.0  0.9950047998278488  0.7775826078099846  0.21076383454335884  1.0000
  S   S182      1.0  0.010393556363379242  0.768167969011038  0.15662493834118066  1.0000
  S   S183      1.0  0.9732403412304057  0.8005830434669432  0.30443502303302805  1.0000
  S   S184      1.0  0.9800305601143023  0.8135686787009025  0.21866420914872226  1.0000
  Fe  Fe93      1.0  0.9409213344411325  0.5942556558381932  0.4384496683408194  1.0000
  S   S185      1.0  0.9745971366667912  0.5876778108270861  0.4654610680371884  1.0000
  S   S186      1.0  0.9114965026484831  0.5743148784274406  0.4456734514945934  1.0000
  Fe  Fe94      1.0  0.9509472490201397  0.6379587460962471  0.40348585613723276  1.0000
  S   S187      1.0  0.9855636269991372  0.6359324703456608  0.4269225494816871  1.0000
  S   S188      1.0  0.9350129207417373  0.6649158631919572  0.36582586183928306  1.0000
  Fe  Fe95      1.0  0.987943797002018  0.5990301222868718  0.41257382351974836  1.0000
  S   S189      1.0  0.021390886362883554  0.5856971321817487  0.3897849371578093  1.0000
  Fe  Fe96      1.0  0.9700135330850157  0.6249793243546329  0.47800541206176655  1.0000
  S   S190      1.0  0.983222630959597  0.6375179723636546  0.5301594665202448  1.0000
  S   S191      1.0  0.9547245567269407  0.6017901378585125  0.3839581187186081  1.0000
  S   S192      1.0  0.9349170665935552  0.6307131251573801  0.45630686023982286  1.0000
  Fe  Fe97      1.0  0.13739378260932936  0.4878729110841745  0.7785583219309967  1.0000
  S   S193      1.0  0.1361141531514675  0.5003094722739998  0.721438487249738  1.0000
  S   S194      1.0  0.1266324128295049  0.515226209865333  0.8189525758757689  1.0000
  Fe  Fe98      1.0  0.1486214213003514  0.4382259309308062  0.7563333764425076  1.0000
  S   S195      1.0  0.14830324175150225  0.44684101411603044  0.697034444332456  1.0000
  S   S196      1.0  0.15418387583418422  0.4005759689597362  0.7681315216202679  1.0000
  Fe  Fe99      1.0  0.16710871981202804  0.4758334581450279  0.7138786686690546  1.0000
  S   S197      1.0  0.19758341865832163  0.48738497921396384  0.6873104472343435  1.0000
  Fe  Fe100     1.0  0.11745185176597224  0.4703122165863911  0.7106203964402462  1.0000
  S   S198      1.0  0.08392378523587986  0.47286015807826776  0.6832216015597874  1.0000
  S   S199      1.0  0.1700897260083061  0.4655619715961147  0.7724190611507415  1.0000
  S   S200      1.0  0.11621363471254652  0.4595914255801151  0.7684460801271339  1.0000
  Fe  Fe101     1.0  0.15942920257138113  0.27805149505664384  0.9182412667705114  1.0000
  S   S201      1.0  0.15136861823490894  0.30481345249733044  0.9608268662681324  1.0000
  S   S202      1.0  0.1955180822802311  0.26722308386293486  0.9024746131486988  1.0000
  Fe  Fe102     1.0  0.11013062845757267  0.2755516477545686  0.9004692850798159  1.0000
  S   S203      1.0  0.09794683614841057  0.30227863244599407  0.9409110937323505  1.0000
  S   S204      1.0  0.08513974274703666  0.2578914438474764  0.8685036419358497  1.0000
  Fe  Fe103     1.0  0.12619074596027047  0.3207875499593965  0.9204524808887592  1.0000
  S   S205      1.0  0.12170280866399769  0.3590055078139155  0.9137398165774855  1.0000
  Fe  Fe104     1.0  0.1239271669771442  0.283981592430653  0.9773268410874794  1.0000
  S   S206      1.0  0.11477800488952063  0.2729775451281205  0.03301910807529573  1.0000
  S   S207      1.0  0.13621385882132325  0.2955269507058384  0.8764435274956994  1.0000
  S   S208      1.0  0.13414679661795484  0.255776938458746  0.9381904121845961  1.0000
  Fe  Fe105     1.0  0.14234116066965075  0.49027670443673305  0.4335961712259752  1.0000
  S   S209      1.0  0.1436796638590774  0.4844714305501128  0.4935617580928827  1.0000
  S   S210      1.0  0.11961233887471485  0.5203987058868248  0.41345541219600435  1.0000
  Fe  Fe106     1.0  0.1735102325027214  0.4471619354287322  0.41755424006430775  1.0000
  S   S211      1.0  0.17701113580797562  0.43729265236996745  0.47592335386888274  1.0000
  S   S212      1.0  0.1919528455014676  0.4260630301376505  0.37424663259683516  1.0000
  Fe  Fe107     1.0  0.14005165099420624  0.4482657810349387  0.47869464253543564  1.0000
  S   S213      1.0  0.11458974907048658  0.428239029038642  0.5039152397900917  1.0000
  Fe  Fe108     1.0  0.18038372547445236  0.4742577453997627  0.48484909035014595  1.0000
  S   S214      1.0  0.20851258685988386  0.48611051288584706  0.5172358036721163  1.0000
  S   S215      1.0  0.13612425212589246  0.4547355321361452  0.4190266012020272  1.0000
  S   S216      1.0  0.17955688334994768  0.483567475146512  0.42609138516964457  1.0000
  Fe  Fe109     1.0  0.16016068377542508  0.309406329915527  0.2106430568294918  1.0000
  S   S217      1.0  0.17467563184500892  0.27285351154322984  0.21312186965019994  1.0000
  S   S218      1.0  0.1557068162977583  0.3283001885999603  0.15814302818328316  1.0000
  Fe  Fe110     1.0  0.15903033452169454  0.31518152018732104  0.2922393391586143  1.0000
  S   S219      1.0  0.17414050627203154  0.27921849219955847  0.3016485693828611  1.0000
  S   S220      1.0  0.1465490956979986  0.336628239305383  0.34028760981736916  1.0000
  Fe  Fe111     1.0  0.19731653149448636  0.2848627566610296  0.2557514623537417  1.0000
  S   S221      1.0  0.23490959800525862  0.275614001668958  0.25324046361443187  1.0000
  Fe  Fe112     1.0  0.15015708396021848  0.2704477809951943  0.2583001044444816  1.0000
  S   S222      1.0  0.1324626421813136  0.2394922015434867  0.26826453414897933  1.0000
  S   S223      1.0  0.18448775261974107  0.3217980470778193  0.2502450309389255  1.0000
  S   S224      1.0  0.1333540115359363  0.3060059903156857  0.2518521190307392  1.0000
  Fe  Fe113     1.0  0.9698924218015728  0.3796995569949909  0.7767068514127103  1.0000
  S   S225      1.0  0.9895522534844655  0.35634150269790205  0.737543301446242  1.0000
  S   S226      1.0  0.9638967113901162  0.3679372921474931  0.8333244678183286  1.0000
  Fe  Fe114     1.0  0.9680266514693823  0.420553880955852  0.726395170802593  1.0000
  S   S227      1.0  0.9876744373395581  0.4007077938771692  0.6833878529473448  1.0000
  S   S228      1.0  0.9553452771086426  0.4565624460374275  0.7112473258002627  1.0000
  Fe  Fe115     1.0  0.9660581770656963  0.3732261603046742  0.695925996533562  1.0000
  S   S229      1.0  0.9518629441998532  0.3561288749876849  0.6482844628575172  1.0000
  Fe  Fe116     1.0  0.009142328993563043  0.3859024871436806  0.7288064517863694  1.0000
  S   S230      1.0  0.04658669101444679  0.38128639756430704  0.7265139599239991  1.0000
  S   S231      1.0  0.9443485939665752  0.39418437403776174  0.7357301656751757  1.0000
  S   S232      1.0  0.9915983008568767  0.40811053384841806  0.7712682972416932  1.0000
  Fe  Fe117     1.0  0.9367525475364032  0.2054417997988635  0.9388710604039746  1.0000
  S   S233      1.0  0.9167280887123523  0.23903053296380405  0.9275377435410418  1.0000
  S   S234      1.0  0.9240221381453517  0.17085219203196658  0.9409432288971824  1.0000
  Fe  Fe118     1.0  0.9797191420511028  0.22694141260406972  0.9553280330849373  1.0000
  S   S235      1.0  0.9635161902120063  0.2621420590865271  0.9451147509667823  1.0000
  S   S236      1.0  0.014898803206167655  0.2238391377700421  0.9777360255436969  1.0000
  Fe  Fe119     1.0  0.934408282368998  0.2516360757169433  0.9760686341522006  1.0000
  S   S237      1.0  0.9173545355435886  0.2740698693573874  0.019477348615832613  1.0000
  Fe  Fe120     1.0  0.9475175134584808  0.24711692103970265  0.8973737939480587  1.0000
  S   S238      1.0  0.9444216889244867  0.2652423309940043  0.8436236038445962  1.0000
  S   S239      1.0  0.9517833058611225  0.21739471402470698  0.990319665037423  1.0000
  S   S240      1.0  0.9663659209618959  0.2123020669256963  0.90459267139814  1.0000
  Fe  Fe121     1.0  0.9587330756577777  0.4507686649655028  0.4734308933356343  1.0000
  S   S241      1.0  0.9949948266279783  0.44630925538962407  0.4891761543731112  1.0000
  S   S242      1.0  0.9348369246469092  0.47466422978462575  0.5061161535173088  1.0000
  Fe  Fe122     1.0  0.9652365519512349  0.41540607245780803  0.4137900930189241  1.0000
  S   S243      1.0  0.0022459174520526037  0.4080573199287922  0.4241625068040049  1.0000
  S   S244      1.0  0.9488354188179261  0.3975698885324972  0.3685300515609835  1.0000
  Fe  Fe123     1.0  0.9927218245536367  0.40904432878325536  0.48279465132980814  1.0000
  S   S245      1.0  0.012592196888892015  0.38681446269223446  0.5235066915019871  1.0000
  Fe  Fe124     1.0  0.0014595329102304877  0.44578397323345964  0.4296164551810586  1.0000
  S   S246      1.0  0.029974140313655973  0.4643595434091321  0.4112089805722795  1.0000
  S   S247      1.0  0.9555038815959805  0.4132693594346751  0.4723303320631631  1.0000
  S   S248      1.0  0.9652076786192224  0.4535017482033916  0.4139334099698313  1.0000
  Fe  Fe125     1.0  0.9922528191428548  0.29974969301219767  0.16667453370842716  1.0000
  S   S249      1.0  0.9837959528754904  0.263917299299887  0.1684324288750989  1.0000
  S   S250      1.0  0.9928822720003329  0.3144953188652994  0.11103691198976759  1.0000
  Fe  Fe126     1.0  0.00064385158736191  0.3013837284461944  0.24767238186217247  1.0000
  S   S251      1.0  0.9929584588318847  0.26546848057098205  0.25562824326517103  1.0000
  S   S252      1.0  0.01280342600834583  0.31722247129795417  0.29846555161230265  1.0000
  Fe  Fe127     1.0  0.013467598989424845  0.2582343076051147  0.20543550129344473  1.0000
  S   S253      1.0  0.038232740184446  0.22748536150131984  0.19749439391621987  1.0000
  Fe  Fe128     1.0  0.9641285169498102  0.2750252316422024  0.21789867491292392  1.0000
  S   S254      1.0  0.9287237922206132  0.26712293690815925  0.22765855620958242  1.0000
  S   S255      1.0  0.02355700860938237  0.2932591587455566  0.20030900198744359  1.0000
  S   S256      1.0  0.9701236969303927  0.31172393040204427  0.21331094945526236  1.0000
  C   C1        1.0  0.9671419708745363  0.375842426688617  0.3486198672230641  1.0000
  C   C2        1.0  0.9643020986914835  0.37006933485455323  0.3122095589069341  1.0000
  C   C3        1.0  0.9786238202324223  0.35244197028115826  0.29620779308940565  1.0000
  C   C4        1.0  0.9955661450890048  0.3403282390057945  0.31678906332760953  1.0000
  C   C5        1.0  0.9984252096399424  0.34612599365074875  0.3531398568668804  1.0000
  C   C6        1.0  0.9841508279510351  0.3637422561421527  0.369082925156934  1.0000
  H   H1        1.0  0.9512078421625105  0.3794736032846119  0.2962706123877371  1.0000
  H   H2        1.0  0.9766167854756319  0.34835431823123314  0.26793971570613395  1.0000
  H   H3        1.0  0.011411421402847788  0.3367182180913356  0.3692563021273487  1.0000
  H   H4        1.0  0.9859622329982526  0.36757776696056044  0.39747102173637583  1.0000
  C   C7        1.0  0.9369785219874587  0.28792405396773646  0.0443951704307024  1.0000
  C   C8        1.0  0.9345552481198928  0.29047927771760795  0.08191788947234868  1.0000
  C   C9        1.0  0.9515901197066717  0.298895265031678  0.10255876506120115  1.0000
  C   C10       1.0  0.9706468911448131  0.3056333528845057  0.08550365317959313  1.0000
  C   C11       1.0  0.972381985674185  0.30438378205067373  0.047812712622041786  1.0000
  C   C12       1.0  0.9557345801200279  0.2952755285261013  0.027383243811866853  1.0000
  H   H5        1.0  0.919813387984735  0.2854218147969027  0.09518921801475333  1.0000
  H   H6        1.0  0.9499007788795415  0.30032277355650056  0.13164745129481714  1.0000
  H   H7        1.0  0.9868574808252534  0.3099951653366943  0.03444520873335333  1.0000
  H   H8        1.0  0.9573966566526019  0.29424732410037274  0.9984416155917639  1.0000
  C   C13       1.0  0.9693287437787227  0.36026023726142475  0.6114863163208011  1.0000
  C   C14       1.0  0.9599859259014759  0.3652285154853346  0.577263807592075  1.0000
  C   C15       1.0  0.9733400131302413  0.3727719691972703  0.5495295097593842  1.0000
  C   C16       1.0  0.9961597244866367  0.3746266310855867  0.5557743535521552  1.0000
  C   C17       1.0  0.005826847077950115  0.36783340219958544  0.5890943439142836  1.0000
  C   C18       1.0  0.9923582323211406  0.36103511524005183  0.6171073444908484  1.0000
  H   H9        1.0  0.9422487645671176  0.3641867342519943  0.5727012531051563  1.0000
  H   H10       1.0  0.9659634718819439  0.3772080972191946  0.5234574407140634  1.0000
  H   H11       1.0  0.023614121821540213  0.3684246282303433  0.5936903440091845  1.0000
  H   H12       1.0  0.9997583560334353  0.35662159209126837  0.6432710320323208  1.0000
  C   C19       1.0  0.9584294971036081  0.3394955406900176  0.8357166759239402  1.0000
  C   C20       1.0  0.9520652613689157  0.32791756535703176  0.8049884754711384  1.0000
  C   C21       1.0  0.9478854450178342  0.3050761091427812  0.8076554425735571  1.0000
  C   C22       1.0  0.9502346652271575  0.2937077374781553  0.8409189861594446  1.0000
  C   C23       1.0  0.956999108781905  0.3052740947640107  0.871394935361346  1.0000
  C   C24       1.0  0.9609105859469554  0.32815034927912595  0.868896856044024  1.0000
  H   H13       1.0  0.9500761781887009  0.3366103291506594  0.779235990800045  1.0000
  H   H14       1.0  0.9427076181878323  0.2962287275344336  0.7838864494617629  1.0000
  H   H15       1.0  0.9592774483086767  0.29666907715505686  0.8968819646975461  1.0000
  H   H16       1.0  0.9660851840191422  0.33702568092306795  0.8926192603944488  1.0000
  C   C25       1.0  0.10737915573029656  0.23621320884644093  0.24500667189460154  1.0000
  C   C26       1.0  0.09763560556529464  0.21600370547854547  0.24980572298173323  1.0000
  C   C27       1.0  0.07674945272746814  0.21328289174915147  0.2341696687888448  1.0000
  C   C28       1.0  0.06512718835056353  0.2310036858029242  0.21446467400688465  1.0000
  C   C29       1.0  0.07495074560306536  0.2512240731194868  0.20916351336293276  1.0000
  C   C30       1.0  0.09626156653763832  0.2537029171118853  0.22398785247308312  1.0000
  H   H17       1.0  0.10622984739818948  0.20240860405060157  0.26587466068987625  1.0000
  H   H18       1.0  0.06934306981195393  0.19759080204127807  0.23814693217274274  1.0000
  H   H19       1.0  0.06628441993339895  0.2649043915290601  0.19355736348516908  1.0000
  H   H20       1.0  0.10382748719818939  0.2692739705057161  0.2198343455707318  1.0000
  C   C31       1.0  0.08985386513821432  0.43884158616581936  0.48186108099132424  1.0000
  C   C32       1.0  0.08832280194421856  0.4605490417176427  0.46667722699426406  1.0000
  C   C33       1.0  0.07000825496324814  0.4683172956569856  0.44488002843456886  1.0000
  C   C34       1.0  0.05266280618879815  0.45476877374701014  0.43923676740811574  1.0000
  C   C35       1.0  0.05370695105106282  0.43338660530311446  0.4557227244359066  1.0000
  C   C36       1.0  0.07245631861574425  0.42524257594607356  0.4765701149167398  1.0000
  H   H21       1.0  0.10140491230294654  0.4713875698793894  0.47127975024919283  1.0000
  H   H22       1.0  0.06939394406516786  0.48488801426455375  0.43285897946301144  1.0000
  H   H23       1.0  0.04045734561829839  0.4227560848624446  0.45169831167067087  1.0000
  H   H24       1.0  0.0736900799456787  0.4082220066008531  0.4875190728742073  1.0000
  C   C37       1.0  0.1801335353243531  0.40067693831441537  0.3654910022302279  1.0000
  C   C38       1.0  0.1849053946375697  0.3889853516355823  0.33291557729918286  1.0000
  C   C39       1.0  0.17498534778408453  0.3690687023116859  0.3251034208176945  1.0000
  C   C40       1.0  0.16053800053287953  0.3605891571795236  0.3501121705443639  1.0000
  C   C41       1.0  0.15627487710471613  0.37196269763601303  0.38310944556903515  1.0000
  C   C42       1.0  0.16584067112437312  0.39210578253950923  0.3906709694432959  1.0000
  H   H25       1.0  0.1959595832253299  0.3955502047630206  0.31335642533045677  1.0000
  H   H26       1.0  0.178307149085949  0.3604966311701512  0.2995376252037646  1.0000
  H   H27       1.0  0.1455279335098732  0.3651347555417518  0.40285553779573197  1.0000
  H   H28       1.0  0.16229749276771713  0.40087322667824343  0.4160871558797467  1.0000
  C   C43       1.0  0.034371814718762383  0.2326974033859787  0.9467997341765313  1.0000
  C   C44       1.0  0.030049637823574393  0.2329450773827246  0.9095243194145632  1.0000
  C   C45       1.0  0.04596709983447278  0.24003710175528417  0.8853338640932031  1.0000
  C   C46       1.0  0.06571915932199307  0.2478759728538133  0.8985121365948165  1.0000
  C   C47       1.0  0.06993701740869497  0.24768626225121534  0.9357731482311192  1.0000
  C   C48       1.0  0.05450778768775222  0.23969834800959755  0.9597427726508403  1.0000
  H   H29       1.0  0.01461783708397646  0.2273006664902592  0.8993233489332885  1.0000
  H   H30       1.0  0.04273124656344062  0.23975684320154353  0.8565309802091541  1.0000
  H   H31       1.0  0.08516868383095864  0.2535053803182148  0.946310027088956  1.0000
  H   H32       1.0  0.058054325070932444  0.2392012800122968  0.9884114075123142  1.0000
  C   C49       1.0  0.12513339291332773  0.28896385695135685  0.06800309406175842  1.0000
  C   C50       1.0  0.12481132468215927  0.2810676687480704  0.1037115367714121  1.0000
  C   C51       1.0  0.13362798368106615  0.2934017042982339  0.13184501849625657  1.0000
  C   C52       1.0  0.14270356590096817  0.3136627686219013  0.12420169008311162  1.0000
  C   C53       1.0  0.14255846601078986  0.32178037413455524  0.08864278344361337  1.0000
  C   C54       1.0  0.1338099163795225  0.30942607632467617  0.06054688294004129  1.0000
  H   H33       1.0  0.11809235308076034  0.2652307329749358  0.10956895491234708  1.0000
  H   H34       1.0  0.13363619737595542  0.2871097843212661  0.15932573199017797  1.0000
  H   H35       1.0  0.14939379002826025  0.3375588139886251  0.08276038870661927  1.0000
  H   H36       1.0  0.1336339260588789  0.31585287996830025  0.03319991141741907  1.0000
  C   C55       1.0  0.05652940092981118  0.40659450830518995  0.7127836454259328  1.0000
  C   C56       1.0  0.041606324580170106  0.4260777304197323  0.7057747335638926  1.0000
  C   C57       1.0  0.04992547773914514  0.44651566419287236  0.6962806120339146  1.0000
  C   C58       1.0  0.07314592845578419  0.4475092188323596  0.6944810479941723  1.0000
  C   C59       1.0  0.08797242945695702  0.42808770947511043  0.7018721606917795  1.0000
  C   C60       1.0  0.07968637021608838  0.40760126186803686  0.7105489139067466  1.0000
  H   H37       1.0  0.02368619962533014  0.4255734696648877  0.7082273363689442  1.0000
  H   H38       1.0  0.038400529793184424  0.4616046366257122  0.6910722355481178  1.0000
  H   H39       1.0  0.1059185071972491  0.4286621841118823  0.700329721932681  1.0000
  H   H40       1.0  0.09129725957370805  0.3926082702365263  0.716019948690647  1.0000
  C   C61       1.0  0.20457223070881211  0.4860940397269664  0.5643125338839801  1.0000
  C   C62       1.0  0.2213435239378642  0.49341966027846484  0.5864474735939045  1.0000
  C   C63       1.0  0.21895177893484127  0.4935124827758059  0.6240921378892013  1.0000
  C   C64       1.0  0.1997392420532305  0.48635115460140366  0.6399460045614216  1.0000
  C   C65       1.0  0.18270119021316641  0.4792722281389293  0.6179054513877963  1.0000
  C   C66       1.0  0.18515360261908875  0.47908510082264744  0.5799718767208591  1.0000
  H   H41       1.0  0.2363648375045432  0.4988304837386074  0.5744981889978952  1.0000
  H   H42       1.0  0.2321486020215081  0.4989852300149528  0.641032539213862  1.0000
  H   H43       1.0  0.16779289753381796  0.4737579735328315  0.6300565834444736  1.0000
  H   H44       1.0  0.1721540303646961  0.4733081773740978  0.5629927569190853  1.0000
  C   C67       1.0  0.13003397513875514  0.37066222653977604  0.872887210299907  1.0000
  C   C68       1.0  0.1329808563675781  0.3573715451233561  0.8416179736817571  1.0000
  C   C69       1.0  0.14015462681454174  0.36687005680306206  0.8094882531754553  1.0000
  C   C70       1.0  0.1440348318261264  0.3897992899695853  0.8082982192053078  1.0000
  C   C71       1.0  0.14057462659211484  0.4032919649714546  0.8393153145801345  1.0000
  C   C72       1.0  0.13372789629215476  0.39365976617849247  0.8716447910376098  1.0000
  H   H45       1.0  0.12961529733596228  0.33982140302438574  0.8420756412376298  1.0000
  H   H46       1.0  0.1426338155532263  0.35646437097880496  0.7853785408943036  1.0000
  H   H47       1.0  0.14375427108929056  0.420951857426116  0.8386112723474339  1.0000
  H   H48       1.0  0.13156234896054642  0.4039836709673227  0.8958796610880596  1.0000
  C   C73       1.0  0.918124218785519  0.5459637540438765  0.459517602204367  1.0000
  C   C74       1.0  0.9021660693696395  0.5356364104848965  0.47933303186064885  1.0000
  C   C75       1.0  0.9074359311175427  0.5136867686263694  0.4932320347436111  1.0000
  C   C76       1.0  0.9283549065584318  0.5015202979585195  0.4861328424393037  1.0000
  C   C77       1.0  0.9441998564160843  0.5115258018523131  0.4653965734237566  1.0000
  C   C78       1.0  0.9392186031891415  0.5339356853708616  0.4525832042223208  1.0000
  H   H49       1.0  0.8858695195452928  0.5448605822874456  0.484784724055432  1.0000
  H   H50       1.0  0.8951613477631215  0.5060371521065284  0.50924306447009  1.0000
  H   H51       1.0  0.9604424063173492  0.5021959975541445  0.45992706328548916  1.0000
  H   H52       1.0  0.9515795954309485  0.541818355016966  0.4371137779722551  1.0000
  C   C79       1.0  0.9804306470942884  0.7206768337455981  0.3440824966073566  1.0000
  C   C80       1.0  0.9635546050647468  0.7166654066330493  0.31933789601842577  1.0000
  C   C81       1.0  0.9493865933185843  0.6997556029421764  0.32638126084935326  1.0000
  C   C82       1.0  0.952183244173085  0.6867104196458296  0.3580227610322223  1.0000
  C   C83       1.0  0.9687044504798404  0.6911296933289411  0.3831354822662784  1.0000
  C   C84       1.0  0.9827262317476565  0.7081168370093871  0.37622943295761463  1.0000
  H   H53       1.0  0.9615786424404316  0.7263441839168318  0.2945610906767811  1.0000
  H   H54       1.0  0.9365193404140487  0.6965373953786895  0.3069775875101545  1.0000
  H   H55       1.0  0.9703177809303836  0.6818553890765803  0.40829436855108475  1.0000
  H   H56       1.0  0.9950943928617165  0.7117871944581781  0.39613533957672253  1.0000
  C   C85       1.0  0.9704705884707561  0.4776429943617201  0.7299221345046653  1.0000
  C   C86       1.0  0.9897528463929806  0.47187170285107694  0.7509596285563443  1.0000
  C   C87       1.0  0.0011684291065883201  0.48899877527192454  0.7665174271984758  1.0000
  C   C88       1.0  0.993484606051847  0.5119283082554705  0.7606743371491267  1.0000
  C   C89       1.0  0.9745105000527575  0.5177388598517381  0.7390013286542041  1.0000
  C   C90       1.0  0.9629851866183066  0.500604444946312  0.7237464612838153  1.0000
  H   H57       1.0  0.9958711411142052  0.45425947428421826  0.7552822257874555  1.0000
  H   H58       1.0  0.015971329208426033  0.4844689984635778  0.7829613098789715  1.0000
  H   H59       1.0  0.968514359933814  0.535420508344977  0.7343160783421524  1.0000
  H   H60       1.0  0.9481013635509636  0.5051537502279857  0.7074664199624006  1.0000
  C   C91       1.0  0.9489200627071549  0.6123262974647394  0.6299409262727066  1.0000
  C   C92       1.0  0.9708724487213026  0.6182822944342574  0.631707068962063  1.0000
  C   C93       1.0  0.980932079201342  0.6265864615602553  0.601144173002419  1.0000
  C   C94       1.0  0.9693649371142791  0.6284615800318794  0.5682425727963357  1.0000
  C   C95       1.0  0.9473531426077495  0.6225444045800466  0.5661279614742613  1.0000
  C   C96       1.0  0.9370042672659441  0.6147682199755009  0.5971952108140062  1.0000
  H   H61       1.0  0.9803223186451548  0.616398040819686  0.6565319273294398  1.0000
  H   H62       1.0  0.9978910508719355  0.6311081227811082  0.6029259485917728  1.0000
  H   H63       1.0  0.9382673750882482  0.6241813795128522  0.5407490009576407  1.0000
  H   H64       1.0  0.9199274879177354  0.6103932862557326  0.5957844755464862  1.0000
  C   C97       1.0  0.9611919317250202  0.7586191655017255  0.06448472019624485  1.0000
  C   C98       1.0  0.9840337353907631  0.759662898086821  0.05760910448935408  1.0000
  C   C99       1.0  0.9989881531448421  0.7622681434731161  0.08617254619244091  1.0000
  C   C100      1.0  0.9912188165580267  0.7639492637547178  0.12183669326962411  1.0000
  C   C101      1.0  0.9684070410469061  0.7626245592170953  0.12897282601279672  1.0000
  C   C102      1.0  0.9534204167956976  0.75977088833247  0.10027403051372019  1.0000
  H   H65       1.0  0.9903360943730293  0.7582414847008354  0.030248638768318514  1.0000
  H   H66       1.0  0.016618760778861486  0.7630511296119096  0.08053088391213986  1.0000
  H   H67       1.0  0.9623805150319658  0.7636043207159633  0.15655875406293365  1.0000
  H   H68       1.0  0.9358449206108767  0.7585565437257198  0.10578665517907426  1.0000
  C   C103      1.0  0.9723839650353314  0.7087422370566564  0.8448581874663103  1.0000
  C   C104      1.0  0.9759241068103047  0.6971839829331816  0.8118684028667069  1.0000
  C   C105      1.0  0.9760134760902582  0.6734796463592988  0.8101723468049304  1.0000
  C   C106      1.0  0.9723278388819072  0.6611711780311271  0.8414145349487222  1.0000
  C   C107      1.0  0.9688471740085872  0.6727068861703278  0.874530779989655  1.0000
  C   C108      1.0  0.9689212812976544  0.696471977869403  0.876301083793696  1.0000
  H   H69       1.0  0.9786617486157873  0.7065925008974584  0.7874863309424077  1.0000
  H   H70       1.0  0.9787685371136027  0.6648063715815958  0.7845850870214616  1.0000
  H   H71       1.0  0.965985009294618  0.6632758405193439  0.8988162649159082  1.0000
  H   H72       1.0  0.9661927388338529  0.7052781260743078  0.9018699749617769  1.0000
  C   C109      1.0  0.1576658293761072  0.5812995727039902  0.3892941348810933  1.0000
  C   C110      1.0  0.1359091742687365  0.5844138965629332  0.40347318036271146  1.0000
  C   C111      1.0  0.12394997779143882  0.5656905375613511  0.4093910925007231  1.0000
  C   C112      1.0  0.13410324880668842  0.5436519934919444  0.4025335619092068  1.0000
  C   C113      1.0  0.15588941745473647  0.5404451714040645  0.38834647957186474  1.0000
  C   C114      1.0  0.1675553788770499  0.559298879660645  0.38126113354702784  1.0000
  H   H73       1.0  0.12838698133186896  0.6012780743593217  0.41012121230205056  1.0000
  H   H74       1.0  0.10712488193916271  0.5682670809701448  0.42047854747968927  1.0000
  H   H75       1.0  0.1636493996720956  0.5234970003087399  0.38231250554776164  1.0000
  H   H76       1.0  0.18439320175176602  0.5568209505907464  0.37022857670679116  1.0000
  C   C115      1.0  0.06888534907330068  0.6211301711385153  0.4612047987971566  1.0000
  C   C116      1.0  0.04841073103130401  0.6157007723319587  0.4748191272291743  1.0000
  C   C117      1.0  0.034378295218011404  0.603865806246065  0.4532721159793599  1.0000
  C   C118      1.0  0.04071306285924048  0.5973366721933655  0.4180587802605579  1.0000
  C   C119      1.0  0.061679222618631936  0.6018048789205278  0.404946505640757  1.0000
  C   C120      1.0  0.07573155167692916  0.6137369232795926  0.4265783022211763  1.0000
  H   H77       1.0  0.04297612428006971  0.6211070355966156  0.5016365351500011  1.0000
  H   H78       1.0  0.018414663081264927  0.6002386377385552  0.46388903539964543  1.0000
  H   H79       1.0  0.06671578214655702  0.5969124458405307  0.3777068004381202  1.0000
  H   H80       1.0  0.09163823616436781  0.6175081711559256  0.41616412432403965  1.0000
  C   C121      1.0  0.08525874835423913  0.8254362239155199  0.21757157053036735  1.0000
  C   C122      1.0  0.0851170928669449  0.8400622436520258  0.24743274436100554  1.0000
  C   C123      1.0  0.06521324849534754  0.8454717017232534  0.2672582740171578  1.0000
  C   C124      1.0  0.04560288126307823  0.8360564196612137  0.2573282534393326  1.0000
  C   C125      1.0  0.04561887641366315  0.8222151039507669  0.22661189132248516  1.0000
  C   C126      1.0  0.06539141453695815  0.8169126871406636  0.20681280791641843  1.0000
  H   H81       1.0  0.10029880036044356  0.8471324369323455  0.25533784771054624  1.0000
  H   H82       1.0  0.06519196165887962  0.8564048465595224  0.2907835659066311  1.0000
  H   H83       1.0  0.030430002986145083  0.815374048028114  0.21817228213191825  1.0000
  H   H84       1.0  0.06537297354033127  0.805744758132628  0.18365871805657347  1.0000
  C   C127      1.0  0.16307903773038462  0.766082839981288  0.3418876396524668  1.0000
  C   C128      1.0  0.1674144007559853  0.7517118430320707  0.37180606919607645  1.0000
  C   C129      1.0  0.15373205319452002  0.7344109318246297  0.3788674344026263  1.0000
  C   C130      1.0  0.13567367939379157  0.7313667852141642  0.35592693465633857  1.0000
  C   C131      1.0  0.13158889748845948  0.7454292132023744  0.3255791439427646  1.0000
  C   C132      1.0  0.14511068123437984  0.7629217239710788  0.318730474781914  1.0000
  H   H85       1.0  0.18130249450230598  0.7540727198975216  0.3897756882527916  1.0000
  H   H86       1.0  0.1569821990256403  0.7236520828959543  0.40236856289365636  1.0000
  H   H87       1.0  0.11794973851643119  0.7427455555963178  0.3073579490963471  1.0000
  H   H88       1.0  0.14169814105827525  0.7738803556646733  0.29551001262284526  1.0000
  C   C133      1.0  0.17565244565579144  0.5690426527841455  0.8137989210012563  1.0000
  C   C134      1.0  0.1527647689664148  0.5754573673054542  0.8201340418833639  1.0000
  C   C135      1.0  0.13784361488601654  0.5588203980645146  0.8230552991696984  1.0000
  C   C136      1.0  0.14566570600288428  0.5357898832322724  0.8184582279510723  1.0000
  C   C137      1.0  0.1685328771669276  0.529383530402406  0.8121559376477449  1.0000
  C   C138      1.0  0.1835793840270483  0.5459471911971502  0.8107662357249349  1.0000
  H   H89       1.0  0.14662463488679328  0.593234672208614  0.8233369249753099  1.0000
  H   H90       1.0  0.12021314066375006  0.5638578172011555  0.8282673746761299  1.0000
  H   H91       1.0  0.1747182973600825  0.5116092835578556  0.809010538362028  1.0000
  H   H92       1.0  0.20131723503259727  0.5408621386936305  0.8065692233721163  1.0000
  C   C139      1.0  0.08296398562634523  0.6550542133606099  0.764602738777635  1.0000
  C   C140      1.0  0.06082861700339306  0.6524024596748076  0.7743844692310166  1.0000
  C   C141      1.0  0.047157770094520046  0.6413872956602027  0.7506814177470289  1.0000
  C   C142      1.0  0.05572159758490873  0.6330226014403113  0.717418495250008  1.0000
  C   C143      1.0  0.07756237075942655  0.6362505744887764  0.7073064452852907  1.0000
  C   C144      1.0  0.09108182616619226  0.6473206080949228  0.7307990972601119  1.0000
  H   H93       1.0  0.054425790804834714  0.6582764490949348  0.8004867042573635  1.0000
  H   H94       1.0  0.030052606900900183  0.6393481219809242  0.7582312740674234  1.0000
  H   H95       1.0  0.08426070254031984  0.6297985452461861  0.6816507640610289  1.0000
  H   H96       1.0  0.10790743674064499  0.6495710029000465  0.7226385732039782  1.0000
  C   C145      1.0  0.1566982211926173  0.6348416083845096  0.6168169556695531  1.0000
  C   C146      1.0  0.14256992612805247  0.6388142049810553  0.5867450904995127  1.0000
  C   C147      1.0  0.14900957252749117  0.6519416389112281  0.5578689375288638  1.0000
  C   C148      1.0  0.1700071378110625  0.6602964174670392  0.5582661788696999  1.0000
  C   C149      1.0  0.18432021624205536  0.6559291309131767  0.5881178969712727  1.0000
  C   C150      1.0  0.17750253674316646  0.6435535819298864  0.6177076147316516  1.0000
  H   H97       1.0  0.12643117118736996  0.632163653585017  0.5860878366371025  1.0000
  H   H98       1.0  0.13756826095170463  0.6557930752433869  0.5354837230449955  1.0000
  H   H99       1.0  0.20079020387167912  0.6618170216010749  0.588130134063779  1.0000
  H   H100      1.0  0.18856379993558556  0.6402622367016978  0.6407808824053188  1.0000
  C   C151      1.0  0.09687215629840143  0.7878328646448274  0.8945432651890243  1.0000
  C   C152      1.0  0.07498553362872636  0.7870564340750364  0.8813176009976186  1.0000
  C   C153      1.0  0.057539962084881435  0.7831247739008822  0.9050830200461059  1.0000
  C   C154      1.0  0.062092940333343935  0.7795381496599769  0.941932899802773  1.0000
  C   C155      1.0  0.08400144748212966  0.7801100582279176  0.9549781637570264  1.0000
  C   C156      1.0  0.10129488128027303  0.7844753093972011  0.9314319516716097  1.0000
  H   H101      1.0  0.0714840156275225  0.7898129562675821  0.852818166581295  1.0000
  H   H102      1.0  0.040665400633737706  0.7828138324878504  0.8948690281804902  1.0000
  H   H103      1.0  0.08763973623628737  0.7773041912829955  0.9834012180491324  1.0000
  H   H104      1.0  0.11803333311877663  0.7852860237647414  0.9420104023583253  1.0000
  C   C157      1.0  0.17165212833391005  0.7903479566639172  0.06492662903222723  1.0000
  C   C158      1.0  0.16201837469279678  0.7943837973969138  0.09901926371460501  1.0000
  C   C159      1.0  0.17564957265817296  0.7966265035660417  0.12928500303360688  1.0000
  C   C160      1.0  0.19904669548625792  0.7947419205738818  0.12582300284466633  1.0000
  C   C161      1.0  0.20883011439158866  0.7902982337181282  0.0917594143663971  1.0000
  C   C162      1.0  0.19509804155267704  0.7881638295801924  0.06121031306609148  1.0000
  H   H105      1.0  0.14392608740860155  0.7962195637492808  0.10206931670557062  1.0000
  H   H106      1.0  0.16785458571844616  0.7998978815430928  0.15527702179667555  1.0000
  H   H107      1.0  0.22693976744677244  0.7887019924779965  0.08894794869990988  1.0000
  H   H108      1.0  0.20263568217359607  0.7847125982809519  0.03495086887681609  1.0000
  C   C163      1.0  0.21628459171535805  0.7277373618548649  0.8526505472848016  1.0000
  C   C164      1.0  0.20990472163761117  0.7424155013268882  0.8238900834315912  1.0000
  C   C165      1.0  0.20566619449620896  0.7335462931783728  0.7895644132007105  1.0000
  C   C166      1.0  0.20681335043835022  0.7099882011315021  0.7843573272229928  1.0000
  C   C167      1.0  0.21370464433367634  0.6952891402161494  0.812837100353731  1.0000
  C   C168      1.0  0.21888540396635067  0.7041806786173088  0.8467538999077875  1.0000
  H   H109      1.0  0.208440802592556  0.7606016703205674  0.8280219292858254  1.0000
  H   H110      1.0  0.20062230946381676  0.7449849591898372  0.7674897163210078  1.0000
  H   H111      1.0  0.21501115461851125  0.6770659074831766  0.8088118779691487  1.0000
  H   H112      1.0  0.22408278906155762  0.6927737226118136  0.8688347578278336  1.0000
  C   C169      1.0  0.24071793213931034  0.9119546899669062  0.3128412784417625  1.0000
  C   C170      1.0  0.22989258646615832  0.9267057128153414  0.28719052063393413  1.0000
  C   C171      1.0  0.21070328992705062  0.920801758168515  0.2690950232458901  1.0000
  C   C172      1.0  0.202498373090161  0.8999673289967332  0.27610544040883506  1.0000
  C   C173      1.0  0.21322975533691074  0.8852394808369712  0.30192372864255507  1.0000
  C   C174      1.0  0.2322196669248817  0.8913306826983388  0.3204825390528724  1.0000
  H   H113      1.0  0.2360868069471611  0.9428348263293976  0.2817041215744912  1.0000
  H   H114      1.0  0.20231989592540486  0.9323048428644984  0.24934408844006792  1.0000
  H   H115      1.0  0.20683056162903443  0.8692431970238127  0.3077272957184031  1.0000
  H   H116      1.0  0.24052295065908003  0.8799128366309088  0.3404175936509287  1.0000
  C   C175      1.0  0.4151078104095661  0.9203023527568338  0.37455155502584325  1.0000
  C   C176      1.0  0.4197320569014665  0.9423517509862892  0.36652711282877215  1.0000
  C   C177      1.0  0.40297949673699207  0.95802195389579  0.35178139880193776  1.0000
  C   C178      1.0  0.3817041272025325  0.9515186108373492  0.3440886148177598  1.0000
  C   C179      1.0  0.37734120927786013  0.9290895210261778  0.3501892747636458  1.0000
  C   C180      1.0  0.39409642643797793  0.9134489655192202  0.3655201510634269  1.0000
  H   H117      1.0  0.43627871193015416  0.9473601812289785  0.3716686833020358  1.0000
  H   H118      1.0  0.4065097604186735  0.9752694140346497  0.3464647379876789  1.0000
  H   H119      1.0  0.3608812369320891  0.9240153524041985  0.34431732553440597  1.0000
  H   H120      1.0  0.3905340128542392  0.8963141239116243  0.3715769745986567  1.0000
  C   C181      1.0  0.2575718112719329  0.880766179854769  0.9732058724931232  1.0000
  C   C182      1.0  0.253672642188178  0.8578539069883576  0.9750246651110673  1.0000
  C   C183      1.0  0.23611211014336853  0.8499536274925962  0.9549605114369616  1.0000
  C   C184      1.0  0.22228987719550666  0.8650254329529363  0.9332821247248211  1.0000
  C   C185      1.0  0.22611611712383617  0.8879521698407181  0.9317182168836745  1.0000
  C   C186      1.0  0.2436869316330413  0.8958350726373089  0.95170337455525  1.0000
  H   H121      1.0  0.26444784592337844  0.8461314340356264  0.9916064572745987  1.0000
  H   H122      1.0  0.23344660703547815  0.8321967256630838  0.9559723177906895  1.0000
  H   H123      1.0  0.21537977247601467  0.8996905378184051  0.9150872382989101  1.0000
  H   H124      1.0  0.2463782357272397  0.9135964216766886  0.9505838562667036  1.0000
  C   C187      1.0  0.3407019071462106  0.9516971049651114  0.08620089352976823  1.0000
  C   C188      1.0  0.3297563073584157  0.9320626367870315  0.08324563749924585  1.0000
  C   C189      1.0  0.3246945201359997  0.9201911446113192  0.11442157610691966  1.0000
  C   C190      1.0  0.33001472283447353  0.9282909282494636  0.1486162786014336  1.0000
  C   C191      1.0  0.3409496944022634  0.9479433924167036  0.1515435131977922  1.0000
  C   C192      1.0  0.34656524967456825  0.9594717874213152  0.12034110861360392  1.0000
  H   H125      1.0  0.3253369149458072  0.9258703999993082  0.056899302860256906  1.0000
  H   H126      1.0  0.31634939897031494  0.9049321957038566  0.11194776452239137  1.0000
  H   H127      1.0  0.34545345906190295  0.9540782607717985  0.17769598932956052  1.0000
  H   H128      1.0  0.35516489625647546  0.9745743876038474  0.12259180229680555  1.0000
  C   C193      1.0  0.42514366278814336  0.9283286539690272  0.6444646681534403  1.0000
  C   C194      1.0  0.4216819532731322  0.9520958197268884  0.645830759361788  1.0000
  C   C195      1.0  0.42257851397876806  0.9649133221888547  0.6140975587167662  1.0000
  C   C196      1.0  0.42724472321617707  0.9539896661807775  0.580934304475839  1.0000
  C   C197      1.0  0.43003680214008577  0.9302138765161806  0.5793406812293866  1.0000
  C   C198      1.0  0.4287886480069293  0.9173945569032026  0.6110243204401583  1.0000
  H   H129      1.0  0.4179858132661869  0.9606103452012877  0.6712891064682618  1.0000
  H   H130      1.0  0.42005101591048966  0.98328784283087  0.6154726579596196  1.0000
  H   H131      1.0  0.4330084696725981  0.9216103676160671  0.553811267761994  1.0000
  H   H132      1.0  0.4312529532736823  0.899001657079744  0.6098160221467297  1.0000
  C   C199      1.0  0.39969336553245033  0.9697161767658616  0.8430481200871867  1.0000
  C   C200      1.0  0.38810098311008945  0.9755319147885108  0.8752804843895372  1.0000
  C   C201      1.0  0.3684454094452532  0.9656298637673069  0.8838144053779454  1.0000
  C   C202      1.0  0.3600628334641157  0.950300393811717  0.8597009846437985  1.0000
  C   C203      1.0  0.37142634166043054  0.9449043342803417  0.827179340393048  1.0000
  C   C204      1.0  0.39125568583720055  0.9544627296719128  0.8189668446881907  1.0000
  H   H133      1.0  0.3947167301482758  0.9871403408656328  0.8941532449766265  1.0000
  H   H134      1.0  0.3600085283142976  0.9695942970085931  0.9092167598500399  1.0000
  H   H135      1.0  0.3650326402656927  0.9330889015665669  0.8084059517436126  1.0000
  H   H136      1.0  0.3999598569441477  0.9500399970130817  0.7938897496722446  1.0000
  C   C205      1.0  0.24390296218798568  0.24773061910816674  0.23911937594238322  1.0000
  C   C206      1.0  0.26658055501652617  0.24190915227941384  0.23030291336053038  1.0000
  C   C207      1.0  0.27464702177679373  0.219291934719824  0.22199077612634355  1.0000
  C   C208      1.0  0.2599526725685637  0.20247794857890788  0.22202229608226134  1.0000
  C   C209      1.0  0.23706016641879185  0.20851315646093269  0.22922940596000188  1.0000
  C   C210      1.0  0.22904248064030294  0.23109075116303618  0.23793966176479753  1.0000
  H   H137      1.0  0.27800971808938346  0.25487330602422026  0.23052408174189484  1.0000
  H   H138      1.0  0.29222555231077024  0.21487158760862463  0.2157817727497196  1.0000
  H   H139      1.0  0.22559598369722683  0.1955698750030063  0.22915420313953738  1.0000
  H   H140      1.0  0.21150053026772442  0.2354389514548319  0.24473953593364314  1.0000
  C   C211      1.0  0.3255106501494831  0.06959522992200373  0.2671972781963786  1.0000
  C   C212      1.0  0.3288640802585804  0.047423211260037235  0.2808569366740453  1.0000
  C   C213      1.0  0.3142651751307988  0.03141741439624557  0.2711482852705758  1.0000
  C   C214      1.0  0.29619557687282516  0.037461980069841694  0.2476788939477132  1.0000
  C   C215      1.0  0.2927510157197257  0.05966553285535903  0.23401141462870917  1.0000
  C   C216      1.0  0.307375189926842  0.07573420201422132  0.2438057876350209  1.0000
  H   H141      1.0  0.3427635059386494  0.04257903836337462  0.29908416942138794  1.0000
  H   H142      1.0  0.3169637875369244  0.014459326476496503  0.2822218856383766  1.0000
  H   H143      1.0  0.278689040574628  0.0644942163012725  0.21613123017592017  1.0000
  H   H144      1.0  0.30444760130731685  0.09289919006732794  0.23363854115279836  1.0000
  C   C217      1.0  0.4554641193190843  0.05736846484200897  0.4380521298658729  1.0000
  C   C218      1.0  0.47888900638442855  0.05677255984825824  0.4362936762905602  1.0000
  C   C219      1.0  0.49206757345965557  0.03656631009167266  0.42679119004800825  1.0000
  C   C220      1.0  0.48182529975781474  0.016881896029369292  0.41967058597449475  1.0000
  C   C221      1.0  0.45839693955436317  0.017600116856127945  0.42095692800507484  1.0000
  C   C222      1.0  0.44521207227529225  0.03783493476936539  0.43005610375493375  1.0000
  H   H145      1.0  0.4869678017248586  0.07160243485228746  0.44340647849968673  1.0000
  H   H146      1.0  0.5102060488593911  0.03603744785184171  0.42600023012081684  1.0000
  H   H147      1.0  0.45038654818937307  0.0026777084294982156  0.4142656368541035  1.0000
  H   H148      1.0  0.4270902665190392  0.03826960790494094  0.4311673820760428  1.0000
  C   C223      1.0  0.435908648116378  0.1718420954607955  0.3370670478476095  1.0000
  C   C224      1.0  0.4283679771612741  0.16956422799581802  0.301431197445768  1.0000
  C   C225      1.0  0.4056893908127887  0.17586467051159  0.2924536870562966  1.0000
  C   C226      1.0  0.39054574411051735  0.1847851891526381  0.3189969124288354  1.0000
  C   C227      1.0  0.3981888398605069  0.18746943208095573  0.35446686821970064  1.0000
  C   C228      1.0  0.4207773694872363  0.18083214238371037  0.3635592221828664  1.0000
  H   H149      1.0  0.4400143546195531  0.16273571952858007  0.28076739488637165  1.0000
  H   H150      1.0  0.40002195122878154  0.17413073298431894  0.2648615735255948  1.0000
  H   H151      1.0  0.3866129679583059  0.19456222309071264  0.3750372002358504  1.0000
  H   H152      1.0  0.4265601219301758  0.18317179525000932  0.39092387535703044  1.0000
  C   C229      1.0  0.22283733580587656  0.19268050710367593  0.921414002599376  1.0000
  C   C230      1.0  0.23619810162872673  0.20748090586010925  0.9044497346748382  1.0000
  C   C231      1.0  0.22781539160658307  0.2304265502947511  0.8990786213446696  1.0000
  C   C232      1.0  0.20618562770189458  0.23869968946290016  0.9110278086334329  1.0000
  C   C233      1.0  0.19321893813920957  0.22405534205422278  0.9290879669583169  1.0000
  C   C234      1.0  0.20141953208353972  0.2010889642592205  0.9339394991493494  1.0000
  H   H153      1.0  0.2527129097362408  0.2011106859424363  0.8945964744403259  1.0000
  H   H154      1.0  0.23802568657876494  0.24167382022795197  0.8852565001611904  1.0000
  H   H155      1.0  0.1769557961620217  0.23043401820462472  0.939552619423628  1.0000
  H   H156      1.0  0.1912481981269589  0.18978634553329513  0.9477286327649488  1.0000
  C   C235      1.0  0.28970633753465663  0.06486358135342685  0.9977993964671071  1.0000
  C   C236      1.0  0.27029314832843143  0.06830207240371644  0.9764279243153348  1.0000
  C   C237      1.0  0.25933767491335835  0.0496346428949872  0.9654390594205204  1.0000
  C   C238      1.0  0.26796565077048184  0.02758098034612355  0.9755339263574039  1.0000
  C   C239      1.0  0.2868866553187788  0.02430191245585256  0.9980682973620083  1.0000
  C   C240      1.0  0.29770139315626415  0.04293703479935762  0.009286521862351904  1.0000
  H   H157      1.0  0.26385248945366213  0.085277392876703  0.9679644972190962  1.0000
  H   H158      1.0  0.24463652893889812  0.052202102555785945  0.948133622409006  1.0000
  H   H159      1.0  0.2934502640161575  0.007343449715671246  0.006336826730523937  1.0000
  H   H160      1.0  0.3128305751922378  0.040227682219143635  0.02556792232296967  1.0000
  C   C241      1.0  0.34227670569426255  0.1768886086512702  0.030722716541662143  1.0000
  C   C242      1.0  0.3422450768909954  0.19026237849599895  0.06214209043041041  1.0000
  C   C243      1.0  0.3503629231702241  0.18052582465626554  0.09507294408144044  1.0000
  C   C244      1.0  0.35921665502550826  0.15761183322138966  0.09620278333095579  1.0000
  C   C245      1.0  0.35961983673613185  0.1444650747526275  0.06465339861124919  1.0000
  C   C246      1.0  0.35083019216235534  0.15394321245871187  0.03223689416083064  1.0000
  H   H161      1.0  0.33567176851987707  0.20804143767548375  0.06115513128124683  1.0000
  H   H162      1.0  0.3503022761408815  0.19082914482719845  0.11932245273962563  1.0000
  H   H163      1.0  0.3666333634581877  0.12679350531964795  0.06537241863033127  1.0000
  H   H164      1.0  0.3511622124672949  0.1434767139097474  0.008351724486499235  1.0000
  C   C247      1.0  0.4570704693777517  0.04370972373614168  0.6649419312794985  1.0000
  C   C248      1.0  0.4799018854738996  0.04509828539572336  0.6714642926931392  1.0000
  C   C249      1.0  0.49436211375003397  0.025411768671888213  0.6784679727639356  1.0000
  C   C250      1.0  0.4858074862151694  0.004449017509350561  0.6800638071394821  1.0000
  C   C251      1.0  0.46338473497776234  0.0027784848726697398  0.6704901946810374  1.0000
  C   C252      1.0  0.4489597337810471  0.02248742272599391  0.6626905098989329  1.0000
  H   H165      1.0  0.48636302169446105  0.06141374543123379  0.6723783606043131  1.0000
  H   H166      1.0  0.5118428321804396  0.026683846446099002  0.6846983995159174  1.0000
  H   H167      1.0  0.45703637477579767  0.9863870004922166  0.6699248653171056  1.0000
  H   H168      1.0  0.4313511880029056  0.021359810283814618  0.6570262430381757  1.0000
  C   C253      1.0  0.46181788088760334  0.1768773818496096  0.6441321389590017  1.0000
  C   C254      1.0  0.45851061114596214  0.1578730182348208  0.6228287679500423  1.0000
  C   C255      1.0  0.45373799292413314  0.16050739334697262  0.5856333312810894  1.0000
  C   C256      1.0  0.4519341041165172  0.1821903331055021  0.5699653244920828  1.0000
  C   C257      1.0  0.4548938148669762  0.20112016528883522  0.5914722988298503  1.0000
  C   C258      1.0  0.46005891782281977  0.1984469214096803  0.6283137962107315  1.0000
  H   H169      1.0  0.45949125944017544  0.14120862538436751  0.6349791907393317  1.0000
  H   H170      1.0  0.4509710212478738  0.14588891324821318  0.5692824625847607  1.0000
  H   H171      1.0  0.4533274651703046  0.21791435514097163  0.5795366567613129  1.0000
  H   H172      1.0  0.46253323821043  0.21317547023697303  0.6446619887357518  1.0000
  C   C259      1.0  0.4057495091671341  0.11123463296851081  0.8315369406509169  1.0000
  C   C260      1.0  0.3923901133678496  0.11649282240903328  0.8009494684305223  1.0000
  C   C261      1.0  0.36882242737634485  0.1189648499362313  0.8038604142566007  1.0000
  C   C262      1.0  0.3584924764053036  0.11653932514472187  0.8374301518484768  1.0000
  C   C263      1.0  0.37184246664738446  0.11076562922823834  0.8678776056533464  1.0000
  C   C264      1.0  0.39540541909229565  0.10803051535583996  0.8648900087921482  1.0000
  H   H173      1.0  0.40015595647836316  0.11900299356900645  0.775137196766075  1.0000
  H   H174      1.0  0.3585660091294979  0.1233001656170987  0.7801428218391068  1.0000
  H   H175      1.0  0.3640548572441299  0.10824299509505347  0.8936545673050723  1.0000
  H   H176      1.0  0.4056920856187724  0.10367268591774692  0.8885623515572513  1.0000
  C   C265      1.0  0.5840898417153458  0.8916810291240851  0.43565468001090096  1.0000
  C   C266      1.0  0.5881238038228577  0.8967522312969566  0.4719634634609791  1.0000
  C   C267      1.0  0.5701520230351561  0.8997811835612648  0.49646519793281924  1.0000
  C   C268      1.0  0.5481733861527669  0.8979740663071355  0.4845067302666366  1.0000
  C   C269      1.0  0.5443063505769835  0.8920949975084617  0.448564637661451  1.0000
  C   C270      1.0  0.5622809410996691  0.8887246521668232  0.42425589564343547  1.0000
  H   H177      1.0  0.6050472464814532  0.8983924899627342  0.48111356104065783  1.0000
  H   H178      1.0  0.5732460360825794  0.9039859209438  0.5244201980496136  1.0000
  H   H179      1.0  0.527489297861954  0.8898734058791296  0.43953735173151387  1.0000
  H   H180      1.0  0.5591850560809559  0.8844641136603131  0.39630902464513024  1.0000
  C   C271      1.0  0.8990057266049649  0.8862064555908635  0.23125060602332767  1.0000
  C   C272      1.0  0.9203096791140291  0.8777994143923638  0.24446815883625775  1.0000
  C   C273      1.0  0.9261930556641128  0.8542630879844397  0.2483931732727297  1.0000
  C   C274      1.0  0.9107087846475171  0.8391046396994518  0.23923660069933733  1.0000
  C   C275      1.0  0.8894818332701433  0.8474946839081918  0.22585133622662837  1.0000
  C   C276      1.0  0.8837257739528317  0.8709640563703623  0.22155114175007645  1.0000
  H   H181      1.0  0.9322306591509127  0.8895177058034732  0.25194724242711825  1.0000
  H   H182      1.0  0.9426211248515779  0.8478910049982705  0.2588125845311634  1.0000
  H   H183      1.0  0.8775376704969946  0.8357973402692065  0.21840130531231824  1.0000
  H   H184      1.0  0.8675765505561915  0.8771906000453502  0.21021744398965134  1.0000
  C   C277      1.0  0.7678247789937006  0.9315164155507293  0.31746851389844155  1.0000
  C   C278      1.0  0.7541266552142855  0.9301256073650134  0.28702667473448035  1.0000
  C   C279      1.0  0.7310321288577888  0.9286377003643912  0.29118964581982365  1.0000
  C   C280      1.0  0.7215137581019752  0.9283895167292545  0.32577311647235524  1.0000
  C   C281      1.0  0.7351709842362574  0.9297575901497068  0.35633623837704936  1.0000
  C   C282      1.0  0.7583209573554615  0.9313316439602167  0.3521500333848583  1.0000
  H   H185      1.0  0.7613054930589469  0.9300354043134436  0.26023873972081585  1.0000
  H   H186      1.0  0.7205151930127933  0.9275438907758691  0.26749171349736084  1.0000
  H   H187      1.0  0.7279229934659597  0.9295409558951397  0.3831126269484591  1.0000
  H   H188      1.0  0.7688697256315581  0.932348807507089  0.37580988116143765  1.0000
  C   C283      1.0  0.578627348096698  0.9219206881125424  0.8143871952713475  1.0000
  C   C284      1.0  0.5631826759659059  0.9305316708000723  0.7878831438996204  1.0000
  C   C285      1.0  0.5415717948340818  0.9232452008391728  0.7866572528141825  1.0000
  C   C286      1.0  0.5356815895574636  0.9069597376856098  0.811394488375694  1.0000
  C   C287      1.0  0.5512403209727226  0.8982993185662699  0.8375436987997575  1.0000
  C   C288      1.0  0.5724705874440107  0.9060911999540658  0.8394806887239271  1.0000
  H   H189      1.0  0.5677323966120957  0.9429686581567579  0.7687222581894589  1.0000
  H   H190      1.0  0.529557770166074  0.9299996056470871  0.7664057066004312  1.0000
  H   H191      1.0  0.5466664402438985  0.8858700722317465  0.8568407477064183  1.0000
  H   H192      1.0  0.584266884803418  0.8995857114582136  0.8602395563802487  1.0000
  C   C289      1.0  0.6442998516366929  0.9013635462678868  0.6111696328648925  1.0000
  C   C290      1.0  0.6380076334553919  0.896946885872456  0.5755194391853123  1.0000
  C   C291      1.0  0.6525988649326266  0.9002828041360922  0.5467633412860151  1.0000
  C   C292      1.0  0.6735603302514055  0.9078905092450977  0.5536268852771931  1.0000
  C   C293      1.0  0.680198613090509  0.9113605815054782  0.5894088837182269  1.0000
  C   C294      1.0  0.6655686941394252  0.9081980025940984  0.6181206727736047  1.0000
  H   H193      1.0  0.6216746736924409  0.8914197796239559  0.5700111673108338  1.0000
  H   H194      1.0  0.6476801317803699  0.8967704364250808  0.5193323948956606  1.0000
  H   H195      1.0  0.6965112077471441  0.9169388300525116  0.5949135961302691  1.0000
  H   H196      1.0  0.6707452783303705  0.9111814518587101  0.6456441144373662  1.0000
  C   C295      1.0  0.8722520083893924  0.8500518884673886  0.9008116924622993  1.0000
  C   C296      1.0  0.8821900807147257  0.8664353197666277  0.9206771251086945  1.0000
  C   C297      1.0  0.9055510760071246  0.8640352856924767  0.9262131735379181  1.0000
  C   C298      1.0  0.9189499685320319  0.8450970166661426  0.9123348100661892  1.0000
  C   C299      1.0  0.909000869342828  0.8286982316234506  0.8924746168816949  1.0000
  C   C300      1.0  0.8856679568463955  0.831170369174509  0.8867708264566104  1.0000
  H   H197      1.0  0.8718889636747964  0.8807411518829599  0.932353880221807  1.0000
  H   H198      1.0  0.9132202187998689  0.8766575721186581  0.9418214184074646  1.0000
  H   H199      1.0  0.9193200740730211  0.8141885485863576  0.8813112846993397  1.0000
  H   H200      1.0  0.8780071610829004  0.8184412028173224  0.8713893417182383  1.0000
  C   C301      1.0  0.8102025392016945  0.9342094554902078  0.03328221201697423  1.0000
  C   C302      1.0  0.8135577320529576  0.9104270959400728  0.03206053527452579  1.0000
  C   C303      1.0  0.8103708332315761  0.8977399938159407  0.06331224591010899  1.0000
  C   C304      1.0  0.8041745863521572  0.9089258385492267  0.09575747037411682  1.0000
  C   C305      1.0  0.8008391256967435  0.932690078835617  0.09683360113412272  1.0000
  C   C306      1.0  0.8038050196112267  0.9453182312502755  0.06563593195309902  1.0000
  H   H201      1.0  0.8190366069249457  0.901809872542584  0.007326541704126388  1.0000
  H   H202      1.0  0.8132298309175355  0.8793625990989061  0.06262634862056404  1.0000
  H   H203      1.0  0.7959374000642201  0.9414029420750427  0.12181616834465094  1.0000
  H   H204      1.0  0.8010874700068294  0.9636844643544191  0.06675767801156085  1.0000
  C   C307      1.0  0.7302339505764566  0.9236201947264155  0.8469987941472942  1.0000
  C   C308      1.0  0.7448566052042143  0.9292107715337068  0.8197847734674555  1.0000
  C   C309      1.0  0.7362297516379607  0.9374958841369161  0.7864553477130148  1.0000
  C   C310      1.0  0.7129739379583752  0.9404756257541833  0.7804054338724945  1.0000
  C   C311      1.0  0.6983217381130654  0.9349418602192221  0.8076202820670897  1.0000
  C   C312      1.0  0.7069665121648673  0.9264837824828742  0.8409027296549011  1.0000
  H   H205      1.0  0.7628069792362314  0.9270090779822403  0.8242458193081902  1.0000
  H   H206      1.0  0.747558411195624  0.9413983767178208  0.765169856687095  1.0000
  H   H207      1.0  0.6803327463164619  0.9372602682096665  0.803088594548511  1.0000
  H   H208      1.0  0.6955997810460762  0.922181460544606  0.8618871209434661  1.0000
  C   C313      1.0  0.5957200313082203  0.1153419447294167  0.3997856274714082  1.0000
  C   C314      1.0  0.5990315364605577  0.12668819004334594  0.4322743774906259  1.0000
  C   C315      1.0  0.5816050436656163  0.13001262685636064  0.457770003747333  1.0000
  C   C316      1.0  0.5607271490840144  0.12219686435680639  0.45078305083121434  1.0000
  C   C317      1.0  0.5575955707042615  0.11027933217005148  0.4187754863089164  1.0000
  C   C318      1.0  0.5750066600741871  0.10702717771241187  0.3931909952209771  1.0000
  H   H209      1.0  0.6148000995774163  0.13343331305751213  0.4374153128434231  1.0000
  H   H210      1.0  0.584191949278658  0.13908230213860018  0.4826395295188841  1.0000
  H   H211      1.0  0.541751580741228  0.10359594362538632  0.41372412750750265  1.0000
  H   H212      1.0  0.5724588795693537  0.09802610800147266  0.36824417318560376  1.0000
  C   C319      1.0  0.6778011532121908  0.043219053590125345  0.4611852288619907  1.0000
  C   C320      1.0  0.6572980491973492  0.05143878633741594  0.4450780492592764  1.0000
  C   C321      1.0  0.6409644547698585  0.03670444992202837  0.4383872644467983  1.0000
  C   C322      1.0  0.6452803939070858  0.013708153844208981  0.4473530205343741  1.0000
  C   C323      1.0  0.6653674664053344  0.005723689063581894  0.4648484577946922  1.0000
  C   C324      1.0  0.6815687233435077  0.020513737997142734  0.4720967872915829  1.0000
  H   H213      1.0  0.6541269338757859  0.06903974023164354  0.4369699762463013  1.0000
  H   H214      1.0  0.625355774830902  0.04301324070962642  0.42507864176327353  1.0000
  H   H215      1.0  0.6684905131969814  0.9881275554271317  0.4726607169536895  1.0000
  H   H216      1.0  0.6973986155709335  0.014130203292947119  0.48462604916668667  1.0000
  C   C325      1.0  0.9179244933124038  0.19203636331801552  0.21896915822922478  1.0000
  C   C326      1.0  0.9397878527546887  0.1985012439959988  0.2200302747403968  1.0000
  C   C327      1.0  0.9432353178205333  0.2215417913904056  0.22259877030859698  1.0000
  C   C328      1.0  0.9247852858021764  0.238192848036925  0.2246301960957797  1.0000
  C   C329      1.0  0.9029156569936394  0.2317487673203424  0.2238514583318966  1.0000
  C   C330      1.0  0.8994683708942932  0.2086943474345103  0.22085990086958385  1.0000
  H   H217      1.0  0.9541214660946165  0.18564368730095407  0.21890918955149344  1.0000
  H   H218      1.0  0.9601573679528387  0.22638554479800083  0.22344754762785185  1.0000
  H   H219      1.0  0.8885940518772381  0.24460730126365055  0.22538341842247844  1.0000
  H   H220      1.0  0.8825562760120507  0.20383529913790638  0.2201257559920703  1.0000
  C   C331      1.0  0.861386519947495  0.04964139297485315  0.19760265712046385  1.0000
  C   C332      1.0  0.8429345938586351  0.05665273096388134  0.17544106542666135  1.0000
  C   C333      1.0  0.8285342405813978  0.04083745996678312  0.1640413728212491  1.0000
  C   C334      1.0  0.8326017259263545  0.018074332911216073  0.17490707769674627  1.0000
  C   C335      1.0  0.8516519081297254  0.010900141676035702  0.1956090555814769  1.0000
  C   C336      1.0  0.8660677660064275  0.026685880555103566  0.20690643245890175  1.0000
  H   H221      1.0  0.839534374441584  0.07430343063995559  0.1676254757766742  1.0000
  H   H222      1.0  0.8138686489123862  0.04637122725713305  0.1477710827818887  1.0000
  H   H223      1.0  0.8550700865986625  0.9932745980884935  0.20352155446598624  1.0000
  H   H224      1.0  0.880473583505695  0.02117712364186075  0.2237615635101982  1.0000
  C   C337      1.0  0.7886877701073357  0.1381029032599263  0.3030616776584645  1.0000
  C   C338      1.0  0.7793400969753367  0.13262236266825725  0.3362133691720897  1.0000
  C   C339      1.0  0.7587347150458938  0.1233132401865891  0.33723610733479725  1.0000
  C   C340      1.0  0.7473387562402187  0.11952710652478132  0.30506937293379444  1.0000
  C   C341      1.0  0.7567593689401102  0.12485286023060237  0.2718885370319014  1.0000
  C   C342      1.0  0.7773471390180388  0.13419663709336097  0.2708605411293887  1.0000
  H   H225      1.0  0.7881741960959753  0.13543200339957429  0.3611662653433892  1.0000
  H   H226      1.0  0.7518192272297287  0.11890818369912079  0.36289004580449347  1.0000
  H   H227      1.0  0.7479142298399659  0.12212584559871824  0.24691177998488265  1.0000
  H   H228      1.0  0.7841960438708396  0.13880195633003162  0.24520187517961287  1.0000
  C   C343      1.0  0.5809836793151579  0.12924292464370693  0.6937322214420681  1.0000
  C   C344      1.0  0.5891526553596288  0.10690789308599755  0.7029639228364783  1.0000
  C   C345      1.0  0.5748820954361592  0.09272385213150121  0.7196437757147125  1.0000
  C   C346      1.0  0.5523488239970153  0.10076588226038992  0.7265475437293348  1.0000
  C   C347      1.0  0.5442703596881553  0.12310296444938724  0.7173524331633883  1.0000
  C   C348      1.0  0.558607916055862  0.13734252182058795  0.7013040042388461  1.0000
  H   H229      1.0  0.6062544278233278  0.10034635776453611  0.6964903837338304  1.0000
  H   H230      1.0  0.5811931364834537  0.07538825213829106  0.726342003226692  1.0000
  H   H231      1.0  0.5269664189124678  0.12951012280505325  0.722846293091813  1.0000
  H   H232      1.0  0.5523098639033792  0.1546960942661001  0.6947431893972964  1.0000
  C   C349      1.0  0.6645603692790375  0.051309031017079836  0.6584514496618563  1.0000
  C   C350      1.0  0.6422142411171352  0.06094575407866376  0.6545862581107625  1.0000
  C   C351      1.0  0.6245359941200903  0.04828234084123628  0.6636092785032282  1.0000
  C   C352      1.0  0.6292651647488351  0.02625208573911486  0.6773646705787434  1.0000
  C   C353      1.0  0.6516214219182723  0.017024078660950348  0.6823776897862279  1.0000
  C   C354      1.0  0.6692524656282511  0.02933026362727298  0.6721887321329284  1.0000
  H   H233      1.0  0.6385369278337595  0.07803527242256494  0.6441677075301236  1.0000
  H   H234      1.0  0.6072601257059002  0.05555088029019828  0.6599421666576445  1.0000
  H   H235      1.0  0.6554631956377288  0.00041824499069953447  0.6942232645697778  1.0000
  H   H236      1.0  0.6865176093786516  0.022042242041504064  0.6759417852595305  1.0000
  C   C355      1.0  0.6963061903367269  0.17536775970153737  0.5692717681968554  1.0000
  C   C356      1.0  0.7102191807264941  0.18803634934013982  0.5490512185635662  1.0000
  C   C357      1.0  0.709281323621828  0.1878526781400441  0.5111656831235994  1.0000
  C   C358      1.0  0.6946838808402153  0.17468482132218072  0.4931884532897792  1.0000
  C   C359      1.0  0.6804865852621215  0.16219631184849392  0.5132763566695382  1.0000
  C   C360      1.0  0.6811417737623653  0.16274095533008506  0.5513455532407283  1.0000
  H   H237      1.0  0.7218220477432481  0.19798910458710103  0.5627638327330249  1.0000
  H   H238      1.0  0.7201355544846708  0.19770042011313993  0.4958159533822237  1.0000
  H   H239      1.0  0.6687108143012342  0.15250889083657854  0.4995489377112984  1.0000
  H   H240      1.0  0.6698058029015967  0.15359731807053506  0.5667551563657813  1.0000
  C   C361      1.0  0.8535960337014284  0.157501538814177  0.9038233321335936  1.0000
  C   C362      1.0  0.8592331472877063  0.17990522655133484  0.9052446509837092  1.0000
  C   C363      1.0  0.8811324460762716  0.18427096550104824  0.9149814012571007  1.0000
  C   C364      1.0  0.8974634933910817  0.166210760766351  0.9233028109832434  1.0000
  C   C365      1.0  0.8919519451850975  0.14381712513338615  0.9207819662309815  1.0000
  C   C366      1.0  0.8701494936801311  0.13945443932345242  0.9108610219109425  1.0000
  H   H241      1.0  0.8464897583642205  0.19394335047236547  0.899805099575609  1.0000
  H   H242      1.0  0.8851936559864153  0.20158821160452925  0.9169467879318716  1.0000
  H   H243      1.0  0.9045299541588606  0.12976445814172172  0.9270523199668137  1.0000
  H   H244      1.0  0.866061935977426  0.12211065994418822  0.9094475573273177  1.0000
  C   C367      1.0  0.8554370861518231  0.016706306078227314  0.8835668497646817  1.0000
  C   C368      1.0  0.8620904575750877  0.9942127947638018  0.8937333198915627  1.0000
  C   C369      1.0  0.8540414177738235  0.9762620964461081  0.8746466147552168  1.0000
  C   C370      1.0  0.8399143738490199  0.9807209327579973  0.8446398571388944  1.0000
  C   C371      1.0  0.8339182900636769  0.0031970116638817547  0.8336480080093432  1.0000
  C   C372      1.0  0.8412463105971247  0.021218525791846913  0.8536146179706952  1.0000
  H   H245      1.0  0.8730483012740226  0.9906960229188471  0.9168761338537559  1.0000
  H   H246      1.0  0.8590386272891807  0.9590068425917008  0.8830182703987857  1.0000
  H   H247      1.0  0.8232475653725654  0.00672042113085114  0.8102049947735058  1.0000
  H   H248      1.0  0.8361614023250278  0.038600287993882265  0.845579866514987  1.0000
  C   C373      1.0  0.7978872506083436  0.09979283018712642  0.04924128000493577  1.0000
  C   C374      1.0  0.7955451853065664  0.1222213342897329  0.03677536191669173  1.0000
  C   C375      1.0  0.8011535121196538  0.1397916289162014  0.05943706999682475  1.0000
  C   C376      1.0  0.8100366679482343  0.13486549552574686  0.09400733265426382  1.0000
  C   C377      1.0  0.8125451705161942  0.11239901231993202  0.10638684884101351  1.0000
  C   C378      1.0  0.8060829086166091  0.09491656382086415  0.0842562821149091  1.0000
  H   H249      1.0  0.7890294247214871  0.1260604036488275  0.00985815449723182  1.0000
  H   H250      1.0  0.7988781858984314  0.15716912284452902  0.049909603910371025  1.0000
  H   H251      1.0  0.8195389541950446  0.1084586431441178  0.13288294709734833  1.0000
  H   H252      1.0  0.807904199661819  0.07759177129868346  0.09400554168921849  1.0000
  C   C379      1.0  0.7426599092086028  0.08961316227503059  0.8256691339449534  1.0000
  C   C380      1.0  0.7322285213168872  0.08612871804362064  0.7923994187939875  1.0000
  C   C381      1.0  0.7144453411265711  0.10167096967697295  0.7799587578191716  1.0000
  C   C382      1.0  0.7068380274555948  0.12065739099552424  0.80093916947252  1.0000
  C   C383      1.0  0.7170797865451725  0.12401738310677729  0.8344415647604815  1.0000
  C   C384      1.0  0.7350544972618951  0.10857783706091038  0.8467255007913536  1.0000
  H   H253      1.0  0.7380476632394531  0.07152735064842042  0.7759207818642508  1.0000
  H   H254      1.0  0.7065129339941562  0.09882831552364928  0.7542351246326497  1.0000
  H   H255      1.0  0.7111241067776054  0.1386018433984353  0.8508767526498544  1.0000
  H   H256      1.0  0.7428230441124245  0.11122027612095262  0.8726198074551723  1.0000
  N   N1        1.0  0.29065973811784107  0.012486693677677962  0.12214264457897794  1.0000
  C   C385      1.0  0.2939348742152268  0.994973075306897  0.09346810184507848  1.0000
  C   C386      1.0  0.2686549143293377  0.011332066250350659  0.139747134124927  1.0000
  C   C387      1.0  0.29125774249886355  0.03524235727293901  0.1059428404044167  1.0000
  C   C388      1.0  0.3088166064487684  0.008440855988949725  0.14940231611801136  1.0000
  H   H257      1.0  0.3100420959411451  0.9959278153924422  0.07885402629004745  1.0000
  H   H258      1.0  0.2802290383153498  0.9970880122540954  0.07287291149486608  1.0000
  H   H259      1.0  0.29444328444736706  0.9774814566969835  0.10478326007771299  1.0000
  H   H260      1.0  0.26537921725581093  0.024775281967743368  0.1608343986095302  1.0000
  H   H261      1.0  0.25458266689093356  0.013613221646069817  0.11984930139446681  1.0000
  H   H262      1.0  0.267963824797088  0.9947040367938013  0.1535625715190796  1.0000
  H   H263      1.0  0.28860724689818534  0.048878095902427976  0.1268166623098943  1.0000
  H   H264      1.0  0.2780038622921935  0.0387223786356139  0.08479348197918357  1.0000
  H   H265      1.0  0.3077763312955222  0.036761929749629996  0.09286067799288666  1.0000
  H   H266      1.0  0.3070768611944109  0.02159592318569592  0.17115078630664415  1.0000
  H   H267      1.0  0.3256967747084938  0.008712821472199428  0.1369327773588056  1.0000
  H   H268      1.0  0.3085179654523188  0.9916453583714032  0.16285113405383456  1.0000
  N   N2        1.0  0.07714151178621109  0.7880666713744533  0.08679481057299698  1.0000
  C   C389      1.0  0.06986089457510455  0.7745379377981596  0.11734094869171963  1.0000
  C   C390      1.0  0.09755501305152048  0.7760341790456505  0.07009038490252784  1.0000
  C   C391      1.0  0.08223856576935135  0.8104900713101508  0.1002839396382742  1.0000
  C   C392      1.0  0.05892003871517536  0.7912137547551227  0.0595089129972417  1.0000
  H   H269      1.0  0.0661382678919101  0.7573694210887167  0.10835179391786331  1.0000
  H   H270      1.0  0.054203473727519824  0.7829310219584703  0.13006158630826214  1.0000
  H   H271      1.0  0.08297849530214542  0.7722733190528955  0.13891276421115428  1.0000
  H   H272      1.0  0.1038329699902707  0.7860566747083874  0.047483279301700376  1.0000
  H   H273      1.0  0.1115519503843717  0.772993137281245  0.09005723207771155  1.0000
  H   H274      1.0  0.09426046478884287  0.7592551669265785  0.05881907967711908  1.0000
  H   H275      1.0  0.0674245801009358  0.8198720476887503  0.1139293649287132  1.0000
  H   H276      1.0  0.0874473823318427  0.8213152810379272  0.07790983499671378  1.0000
  H   H277      1.0  0.09623022832756219  0.8086791516525216  0.12043447963793197  1.0000
  H   H278      1.0  0.06383123167019847  0.8010784452696181  0.03571716619135068  1.0000
  H   H279      1.0  0.04327209775773701  0.8003462701270871  0.07104801454967569  1.0000
  H   H280      1.0  0.054537212218327503  0.7745846375268058  0.04901438168833372  1.0000
  N   N3        1.0  0.05251049303144928  0.6534238390674189  0.5898448074541256  1.0000
  C   C393      1.0  0.03878191042146795  0.6620235058728968  0.558409048316739  1.0000
  C   C394      1.0  0.07517807881176197  0.6610732618926296  0.5873506768835098  1.0000
  C   C395      1.0  0.05459159536494984  0.6282852730282426  0.5900520593331413  1.0000
  C   C396      1.0  0.04149963183504979  0.662279045190689  0.6235663994108043  1.0000
  H   H281      1.0  0.036568806716507085  0.680924696923139  0.557579686387631  1.0000
  H   H282      1.0  0.02169359607111221  0.656221445590083  0.559181282721932  1.0000
  H   H283      1.0  0.04669688584731224  0.6559536374145558  0.5324423448966475  1.0000
  H   H284      1.0  0.086009275411836  0.654724256050893  0.6105980308735545  1.0000
  H   H285      1.0  0.08391831262195204  0.6547095537272565  0.5621071251533046  1.0000
  H   H286      1.0  0.07431099318637746  0.6799505331286729  0.5871366516448857  1.0000
  H   H287      1.0  0.06434191491908203  0.6212561853614058  0.614019036816349  1.0000
  H   H288      1.0  0.06319212182052358  0.6210827642460128  0.5651941943133573  1.0000
  H   H289      1.0  0.037797224185542655  0.621869533861999  0.5912569995975415  1.0000
  H   H290      1.0  0.03878099765530618  0.6811808694277025  0.6237521529288814  1.0000
  H   H291      1.0  0.05181344125460852  0.6568856777673009  0.6477611967782274  1.0000
  H   H292      1.0  0.024822861981634192  0.6558770736182084  0.6272791183200586  1.0000
  N   N4        1.0  0.9483080575541303  0.21999716783080392  0.10597356545680335  1.0000
  C   C397      1.0  0.9315238977140861  0.23511968543462197  0.12654310925749349  1.0000
  C   C398      1.0  0.9365357836398838  0.2044931660925957  0.0831039670020344  1.0000
  C   C399      1.0  0.9635057340096872  0.20650345943640713  0.13142921844195457  1.0000
  C   C400      1.0  0.9615727211251925  0.23379487380565195  0.08268450382196846  1.0000
  H   H293      1.0  0.9396517550827197  0.2473883194191709  0.14375463842857777  1.0000
  H   H294      1.0  0.9214782372161141  0.22527747462083378  0.1448935999998556  1.0000
  H   H295      1.0  0.9195508031481586  0.24525062812916956  0.10810679906057237  1.0000
  H   H296      1.0  0.924934731563529  0.2141961774141855  0.06354591516505548  1.0000
  H   H297      1.0  0.9486666555414548  0.19287505924534612  0.0670433413221192  1.0000
  H   H298      1.0  0.9263347387885188  0.19383326630578226  0.09981181199736142  1.0000
  H   H299      1.0  0.976824233269665  0.1954262744702213  0.11686211809087761  1.0000
  H   H300      1.0  0.9541068898080599  0.1953199852533115  0.14850980656544246  1.0000
  H   H301      1.0  0.9720608259827423  0.21764756554429857  0.15003383601393358  1.0000
  H   H302      1.0  0.97487212929289  0.22301936229821023  0.06754988246064819  1.0000
  H   H303      1.0  0.9699093514447529  0.24644965460228377  0.09865757939052937  1.0000
  H   H304      1.0  0.9506987438080559  0.24344283454053162  0.062262118568698455  1.0000
  N   N5        1.0  0.04970163518268156  0.26557910182006633  0.07893016352501551  1.0000
  C   C401      1.0  0.033019916397383  0.2691875959449021  0.0492954476258729  1.0000
  C   C402      1.0  0.03835179582002013  0.2593742967435664  0.112349757780284  1.0000
  C   C403      1.0  0.06018208610084419  0.286763852982656  0.08517215709995056  1.0000
  C   C404      1.0  0.06722679702671064  0.24702849615784486  0.06898227432888282  1.0000
  H   H305      1.0  0.025062045202761896  0.25343286239932605  0.04325177196817043  1.0000
  H   H306      1.0  0.040950056113914  0.274340565405259  0.02382365296582512  1.0000
  H   H307      1.0  0.01935594321237466  0.282805266365538  0.05633538421266815  1.0000
  H   H308      1.0  0.05049664013536015  0.25632575520221096  0.13515536276838624  1.0000
  H   H309      1.0  0.025189964279773713  0.2731248558075946  0.12082327796736643  1.0000
  H   H310      1.0  0.030126808786042014  0.24354375362941752  0.10872901000811085  1.0000
  H   H311      1.0  0.07284375091652762  0.2846956494846155  0.1074295479390568  1.0000
  H   H312      1.0  0.04736285687994979  0.30115123103661384  0.09260701860770286  1.0000
  H   H313      1.0  0.06911910269251331  0.29184736644602816  0.06057449995013031  1.0000
  H   H314      1.0  0.059959839341117815  0.2307101122285279  0.06456405683420297  1.0000
  H   H315      1.0  0.0803869725638291  0.24421982210364732  0.09040393976612313  1.0000
  H   H316      1.0  0.07589975601159948  0.25103299372372234  0.04358677205471873  1.0000
  N   N6        1.0  0.2456132095576794  0.42792462194945285  0.4488243322292128  1.0000
  C   C405      1.0  0.23494409254384072  0.4473806872490747  0.42765495865840025  1.0000
  C   C406      1.0  0.26986575501407783  0.4242876765495209  0.4402685548000692  1.0000
  C   C407      1.0  0.23497440311113124  0.40726872905436967  0.4393099200525781  1.0000
  C   C408      1.0  0.24264851357089504  0.43284090225709004  0.4879143140088567  1.0000
  H   H317      1.0  0.23673799010866622  0.44434482307590695  0.3979693537443997  1.0000
  H   H318      1.0  0.24215104551798455  0.4634365030910347  0.43444394892636207  1.0000
  H   H319      1.0  0.2166490433997704  0.45024942372281634  0.433184981208209  1.0000
  H   H320      1.0  0.27835596376131894  0.43960806331106445  0.44698794237143324  1.0000
  H   H321      1.0  0.27847911612861365  0.4097087067293489  0.4557803612232435  1.0000
  H   H322      1.0  0.2726314123978896  0.42058604739325534  0.4109385627014091  1.0000
  H   H323      1.0  0.24260625606767786  0.3921315578366787  0.4545433351969492  1.0000
  H   H324      1.0  0.236523008166141  0.40336087739995063  0.40982433638794874  1.0000
  H   H325      1.0  0.2166299766814409  0.40942217901471517  0.4452822161307103  1.0000
  H   H326      1.0  0.250115797888401  0.4485744955796955  0.4958904793889478  1.0000
  H   H327      1.0  0.25054247288228565  0.41860570671352343  0.5048825724610314  1.0000
  H   H328      1.0  0.2245425713985688  0.4357172495105354  0.4953657647925545  1.0000
  N   N7        1.0  0.7850769802637834  0.14659269809464007  0.8023439967840408  1.0000
  C   C409      1.0  0.7759645452187012  0.14926860958336416  0.8394166667027518  1.0000
  C   C410      1.0  0.7793542538777233  0.12489469110850526  0.7867976579435307  1.0000
  C   C411      1.0  0.8098086015654307  0.1465083707204091  0.8036145601422103  1.0000
  C   C412      1.0  0.7751270031252852  0.1657000271270696  0.7796753546337802  1.0000
  H   H329      1.0  0.7805062309590657  0.16513601054960506  0.8524807571713257  1.0000
  H   H330      1.0  0.7828742066894291  0.13491696857994837  0.8569399348504008  1.0000
  H   H331      1.0  0.7573054880277388  0.14978957315673194  0.839590139964352  1.0000
  H   H332      1.0  0.7864641293490647  0.12194232611335946  0.7591919902233067  1.0000
  H   H333      1.0  0.7859382794211623  0.11010737497379429  0.8038803790274989  1.0000
  H   H334      1.0  0.7607991510881738  0.12466923679146287  0.7846031652300478  1.0000
  H   H335      1.0  0.817375169223422  0.14461117488218325  0.7761654946240348  1.0000
  H   H336      1.0  0.8178029936637343  0.13230548857156055  0.8206054169381864  1.0000
  H   H337      1.0  0.814733855384308  0.16249599219373798  0.8157926567243498  1.0000
  H   H338      1.0  0.7815911361297462  0.16421859031490513  0.7514481401023243  1.0000
  H   H339      1.0  0.7790664440290146  0.18234080371519037  0.7907285018863679  1.0000
  H   H340      1.0  0.7564453104332758  0.16620204051518198  0.7782443289362884  1.0000
  N   N8        1.0  0.6461558411223864  0.9799440660301401  0.5657080639575333  1.0000
  C   C413      1.0  0.6321355320505655  0.9934306393131266  0.5387167291599542  1.0000
  C   C414      1.0  0.6344172446609374  0.9605485926363755  0.577584096718666  1.0000
  C   C415      1.0  0.6500609777520818  0.9944850978968579  0.5972002587083736  1.0000
  C   C416      1.0  0.6679817900795219  0.9712742819392336  0.5493864174371319  1.0000
  H   H341      1.0  0.6402786834008961  0.008465175790868695  0.5296283716321407  1.0000
  H   H342      1.0  0.6154267188175707  0.9999078028301577  0.5500724181829347  1.0000
  H   H343      1.0  0.6291924764160457  0.9831151867739842  0.514243328890599  1.0000
  H   H344      1.0  0.6445231405821032  0.9501046997201875  0.5980006896234306  1.0000
  H   H345      1.0  0.6178991639801579  0.9663113998962942  0.590238232045898  1.0000
  H   H346      1.0  0.6314390868664159  0.9490346134423648  0.554582689145486  1.0000
  H   H347      1.0  0.661338971928476  0.9851527400733257  0.617502251423304  1.0000
  H   H348      1.0  0.6340139618285037  0.0005208393116244991  0.6111645881834324  1.0000
  H   H349      1.0  0.6581221482395223  0.009796935918420902  0.5891533296538591  1.0000
  H   H350      1.0  0.6787996322753347  0.9606192306898066  0.5688647524496261  1.0000
  H   H351      1.0  0.6775229901308506  0.9853873802371766  0.5405427606367581  1.0000
  H   H352      1.0  0.6656769638100895  0.9603156736791808  0.5254011069186121  1.0000
  N   N9        1.0  0.3953734592146978  0.9334814491582281  0.2341866923327402  1.0000
  C   C417      1.0  0.39165082869150614  0.9586203043507909  0.23474065137532643  1.0000
  C   C418      1.0  0.374898653094337  0.9241506121814796  0.24698768671182425  1.0000
  C   C419      1.0  0.41445491129249706  0.925645005870127  0.2582797214811538  1.0000
  C   C420      1.0  0.40041434673030013  0.9255018558813393  0.1968273856576221  1.0000
  H   H353      1.0  0.4067255282132315  0.9663033662729713  0.2251691902062464  1.0000
  H   H354      1.0  0.3878350043987495  0.965218053782203  0.2625800173538073  1.0000
  H   H355      1.0  0.377212605184451  0.9651520614104109  0.21720172740431057  1.0000
  H   H356      1.0  0.3603426321399675  0.9290286801236991  0.22877075603569028  1.0000
  H   H357      1.0  0.37725232719249735  0.9052396072281593  0.24817603245589917  1.0000
  H   H358      1.0  0.37010239029199316  0.9305685696046947  0.27450881781136816  1.0000
  H   H359      1.0  0.41775799702210226  0.9067501996047843  0.2586308772269347  1.0000
  H   H360      1.0  0.4110549532330255  0.9312520476956548  0.2867108296049085  1.0000
  H   H361      1.0  0.4302018557124011  0.9325009696539558  0.24970954094189102  1.0000
  H   H362      1.0  0.4031325842321849  0.906591249522309  0.19542008167860597  1.0000
  H   H363      1.0  0.4157911727762937  0.932180531085875  0.1862071324594103  1.0000
  H   H364      1.0  0.3863012341537473  0.9311251353134726  0.1779825007315909  1.0000
  N   N10       1.0  0.3271547692176397  0.04266063657734719  0.8978048673426002  1.0000
  C   C421      1.0  0.33337883537887936  0.06329075200894252  0.879537360951181  1.0000
  C   C422      1.0  0.3370835315195788  0.022149840077818613  0.8782041953544806  1.0000
  C   C423      1.0  0.30238669901082665  0.043146252960870594  0.8981680959601391  1.0000
  C   C424      1.0  0.3357086753270741  0.04208639136298208  0.9354284088531589  1.0000
  H   H365      1.0  0.3262380373541291  0.07906655585899214  0.893807787145902  1.0000
  H   H366      1.0  0.32692477532309183  0.06458310072003029  0.851220797328998  1.0000
  H   H367      1.0  0.35194807908248266  0.06351432283032261  0.8785682027403413  1.0000
  H   H368      1.0  0.33238745662360103  0.006315927477255068  0.8910059755369991  1.0000
  H   H369      1.0  0.3311696014708321  0.022083584479806184  0.8496168538337654  1.0000
  H   H370      1.0  0.355799339193229  0.020906876300244678  0.8779418099505842  1.0000
  H   H371      1.0  0.297008527583849  0.028027166802396142  0.912330737237378  1.0000
  H   H372      1.0  0.29529245154022643  0.04329039477394513  0.8702811321340863  1.0000
  H   H373      1.0  0.29434769087130197  0.058556610840144734  0.9123244633280334  1.0000
  H   H374      1.0  0.33083398659303664  0.027056849596651663  0.9503680074697546  1.0000
  H   H375      1.0  0.32885684370872553  0.05752210699185767  0.9508109368711486  1.0000
  H   H376      1.0  0.35438413018871423  0.04122845891232218  0.9363118967846601  1.0000
  N   N11       1.0  0.5295520314110129  0.15025718831044327  0.5957540186301438  1.0000
  C   C425      1.0  0.5412352337794147  0.16408149258677285  0.5701543199548912  1.0000
  C   C426      1.0  0.5109708578009734  0.14064523651310812  0.5767789938155135  1.0000
  C   C427      1.0  0.5203625606265886  0.16474324861793493  0.626076069028466  1.0000
  C   C428      1.0  0.5456533405879379  0.13156769847771396  0.6098660656897997  1.0000
  H   H377      1.0  0.5484389283314359  0.1535973345585735  0.5470201568684824  1.0000
  H   H378      1.0  0.5553516052244416  0.1716633492659999  0.5836030342262498  1.0000
  H   H379      1.0  0.5295204011472875  0.17821563157332576  0.5586650264433715  1.0000
  H   H380      1.0  0.5013093923762751  0.13069284197988082  0.5955182560473811  1.0000
  H   H381      1.0  0.49893456691430066  0.15431123662677504  0.5647305549990314  1.0000
  H   H382      1.0  0.5173593420980569  0.12918397499033793  0.554263759777513  1.0000
  H   H383      1.0  0.5078826093455234  0.17882180111896218  0.6163909424036038  1.0000
  H   H384      1.0  0.5338745415732408  0.17252993480703585  0.6407571297648927  1.0000
  H   H385      1.0  0.5115742351180722  0.15483782787207276  0.6461705108799809  1.0000
  H   H386      1.0  0.5376641693687729  0.12122108780164548  0.6302871433849457  1.0000
  H   H387      1.0  0.5603287762426011  0.13824987753860885  0.6231238155527552  1.0000
  H   H388      1.0  0.5523985205080013  0.11994835345679764  0.5877597209637936  1.0000
  N   N12       1.0  0.565687937734959  0.964153831471459  0.410959252594098  1.0000
  C   C429      1.0  0.5801008087478027  0.9637383556212028  0.37849311944155317  1.0000
  C   C430      1.0  0.5791185454629848  0.954407868628481  0.44192856394654534  1.0000
  C   C431      1.0  0.5468503925426617  0.9505029606510814  0.40406400873799864  1.0000
  C   C432      1.0  0.556772615882946  0.9878823261493287  0.4193673766981866  1.0000
  H   H389      1.0  0.5705165618601594  0.9710274559418556  0.35459640689642175  1.0000
  H   H390      1.0  0.587047480112137  0.9459964758157766  0.37141438785397507  1.0000
  H   H391      1.0  0.5946170107295298  0.9737168490353318  0.38294248237777273  1.0000
  H   H392      1.0  0.5684670082622073  0.9525625623960704  0.4661653876640407  1.0000
  H   H393      1.0  0.5876217294387528  0.9372859503422293  0.4351724368609932  1.0000
  H   H394      1.0  0.5924923980045579  0.9651596769745884  0.44960972434823615  1.0000
  H   H395      1.0  0.5530691789702771  0.9326056701577806  0.39703766838187676  1.0000
  H   H396      1.0  0.5359995524639154  0.9576402137699199  0.3813704553808754  1.0000
  H   H397      1.0  0.535871373073189  0.9500612507460338  0.4282705033598082  1.0000
  H   H398      1.0  0.5456840868697784  0.988742369496738  0.4435940888310077  1.0000
  H   H399      1.0  0.5464790421500408  0.995753781308782  0.3965622430754894  1.0000
  H   H400      1.0  0.5706089377370488  0.9986223556667505  0.42474010334619494  1.0000
  N   N13       1.0  0.8541517497432165  0.8847581239771012  0.3312925616670871  1.0000
  C   C433      1.0  0.8593680809206673  0.9053473917853462  0.31191855981444244  1.0000
  C   C434      1.0  0.8369917311436983  0.873753117328703  0.31087614951188036  1.0000
  C   C435      1.0  0.8453262191221295  0.8912861120331343  0.36760471751068846  1.0000
  C   C436      1.0  0.8748680510892447  0.8687297540473655  0.33460138618643026  1.0000
  H   H401      1.0  0.8725873010109924  0.9138929647046081  0.3260439331623951  1.0000
  H   H402      1.0  0.8442396039848075  0.9179989492349374  0.30915520738730395  1.0000
  H   H403      1.0  0.865632686757368  0.901101656951773  0.28423641278274664  1.0000
  H   H404      1.0  0.8322657613445139  0.8584454932185059  0.3251462658120449  1.0000
  H   H405      1.0  0.8212951868474951  0.8855950307966244  0.30707964752272543  1.0000
  H   H406      1.0  0.8432383561614746  0.8681792931492768  0.2835532350745991  1.0000
  H   H407      1.0  0.8577167696254828  0.8998567018812218  0.3836928239084055  1.0000
  H   H408      1.0  0.8411897012396922  0.8762017967028268  0.383128040992938  1.0000
  H   H409      1.0  0.8296111365001698  0.9033303319620586  0.36559484869487474  1.0000
  H   H410      1.0  0.8716068903422355  0.8528412839872938  0.34876273952819575  1.0000
  H   H411      1.0  0.8882112327478139  0.8764328309140846  0.3498709626322234  1.0000
  H   H412      1.0  0.8819536091641645  0.8637385110111085  0.30745639698634303  1.0000
  N   N14       1.0  0.8845366146338667  0.8958957820745277  0.8129693494704407  1.0000
  C   C437      1.0  0.9017510012607108  0.8911928202551669  0.8415899661216748  1.0000
  C   C438      1.0  0.8775410085626842  0.9206396381054968  0.8112828536642608  1.0000
  C   C439      1.0  0.8648021906912248  0.8838542743321535  0.8213302911413829  1.0000
  C   C440      1.0  0.8940097753645299  0.8878917875614405  0.7777213061080491  1.0000
  H   H413      1.0  0.8952903289818473  0.897559457013768  0.868382237607845  1.0000
  H   H414      1.0  0.9171347235007284  0.8995513312035125  0.8358255018985414  1.0000
  H   H415      1.0  0.9069763666500859  0.8726023582814382  0.8444248714478778  1.0000
  H   H416      1.0  0.8644057984771941  0.9248922724782624  0.7901697383647487  1.0000
  H   H417      1.0  0.8702452499693487  0.9272130600535938  0.8374484972362733  1.0000
  H   H418      1.0  0.8919377698171667  0.9303901002896976  0.8050966177202166  1.0000
  H   H419      1.0  0.8693178086286307  0.865088019120889  0.8225874348993307  1.0000
  H   H420      1.0  0.8512140203550042  0.8873546706409762  0.8007668057061561  1.0000
  H   H421      1.0  0.8574892881204983  0.8891734839102394  0.8480147893547284  1.0000
  H   H422      1.0  0.881375272393651  0.8911113608317816  0.7555835559105466  1.0000
  H   H423      1.0  0.8995169330695949  0.8692724942179141  0.7782218558725804  1.0000
  H   H424      1.0  0.9088933359167077  0.8966906481055926  0.7704615609653934  1.0000
  N   N15       1.0  0.604197360054397  0.865268532074326  0.743783230706288  1.0000
  C   C441      1.0  0.6234737438238477  0.8599472865518341  0.7190558756043388  1.0000
  C   C442      1.0  0.5905769195081167  0.8862150416506441  0.7315099373896962  1.0000
  C   C443      1.0  0.6125453844135396  0.8687354585598955  0.7808944006633981  1.0000
  C   C444      1.0  0.5900963497494605  0.8462640749890927  0.7436739785698926  1.0000
  H   H425      1.0  0.6177945381170801  0.8574688270391999  0.6906954421490871  1.0000
  H   H426      1.0  0.6342320458509989  0.8442793833533093  0.7274271653039892  1.0000
  H   H427      1.0  0.6343399042688744  0.8740392795873745  0.7182292874879574  1.0000
  H   H428      1.0  0.5752312881572366  0.8900938343559636  0.7483748863636761  1.0000
  H   H429      1.0  0.6003508711748838  0.9010649406650428  0.7334119643428121  1.0000
  H   H430      1.0  0.5851974035163936  0.8848767742055855  0.7027676942261843  1.0000
  H   H431      1.0  0.5984004955714668  0.8724909046090242  0.8002601630090621  1.0000
  H   H432      1.0  0.6227369107778453  0.8834002289472044  0.7822379719051028  1.0000
  H   H433      1.0  0.6232847535595697  0.8534757577416557  0.790934025570968  1.0000
  H   H434      1.0  0.5834521710750283  0.8433146286564593  0.7160679771176756  1.0000
  H   H435      1.0  0.5753629687342345  0.8498238450099651  0.7620602594104757  1.0000
  H   H436      1.0  0.5998119667234885  0.830149304463844  0.752839311547314  1.0000
  N   N16       1.0  0.899832246264285  0.3217106457881605  0.929903593826698  1.0000
  C   C445      1.0  0.9019107397376213  0.2972251527515261  0.9208742078251612  1.0000
  C   C446      1.0  0.8790168275463388  0.3276816475498972  0.9509282852630151  1.0000
  C   C447      1.0  0.8989302068420635  0.33517494603139114  0.8961399997266283  1.0000
  C   C448      1.0  0.9194226380855004  0.32663957005387634  0.9519071284228914  1.0000
  H   H437      1.0  0.9024575482333186  0.2866520320802486  0.9458053438505283  1.0000
  H   H438      1.0  0.9175114659081789  0.29192480581414865  0.90527087516454  1.0000
  H   H439      1.0  0.8875303204961507  0.29280517290985086  0.9040720969176065  1.0000
  H   H440      1.0  0.8638597226278384  0.3240188469199023  0.9353430186546854  1.0000
  H   H441      1.0  0.8792921382087238  0.3177384844260692  0.9765974491148047  1.0000
  H   H442      1.0  0.8768726091462348  0.34604983298175374  0.958300392017255  1.0000
  H   H443      1.0  0.9141384253801658  0.33064749053215575  0.8792303216481625  1.0000
  H   H444      1.0  0.8979163932287895  0.35374837738161463  0.9018179244505365  1.0000
  H   H445      1.0  0.8841389475592758  0.33209308771055984  0.879191735002008  1.0000
  H   H446      1.0  0.9186212105845254  0.3450227262582532  0.9588672336785344  1.0000
  H   H447      1.0  0.9354937799313717  0.3218917235977281  0.9373713753569157  1.0000
  H   H448      1.0  0.9203269441667669  0.3169435663896338  0.9777852873905147  1.0000
  N   N17       1.0  0.21703927513647858  0.7403258557052564  0.26424224278831826  1.0000
  C   C449      1.0  0.22200541938214644  0.7348735991310664  0.30268938317069266  1.0000
  C   C450      1.0  0.193087667258128  0.7381221105935152  0.2567183978244851  1.0000
  C   C451      1.0  0.23129558005653872  0.7244655893049945  0.24075158824427864  1.0000
  C   C452      1.0  0.22170210474858465  0.7638954917657682  0.2567698515596538  1.0000
  H   H449      1.0  0.2398991847275327  0.7364691726944868  0.3094971171792869  1.0000
  H   H450      1.0  0.21851105420719816  0.7172731052292669  0.3094336964638018  1.0000
  H   H451      1.0  0.2114664036938953  0.7466095404874701  0.321045917916829  1.0000
  H   H452      1.0  0.18867366819580883  0.7421200715188042  0.2279461278408151  1.0000
  H   H453      1.0  0.18882525930480176  0.7206438609574664  0.2624741202270231  1.0000
  H   H454      1.0  0.18193591583177715  0.7500070127576103  0.2738389741105093  1.0000
  H   H455      1.0  0.24949708057140094  0.7256161676764402  0.24581244355607945  1.0000
  H   H456      1.0  0.22799513535778856  0.7283433292928062  0.2115704286336867  1.0000
  H   H457      1.0  0.22808514945466296  0.706518595257655  0.24542794869100987  1.0000
  H   H458      1.0  0.23966547995162837  0.7661942144943186  0.26171654600193295  1.0000
  H   H459      1.0  0.21145352586073124  0.7762698382496134  0.27441762065397146  1.0000
  H   H460      1.0  0.21773573149696654  0.7687911315025462  0.2281532427544317  1.0000
  N   N18       1.0  0.9695031292314901  0.5636609831135141  0.8752340482353753  1.0000
  C   C453      1.0  0.9727253803063103  0.5557096927285536  0.9129726037407524  1.0000
  C   C454      1.0  0.9901049288190117  0.5728979927389766  0.8627635833595501  1.0000
  C   C455      1.0  0.9503149245541977  0.581705928787424  0.873503010909988  1.0000
  C   C456      1.0  0.964956894787253  0.5443827056032158  0.8517435621130935  1.0000
  H   H461      1.0  0.9574895336975362  0.5486160906689554  0.9233012825301676  1.0000
  H   H462      1.0  0.9762013999502351  0.5698887880786405  0.9313286115617095  1.0000
  H   H463      1.0  0.9871519041696893  0.5421639495909382  0.9152367495533269  1.0000
  H   H464      1.0  0.9880350425329979  0.5792779393683748  0.8346394822270973  1.0000
  H   H465      1.0  0.9940704115132074  0.5875669916121795  0.8796817194798578  1.0000
  H   H466      1.0  0.004928523580454591  0.5597392812622389  0.8629881413734907  1.0000
  H   H467      1.0  0.9474318281102256  0.5882111974838383  0.8454353908404655  1.0000
  H   H468      1.0  0.9534041885365304  0.5966963850300728  0.8904028834896779  1.0000
  H   H469      1.0  0.9344276181755207  0.5754911271807727  0.8828349498182204  1.0000
  H   H470      1.0  0.9625341734883373  0.5497353324569925  0.8230129748790918  1.0000
  H   H471      1.0  0.9495364342668521  0.5369110071731565  0.8602575509137923  1.0000
  H   H472      1.0  0.9792517131598004  0.5305971420689632  0.8520029953442609  1.0000
  N   N19       1.0  0.9383216970017695  0.4330342072212375  0.6039714594115375  1.0000
  C   C457      1.0  0.9304561899371494  0.4202384109881977  0.634890745859858  1.0000
  C   C458      1.0  0.9631469272220272  0.42934385359433436  0.6021159515769821  1.0000
  C   C459      1.0  0.9310898405287973  0.4575594074273369  0.608857121903425  1.0000
  C   C460      1.0  0.9286155324025257  0.42501684693162206  0.5700508212788586  1.0000
  H   H473      1.0  0.9376903047879149  0.4255966106984407  0.6609156519180283  1.0000
  H   H474      1.0  0.9354637643993798  0.4016526144195305  0.6319086681605932  1.0000
  H   H475      1.0  0.9118250905237066  0.4227868228093182  0.6374329394705593  1.0000
  H   H476      1.0  0.9695932541611445  0.43793082753480256  0.5781190217888921  1.0000
  H   H477      1.0  0.9709529017412837  0.4360075979529875  0.6267964873189238  1.0000
  H   H478      1.0  0.9692421107434259  0.41092355400278463  0.6000103736884698  1.0000
  H   H479      1.0  0.9368144521703012  0.4676743743135342  0.5859581978125505  1.0000
  H   H480      1.0  0.9380113919841012  0.464080006551184  0.6344309182545449  1.0000
  H   H481      1.0  0.9124392464508495  0.460998157772177  0.6101830046954535  1.0000
  H   H482      1.0  0.9334657501842459  0.4065302402646097  0.5657826512503051  1.0000
  H   H483      1.0  0.9345488684185413  0.43395348243579474  0.5460585643126533  1.0000
  H   H484      1.0  0.9099200095450859  0.4279597999147684  0.5701550824424012  1.0000
  N   N20       1.0  0.265544251141949  0.8798592305087993  0.20691755237332718  1.0000
  C   C461      1.0  0.2799083017446991  0.8680367005880804  0.17867110534681588  1.0000
  C   C462      1.0  0.24629572675250325  0.8669018023433537  0.21442712684641538  1.0000
  C   C463      1.0  0.2571155602162457  0.9029209121850548  0.19420419638631758  1.0000
  C   C464      1.0  0.27888531108156683  0.8816520754537508  0.2403730858707668  1.0000
  H   H485      1.0  0.2946028589016137  0.8774129488971584  0.17240370361101937  1.0000
  H   H486      1.0  0.27041508240485174  0.8664899638943538  0.15298201584319812  1.0000
  H   H487      1.0  0.2866101060671779  0.8505919086102424  0.187377727528759  1.0000
  H   H488      1.0  0.23510150433386268  0.8754580402834441  0.23546919748107686  1.0000
  H   H489      1.0  0.23576604357087724  0.8652243933577518  0.18986850863656418  1.0000
  H   H490      1.0  0.2519527883107221  0.8494581092211978  0.22438263546585224  1.0000
  H   H491      1.0  0.24656393635326923  0.9124796108472061  0.21518625746694542  1.0000
  H   H492      1.0  0.2466146452607568  0.90228374062745  0.16939740103678597  1.0000
  H   H493      1.0  0.27126248426160265  0.9130025400607706  0.18772649556897986  1.0000
  H   H494      1.0  0.2935332117494964  0.891355935266103  0.23571544187382776  1.0000
  H   H495      1.0  0.285429652873589  0.8646251519696083  0.25102745186854464  1.0000
  H   H496      1.0  0.2686369088628977  0.8906571837972371  0.2621606822139241  1.0000
  N   N21       1.0  0.7583169818708013  0.0004323630326892314  0.822777483254809  1.0000
  C   C465      1.0  0.7730944007328325  0.009126876968100106  0.8505206372715768  1.0000
  C   C466      1.0  0.7472115283484438  0.019697188716457426  0.8015777113917965  1.0000
  C   C467      1.0  0.7410139310787037  0.9883139487429073  0.8405575962309322  1.0000
  C   C468      1.0  0.7719227637676019  0.984599332610706  0.7983618183567726  1.0000
  H   H497      1.0  0.7856803227335126  0.01924184545450114  0.8380536744009548  1.0000
  H   H498      1.0  0.7825942681857407  0.9950291525632485  0.8659662134390788  1.0000
  H   H499      1.0  0.763317004309921  0.020631139438266555  0.8700801786087627  1.0000
  H   H500      1.0  0.7370078869075392  0.03212935348408541  0.819265109461128  1.0000
  H   H501      1.0  0.7597879766079669  0.029205020263286974  0.7877442702772554  1.0000
  H   H502      1.0  0.7357973242722475  0.013818570355348392  0.7804879727901991  1.0000
  H   H503      1.0  0.729522825748174  0.9816425214066035  0.8202985826226495  1.0000
  H   H504      1.0  0.7304481407544736  0.999706062524027  0.8592578517113449  1.0000
  H   H505      1.0  0.7487623664358508  0.973511753971072  0.8565385168468058  1.0000
  H   H506      1.0  0.7614643194158968  0.9784398686964121  0.7762098690924331  1.0000
  H   H507      1.0  0.779795869179092  0.9693725631509736  0.8132171985066315  1.0000
  H   H508      1.0  0.7858160067135975  0.9928207430171865  0.7856887935025682  1.0000
  N   N22       1.0  0.8639709571129014  0.15621454701128484  0.027934136226317685  1.0000
  C   C469      1.0  0.8676519473618215  0.13728329067537157  0.054090707101127185  1.0000
  C   C470      1.0  0.8859192353768935  0.1620083035796587  0.014682205275480475  1.0000
  C   C471      1.0  0.8518152016960262  0.17636090296616191  0.04565177501067996  1.0000
  C   C472      1.0  0.8504805636622541  0.14921558890981018  0.9971374552963749  1.0000
  H   H509      1.0  0.8514236164066031  0.13210207221676054  0.06386374702938524  1.0000
  H   H510      1.0  0.8771112704213525  0.1421331802554441  0.07836097435516981  1.0000
  H   H511      1.0  0.8771416489106719  0.1219871161214219  0.041624157078931086  1.0000
  H   H512      1.0  0.8966981254162881  0.16705779313700714  0.03719407696606902  1.0000
  H   H513      1.0  0.8954003303580396  0.14739260752513125  0.00031442640596535126  1.0000
  H   H514      1.0  0.8837755115927106  0.17638298407037353  0.9951154552699639  1.0000
  H   H515      1.0  0.849687478543173  0.19122869302183793  0.02706130848040389  1.0000
  H   H516      1.0  0.8607187390116696  0.18135119268239483  0.07041566912833996  1.0000
  H   H517      1.0  0.8346883434731479  0.17299876449762894  0.054129117659402315  1.0000
  H   H518      1.0  0.8339586533092614  0.14429459807594347  0.006083424533972925  1.0000
  H   H519      1.0  0.8592862953689685  0.13430183784102193  0.9827131557624057  1.0000
  H   H520      1.0  0.8469601730669553  0.16322396867939887  0.9771955327751849  1.0000
  N   N23       1.0  0.05987443149170358  0.42116184070168355  0.5862762453358947  1.0000
  C   C473      1.0  0.04883924779128822  0.43712776353620336  0.5592642300295118  1.0000
  C   C474      1.0  0.07005306250035832  0.4002597885118548  0.5680546052207649  1.0000
  C   C475      1.0  0.042916962883193355  0.41522745676849954  0.6125956080228553  1.0000
  C   C476      1.0  0.07769564319326963  0.43205591371476726  0.6051789893278517  1.0000
  H   H521      1.0  0.06139509276197886  0.44379040671454795  0.5412488955572359  1.0000
  H   H522      1.0  0.03933670921522259  0.4521255225700903  0.5724735264116461  1.0000
  H   H523      1.0  0.03684361460994245  0.42877208995089133  0.5419162837790938  1.0000
  H   H524      1.0  0.0777898499063917  0.3876006795968746  0.5879463733110847  1.0000
  H   H525      1.0  0.05730044426564755  0.3919662469507094  0.5522618074433364  1.0000
  H   H526      1.0  0.08358851832046257  0.40399536978854494  0.5491048706207629  1.0000
  H   H527      1.0  0.05039308703474294  0.4026542445087899  0.6328813488387076  1.0000
  H   H528      1.0  0.028913748585509547  0.40773056131568375  0.5987400468124864  1.0000
  H   H529      1.0  0.035414639806829136  0.43047240726055275  0.6277051988226672  1.0000
  H   H530      1.0  0.0860025106004314  0.42075710493163243  0.6264522194901554  1.0000
  H   H531      1.0  0.0708193026231795  0.44827414178473934  0.6183245235891899  1.0000
  H   H532      1.0  0.09107908477543222  0.43615895540791455  0.5860916221360606  1.0000
  N   N24       1.0  0.28949648401156086  0.1391220156466191  0.09768422299007473  1.0000
  C   C477      1.0  0.29462041581709936  0.15969920383054598  0.07818308561602105  1.0000
  C   C478      1.0  0.273251408663258  0.12732153987410283  0.0765427346701697  1.0000
  C   C479      1.0  0.27968585933771356  0.14585129537305166  0.133268463797918  1.0000
  C   C480      1.0  0.31048564049406374  0.1237121212193737  0.10275270292763583  1.0000
  H   H533      1.0  0.2790873427302648  0.171024706912469  0.07133243040375548  1.0000
  H   H534      1.0  0.3037872018515595  0.15521779486437012  0.052617539154660165  1.0000
  H   H535      1.0  0.30557865467877016  0.16977651582006192  0.09466005297955893  1.0000
  H   H536      1.0  0.26912915777393015  0.11168139448788583  0.09054033517176907  1.0000
  H   H537      1.0  0.2572555853021076  0.13845394211681902  0.07186707946006399  1.0000
  H   H538      1.0  0.2801534466938833  0.12201122221015408  0.04955971218914201  1.0000
  H   H539      1.0  0.276410575951584  0.1308371949866708  0.14973597621724144  1.0000
  H   H540      1.0  0.2635018723672457  0.15697774645482399  0.13049450584797873  1.0000
  H   H541      1.0  0.29115123210920474  0.15563563778785544  0.14923973944836777  1.0000
  H   H542      1.0  0.3180004943292288  0.11790284851084215  0.07627402607186129  1.0000
  H   H543      1.0  0.3075166126796131  0.10828779830688577  0.11839032715970443  1.0000
  H   H544      1.0  0.32341878070033864  0.13229613343982383  0.11757630484363935  1.0000
  N   N25       1.0  0.07510442134070577  0.5475346633712054  0.7519081458315398  1.0000
  C   C481      1.0  0.07543249325308687  0.5227050522829715  0.7467133224996876  1.0000
  C   C482      1.0  0.09730589266112939  0.5546020583664674  0.742453339957842  1.0000
  C   C483      1.0  0.06999616901159122  0.5533223078054775  0.7901583246195851  1.0000
  C   C484      1.0  0.05763529690915751  0.5595272635073361  0.7283660326743336  1.0000
  H   H545      1.0  0.058835363177385316  0.5168482773689409  0.7533177268457971  1.0000
  H   H546      1.0  0.08833288948358453  0.5130972556048058  0.7642892376972973  1.0000
  H   H547      1.0  0.07937210767134921  0.5176557866097841  0.7181972116654808  1.0000
  H   H548      1.0  0.09763510575653682  0.5732586832424825  0.7462759399796405  1.0000
  H   H549      1.0  0.11086187411992934  0.5457998458201129  0.7596989914934709  1.0000
  H   H550      1.0  0.10168517180563727  0.5504715580011352  0.713769773514841  1.0000
  H   H551      1.0  0.05333169005736726  0.5482016633777399  0.7981310539935804  1.0000
  H   H552      1.0  0.0695959165557502  0.571943746826039  0.7950735283742585  1.0000
  H   H553      1.0  0.08289050463360924  0.54449847339241  0.8086546540635765  1.0000
  H   H554      1.0  0.04069595522031344  0.5544402678371465  0.7346113279163368  1.0000
  H   H555      1.0  0.06098935307963432  0.5557075424652558  0.6992567009825833  1.0000
  H   H556      1.0  0.05678993985999817  0.578310177104318  0.7318237251954225  1.0000
  N   N26       1.0  0.740558886823482  0.9230301379514507  0.009721100990090825  1.0000
  C   C485      1.0  0.7541872006383766  0.9395569007078844  0.992944651174934  1.0000
  C   C486      1.0  0.7318216910409405  0.9087409573955129  0.9812264887036084  1.0000
  C   C487      1.0  0.7215529992789996  0.9354201199648399  0.02954309146730072  1.0000
  C   C488      1.0  0.7546937735930257  0.908406573283058  0.03517931427806964  1.0000
  H   H557      1.0  0.7688903147583123  0.9308188159817444  0.9783186770626627  1.0000
  H   H558      1.0  0.7609859575707268  0.9507566137629929  0.013585468830944027  1.0000
  H   H559      1.0  0.7442315813321629  0.9505385666818921  0.9728919570271043  1.0000
  H   H560      1.0  0.7457542136814935  0.8992873361779008  0.9655242256622109  1.0000
  H   H561      1.0  0.721534322117585  0.8959700410857231  0.9927760633916658  1.0000
  H   H562      1.0  0.7210974033161609  0.9191843083002667  0.9613794196288389  1.0000
  H   H563      1.0  0.7276355170699211  0.9462887985684908  0.05134494341252416  1.0000
  H   H564      1.0  0.710887746531352  0.9234635770272628  0.04251628273337072  1.0000
  H   H565      1.0  0.7105719486953302  0.946659346795982  0.011093142880730378  1.0000
  H   H566      1.0  0.7449730487640899  0.8958588292970987  0.04872442506565711  1.0000
  H   H567      1.0  0.7618148755551288  0.918639830597686  0.05683313316885985  1.0000
  H   H568      1.0  0.7690833102973292  0.8986529788233182  0.021007753793369943  1.0000
  N   N27       1.0  0.05038688814018104  0.6760876046260836  0.37619518482756525  1.0000
  C   C489      1.0  0.06375941689610129  0.6606950317912246  0.3508587698560264  1.0000
  C   C490      1.0  0.042908567652084395  0.6977382318305017  0.35764791513067407  1.0000
  C   C491      1.0  0.0643972236790119  0.6806762912378814  0.40783889224392783  1.0000
  C   C492      1.0  0.03058266774005691  0.6652659563750392  0.3884070276117935  1.0000
  H   H569      1.0  0.05371863159742633  0.6570440443319666  0.32652527695373856  1.0000
  H   H570      1.0  0.06958949919560907  0.6441262533342929  0.363863770828707  1.0000
  H   H571      1.0  0.07900507941437518  0.6682379499437527  0.34146465338932275  1.0000
  H   H572      1.0  0.0335272087338039  0.7101511446506861  0.37628385504966605  1.0000
  H   H573      1.0  0.05743752738324853  0.7058747705426937  0.3469077867573824  1.0000
  H   H574      1.0  0.03144864721024177  0.6951805375891524  0.3344909356702659  1.0000
  H   H575      1.0  0.07047534408075702  0.6647024538069498  0.4223157344673961  1.0000
  H   H576      1.0  0.054800742908716546  0.6920804318646792  0.42769617314469555  1.0000
  H   H577      1.0  0.07945019616943129  0.6889559257066485  0.3996425262270321  1.0000
  H   H578      1.0  0.020327414011123604  0.6761869266309666  0.4081271112383903  1.0000
  H   H579      1.0  0.03565424121523675  0.6486784545338946  0.4019732038552892  1.0000
  H   H580      1.0  0.019321169924957127  0.6619657529347961  0.36534890213732885  1.0000
  N   N28       1.0  0.8757761871222466  0.63631079304235  0.3921220306726295  1.0000
  C   C493      1.0  0.8948209162672658  0.6241537463014211  0.37213511304373337  1.0000
  C   C494      1.0  0.8553175204045879  0.6376322141095004  0.3693499101890862  1.0000
  C   C495      1.0  0.881007274250307  0.6595502491307508  0.4010449009292163  1.0000
  C   C496      1.0  0.8720536357256243  0.6238613908168046  0.42586384866062105  1.0000
  H   H581      1.0  0.9104301608119592  0.6231043917886123  0.38856231332768415  1.0000
  H   H582      1.0  0.8983575219230793  0.633093419933601  0.34661175392550203  1.0000
  H   H583      1.0  0.8917684238654887  0.6064000757749618  0.36534734816098513  1.0000
  H   H584      1.0  0.8576801616523748  0.6468752112642628  0.34363906347062473  1.0000
  H   H585      1.0  0.8509745532525835  0.6203556279209663  0.36210122396608213  1.0000
  H   H586      1.0  0.840587001850989  0.6467514663989563  0.38355850780455725  1.0000
  H   H587      1.0  0.8670452940234527  0.6693515504966894  0.41608351760094153  1.0000
  H   H588      1.0  0.8843035352011834  0.6692879931329868  0.37617994892170326  1.0000
  H   H589      1.0  0.8964634442467401  0.6591809528036954  0.41804431823745136  1.0000
  H   H590      1.0  0.8871636350065162  0.6226488288237014  0.443737758606352  1.0000
  H   H591      1.0  0.8686313316151762  0.606049816695102  0.4201794812421771  1.0000
  H   H592      1.0  0.8576750134439649  0.6323551460140994  0.4416160684415929  1.0000
  N   N29       1.0  0.7277265908049234  0.18947852107313443  0.35285290682872233  1.0000
  C   C497      1.0  0.7046742360493969  0.19904266288950867  0.36281226297476443  1.0000
  C   C498      1.0  0.7269883823271857  0.17633137320290912  0.3188659449352573  1.0000
  C   C499      1.0  0.7373634743928438  0.17437400645328227  0.382102503945236  1.0000
  C   C500      1.0  0.7419232961647207  0.2081391747414261  0.34769607455117535  1.0000
  H   H593      1.0  0.6968473715731214  0.21067235836643217  0.3415818834642126  1.0000
  H   H594      1.0  0.7045264248698636  0.20870480268021466  0.38876412865831034  1.0000
  H   H595      1.0  0.6935656635504285  0.18535388308327697  0.3668540417930704  1.0000
  H   H596      1.0  0.7170473510600294  0.1615885435695976  0.32211767074167375  1.0000
  H   H597      1.0  0.719199854519336  0.18698069966285077  0.296409736730111  1.0000
  H   H598      1.0  0.7441846154820015  0.16946737908977033  0.31000061291531644  1.0000
  H   H599      1.0  0.7550275153022581  0.16748474399550345  0.3762017272233265  1.0000
  H   H600      1.0  0.7274843017061907  0.15968941428007344  0.38594152773248197  1.0000
  H   H601      1.0  0.7372975952132428  0.18348637193153514  0.4085354796885937  1.0000
  H   H602      1.0  0.7594576533945373  0.2014137652101025  0.3401683741187133  1.0000
  H   H603      1.0  0.7428713784924649  0.21833951396666537  0.3729225784985013  1.0000
  H   H604      1.0  0.7351887436107316  0.2198792666675945  0.3257785291289942  1.0000
  N   N30       1.0  0.9386534873163782  0.831558662106919  0.13030043448678724  1.0000
  C   C501      1.0  0.9290710089104647  0.8132174478746476  0.15011986474967676  1.0000
  C   C502      1.0  0.9240206262693602  0.8386897671467108  0.09912781426856336  1.0000
  C   C503      1.0  0.9614053197222313  0.8231123288129168  0.11713977227599603  1.0000
  C   C504      1.0  0.9400018050713836  0.8512167788313074  0.15472697908345492  1.0000
  H   H605      1.0  0.9270845773375628  0.7983900264758653  0.1323511666401364  1.0000
  H   H606      1.0  0.9122863159767552  0.8191820242189135  0.1617657886899548  1.0000
  H   H607      1.0  0.9400486032961345  0.8068547035564261  0.17312875898898977  1.0000
  H   H608      1.0  0.9307247495976946  0.8526015501487239  0.08366506432618441  1.0000
  H   H609      1.0  0.9227127737649067  0.8242695394354832  0.08009302454982113  1.0000
  H   H610      1.0  0.9067049821206049  0.8450923061510143  0.10817149650847901  1.0000
  H   H611      1.0  0.9694307943803412  0.8366434307243933  0.10286384315937817  1.0000
  H   H612      1.0  0.960897261893723  0.808622511451315  0.09794897284754056  1.0000
  H   H613      1.0  0.9727727431347197  0.8168742569756658  0.1397829715827974  1.0000
  H   H614      1.0  0.9473647756136288  0.8653542998008235  0.14093432766916414  1.0000
  H   H615      1.0  0.9505761377305021  0.8464412840901526  0.17890376933599433  1.0000
  H   H616      1.0  0.9230779049966398  0.8580955903878753  0.1649170028372821  1.0000
  N   N31       1.0  0.7107905631712155  0.09613175221343383  0.5555971294033829  1.0000
  C   C505      1.0  0.7153077758570439  0.10904624617798407  0.5886190782953  1.0000
  C   C506      1.0  0.7214926923053725  0.07247962906256794  0.5591220749617836  1.0000
  C   C507      1.0  0.7201342603401465  0.10698663936226364  0.52387015047852  1.0000
  C   C508      1.0  0.6862401128324648  0.09597271288139743  0.5509067731154741  1.0000
  H   H617      1.0  0.7070537313385218  0.12682323923175962  0.5874489322060581  1.0000
  H   H618      1.0  0.7336211466489043  0.10990314550853462  0.5927004846227079  1.0000
  H   H619      1.0  0.7089034035316657  0.10104311676353471  0.613107942856744  1.0000
  H   H620      1.0  0.7184785890618285  0.062228870901309685  0.5346483382288727  1.0000
  H   H621      1.0  0.7399907291903722  0.07186914422862595  0.5629981457095613  1.0000
  H   H622      1.0  0.7146284293854163  0.06380169203649758  0.5827033738908509  1.0000
  H   H623      1.0  0.7166682200414068  0.09796559225650976  0.49836618784025877  1.0000
  H   H624      1.0  0.7386694985231099  0.10702361648068436  0.5262155427808293  1.0000
  H   H625      1.0  0.7126887126588312  0.12496349816891604  0.5208667759298378  1.0000
  H   H626      1.0  0.6775779255097729  0.11347509759272648  0.5477690342466229  1.0000
  H   H627      1.0  0.6786484944758218  0.08806828629241886  0.5745848579899475  1.0000
  H   H628      1.0  0.6822503445849624  0.08613607708432491  0.5264473832979586  1.0000
  N   N32       1.0  0.06939931287783599  0.4183744683245168  0.8237093402428156  1.0000
  C   C509      1.0  0.05708578188938141  0.4342165580241756  0.79776813146813  1.0000
  C   C510      1.0  0.05313231509953428  0.40668190430997947  0.8447675150716772  1.0000
  C   C511      1.0  0.08280900988635531  0.4311879908924636  0.8485343490523168  1.0000
  C   C512      1.0  0.08457173205957609  0.4012909459752783  0.8037902836768347  1.0000
  H   H629      1.0  0.0688126647215433  0.4421616705800979  0.779579638678501  1.0000
  H   H630      1.0  0.046445630101827895  0.4481435660880873  0.811816596369321  1.0000
  H   H631      1.0  0.04569405350385015  0.4252453161001962  0.7803220414870845  1.0000
  H   H632      1.0  0.061883215450278334  0.39460955080169735  0.8646844028111095  1.0000
  H   H633      1.0  0.04129330372033292  0.4190423274001514  0.8600013281058668  1.0000
  H   H634      1.0  0.042863982952636055  0.39673534006321276  0.8267023953884615  1.0000
  H   H635      1.0  0.09175025403060362  0.419792202156089  0.8691260053678761  1.0000
  H   H636      1.0  0.07205228414930455  0.44469813274951986  0.8633216293504942  1.0000
  H   H637      1.0  0.09580881671816834  0.4395185716717715  0.8336130184803615  1.0000
  H   H638      1.0  0.09403578846653556  0.38905428985464596  0.8225562186858076  1.0000
  H   H639      1.0  0.09713438920830408  0.4093846148595231  0.7874155778301379  1.0000
  H   H640      1.0  0.07508551033325465  0.3911959945439826  0.7849209932630026  1.0000
  N   N33       1.0  0.40168681686318775  0.10736835674330392  0.3571178589931772  1.0000
  C   C513      1.0  0.4261970427031929  0.10741779357040326  0.35201977385098576  1.0000
  C   C514      1.0  0.3964597646688491  0.08379461086885853  0.3628984785039921  1.0000
  C   C515      1.0  0.38961202332154293  0.11685171058552557  0.32462258415712786  1.0000
  C   C516      1.0  0.3944588341503125  0.12143267739274566  0.38898776845635114  1.0000
  H   H641      1.0  0.4307512004076519  0.1249769943302419  0.3478936779292859  1.0000
  H   H642      1.0  0.43224481157764105  0.09714525330517532  0.3280133968707124  1.0000
  H   H643      1.0  0.4357937378139653  0.10026099831961655  0.3760592305808441  1.0000
  H   H644      1.0  0.4017543958363516  0.07272311032123602  0.3393382259304427  1.0000
  H   H645      1.0  0.40520036001972815  0.0761554166945766  0.38739885482853703  1.0000
  H   H646      1.0  0.37804263921074277  0.0831359019794673  0.3664040412257273  1.0000
  H   H647      1.0  0.3710428982578687  0.11723899223237444  0.32764552886420134  1.0000
  H   H648      1.0  0.3943622754365657  0.10651445419872041  0.30003306945867053  1.0000
  H   H649      1.0  0.39327555780108886  0.13455749208877643  0.3192487488486057  1.0000
  H   H650      1.0  0.3760337052328993  0.12189135092387282  0.39356005064663857  1.0000
  H   H651      1.0  0.3982802367281325  0.13931504638626557  0.3855215783033334  1.0000
  H   H652      1.0  0.4031937864193465  0.11467322725459472  0.4140531127630162  1.0000
  N   N34       1.0  0.30084536316874544  0.8729751351058502  0.8781444266111419  1.0000
  C   C517      1.0  0.27610715145389164  0.8731266117417414  0.8782741899694193  1.0000
  C   C518      1.0  0.3071295933662487  0.8906273235647953  0.853040384314721  1.0000
  C   C519      1.0  0.31142036533138095  0.8504187841422914  0.8663247751076005  1.0000
  C   C520      1.0  0.30874349819071345  0.8777853743941059  0.9150215996584344  1.0000
  H   H653      1.0  0.26765189015915236  0.8900881006274258  0.8864046483574097  1.0000
  H   H654      1.0  0.27066748543695707  0.8604255364793155  0.8976498854441155  1.0000
  H   H655      1.0  0.2695168005942368  0.8691406363499073  0.8510697491390956  1.0000
  H   H656      1.0  0.3256988133762397  0.8911718020109013  0.8524151700838706  1.0000
  H   H657      1.0  0.3014646843431186  0.887668587622183  0.8248949452097167  1.0000
  H   H658      1.0  0.2995216587220352  0.9079031033594689  0.861357582207262  1.0000
  H   H659      1.0  0.3301093369830302  0.8497777548201476  0.8661068765601261  1.0000
  H   H660      1.0  0.30591133994209996  0.8462522788416706  0.8385172454454095  1.0000
  H   H661      1.0  0.30693287781206957  0.8367370254174936  0.8847310995991609  1.0000
  H   H662      1.0  0.32726642385374555  0.8785241873768121  0.9158662565610546  1.0000
  H   H663      1.0  0.3045870790357568  0.8646964460998647  0.9347895135194715  1.0000
  H   H664      1.0  0.30067983577136886  0.8944094171935811  0.9250812070419385  1.0000
  N   N35       1.0  0.2136386970019205  0.2850924090095466  0.12320390550211657  1.0000
  C   C521      1.0  0.23481530619088115  0.27184891994066085  0.11156514107807247  1.0000
  C   C522      1.0  0.19548711940241495  0.2700502244560077  0.12401525889290355  1.0000
  C   C523      1.0  0.20749333712976908  0.3039458298608283  0.09759185059254061  1.0000
  C   C524      1.0  0.21671173025991025  0.2944953599802439  0.15976822473184482  1.0000
  H   H665      1.0  0.24888639979873778  0.2826757279612439  0.11054537886169169  1.0000
  H   H666      1.0  0.2330642152696716  0.26432365182198847  0.08418241274466731  1.0000
  H   H667      1.0  0.2399073616348096  0.2576262939027428  0.13068349886468011  1.0000
  H   H668      1.0  0.19236864990490865  0.26293359464810956  0.09677243675066727  1.0000
  H   H669      1.0  0.19954348510977266  0.25554292936495726  0.14296712418524193  1.0000
  H   H670      1.0  0.17938100064851575  0.27947132261146157  0.1331567991730067  1.0000
  H   H671      1.0  0.19169003203403281  0.3143552463076941  0.10606205908966104  1.0000
  H   H672      1.0  0.20460746693240794  0.29751154734377655  0.06981623083142607  1.0000
  H   H673      1.0  0.22082623388406997  0.3156156630469482  0.09613399373726184  1.0000
  H   H674      1.0  0.22087677547401002  0.2807213868497372  0.17993756304708652  1.0000
  H   H675      1.0  0.20118327671508218  0.3049276738918371  0.1692559114902632  1.0000
  H   H676      1.0  0.230542675244726  0.3056085109660607  0.16051076680441856  1.0000
  N   N36       1.0  0.5015396665875972  0.920523669358292  0.6152183946416199  1.0000
  C   C525      1.0  0.49184257608464804  0.9045241777674458  0.5904289046765453  1.0000
  C   C526      1.0  0.4833605792055787  0.9372651417725255  0.6289104258600405  1.0000
  C   C527      1.0  0.5182411527409116  0.9325641318315907  0.5957956306931422  1.0000
  C   C528      1.0  0.5126953770603733  0.9077325675383386  0.6458280578914305  1.0000
  H   H677      1.0  0.47868071135504553  0.8957057527327702  0.6040806635974298  1.0000
  H   H678      1.0  0.504977800486206  0.8912559892428698  0.5801819631236609  1.0000
  H   H679      1.0  0.48391556077926257  0.9134851980156864  0.566402960001857  1.0000
  H   H680      1.0  0.4742597407332802  0.9468492634060827  0.6064377720325795  1.0000
  H   H681      1.0  0.47081354538622117  0.9288100586554784  0.6445882799089173  1.0000
  H   H682      1.0  0.49000649481427044  0.9498660598118249  0.6472283669304556  1.0000
  H   H683      1.0  0.5325236938693996  0.9204765504675224  0.585863871902081  1.0000
  H   H684      1.0  0.5253516138668045  0.9452181044489448  0.6136057901202111  1.0000
  H   H685      1.0  0.5106302940278411  0.9417307541614575  0.5717078149694063  1.0000
  H   H686      1.0  0.5268346935635398  0.8953277960945522  0.636352107410468  1.0000
  H   H687      1.0  0.5007019942613203  0.8979445209219147  0.6605413057465288  1.0000
  H   H688      1.0  0.5196603314391274  0.9193705775875842  0.6656353562041846  1.0000
  N   N37       1.0  0.37831508276296644  0.9487019474993041  0.47378737259482717  1.0000
  C   C529      1.0  0.38611345401610275  0.9688048568971709  0.456119231265787  1.0000
  C   C530      1.0  0.36935743907947244  0.9551376917581942  0.5100716203351233  1.0000
  C   C531      1.0  0.39738626456302517  0.9307016742633347  0.47751184098695143  1.0000
  C   C532      1.0  0.36048382083020797  0.9401630902596237  0.4514265305617229  1.0000
  H   H689      1.0  0.39938251592810664  0.9758838800240974  0.47252428106022126  1.0000
  H   H690      1.0  0.37208012333700075  0.9825970192136347  0.45222508674362155  1.0000
  H   H691      1.0  0.39330793050905394  0.9644289656684717  0.4288873153130442  1.0000
  H   H692      1.0  0.3549582711211355  0.9687310751457937  0.5083749172295376  1.0000
  H   H693      1.0  0.36342922474235867  0.9403291409523098  0.5242562767416633  1.0000
  H   H694      1.0  0.38249247584884377  0.9616163212438746  0.5275750931799469  1.0000
  H   H695      1.0  0.4110717451143164  0.9365564294502542  0.49438734973607856  1.0000
  H   H696      1.0  0.4047338157686906  0.9255532046469823  0.45072034879118045  1.0000
  H   H697      1.0  0.39215737194604433  0.9151552394462745  0.4904368356451819  1.0000
  H   H698      1.0  0.35419485833480474  0.9249442565088067  0.46380284983339515  1.0000
  H   H699      1.0  0.3668117287308654  0.9351636873809287  0.42393766034606695  1.0000
  H   H700      1.0  0.3458617612094018  0.9533508792936243  0.4477506733481204  1.0000
  N   N38       1.0  0.4545448976593682  0.035742580772839094  0.5483529163191564  1.0000
  C   C533      1.0  0.44500443108856375  0.05470215679634637  0.5717012946966534  1.0000
  C   C534      1.0  0.43710426237585853  0.029663274338579845  0.522783227355845  1.0000
  C   C535      1.0  0.4622821658452484  0.01577956130763325  0.5709392320761956  1.0000
  C   C536      1.0  0.47376293024234933  0.04289187556730422  0.5279255210680291  1.0000
  H   H701      1.0  0.4578798237591434  0.060228152074961676  0.5906249306089209  1.0000
  H   H702      1.0  0.4308817976923748  0.049782004568105435  0.5884676305601886  1.0000
  H   H703      1.0  0.4384263192404793  0.06985176174963599  0.5554395622855709  1.0000
  H   H704      1.0  0.44379427808045263  0.015551863440952605  0.504439108184549  1.0000
  H   H705      1.0  0.42249510886507774  0.02389167323945718  0.5373538235426754  1.0000
  H   H706      1.0  0.4307101979982386  0.044431431141549675  0.5055739473682249  1.0000
  H   H707      1.0  0.4697428689049379  0.0012538839265601174  0.5540875996449927  1.0000
  H   H708      1.0  0.44807223490324305  0.009703061306728378  0.5861795611949134  1.0000
  H   H709      1.0  0.4751248365538344  0.01984089296171154  0.5911347346297791  1.0000
  H   H710      1.0  0.4806530880551208  0.029502434365367144  0.5084548023458603  1.0000
  H   H711      1.0  0.4876570102766624  0.04663727730763112  0.5463354018630204  1.0000
  H   H712      1.0  0.4686606065015254  0.05863175857694402  0.5121094085111039  1.0000
  N   N39       1.0  0.02897590396715021  0.3061407727077782  0.8318522632232943  1.0000
  C   C537      1.0  0.03798684364721194  0.28831552230734014  0.8060339582830529  1.0000
  C   C538      1.0  0.01535986545885515  0.32449530000413657  0.8119788575603762  1.0000
  C   C539      1.0  0.047805570368253406  0.31554264251363995  0.8505612488650995  1.0000
  C   C540      1.0  0.014718646339253903  0.2961817936983947  0.8588025631187474  1.0000
  H   H713      1.0  0.04874116765207126  0.29524977771541727  0.7851664155227149  1.0000
  H   H714      1.0  0.024186304212880483  0.2807289480648971  0.791685241248569  1.0000
  H   H715      1.0  0.04847765303181228  0.2742618274966604  0.8200810470055532  1.0000
  H   H716      1.0  0.0082242723531929  0.33829577726259624  0.830530967044768  1.0000
  H   H717      1.0  0.02551840536308969  0.33237207740430313  0.7912374474731139  1.0000
  H   H718      1.0  0.0009128046250233081  0.31797892430397195  0.7977338185451991  1.0000
  H   H719      1.0  0.058336231450599504  0.3021164979476254  0.8660073499004227  1.0000
  H   H720      1.0  0.041577882269353106  0.3290859275610717  0.8701782773872618  1.0000
  H   H721      1.0  0.05905083200661239  0.3230032300110958  0.8310052434878141  1.0000
  H   H722      1.0  0.0007589395686280547  0.2882163702769457  0.8455412312125105  1.0000
  H   H723      1.0  0.007072343773379508  0.309291772231475  0.8780463595696073  1.0000
  H   H724      1.0  0.024589885196998562  0.28279643296170687  0.8751255256459893  1.0000
  N   N40       1.0  0.1874480403811698  0.8593412338636598  0.03835068657922114  1.0000
  C   C541      1.0  0.1654125796748841  0.872186668872863  0.030033701249431832  1.0000
  C   C542      1.0  0.20546465507067077  0.8743323888708383  0.03394271021369044  1.0000
  C   C543      1.0  0.19138694206748877  0.8399002885061624  0.013186759828991423  1.0000
  C   C544      1.0  0.18746590124160184  0.8508474046974064  0.07597994885506076  1.0000
  H   H725      1.0  0.16177145918454547  0.8870398990030484  0.04845754725879847  1.0000
  H   H726      1.0  0.15150113503389678  0.8612376558981123  0.032876183733710596  1.0000
  H   H727      1.0  0.16485143866932261  0.8786713483667006  0.001684056335163664  1.0000
  H   H728      1.0  0.22238152909189038  0.8650362379268618  0.03929988180812782  1.0000
  H   H729      1.0  0.20575541336538877  0.8811242032879115  0.005853672160590628  1.0000
  H   H730      1.0  0.20319082345417125  0.8891493192523682  0.052681340603844884  1.0000
  H   H731      1.0  0.20787914093221288  0.8297469987505159  0.01843380341010792  1.0000
  H   H732      1.0  0.19126618407112764  0.845666993044779  0.9845262709157285  1.0000
  H   H733      1.0  0.1780901220502618  0.8282632123708695  0.01570733532864499  1.0000
  H   H734      1.0  0.203734662491744  0.8407456899594079  0.08298308995886905  1.0000
  H   H735      1.0  0.17399759703086656  0.8395304334653262  0.080141409595049  1.0000
  H   H736      1.0  0.18459706693873443  0.8650174417398688  0.09587284162632503  1.0000
  N   N41       1.0  0.5531642505801048  0.009888463900935784  0.7623861346477303  1.0000
  C   C545      1.0  0.5605530653277416  0.9958767913641214  0.7942492906041548  1.0000
  C   C546      1.0  0.5549550251423411  0.9954570785176001  0.7296198379165407  1.0000
  C   C547      1.0  0.567634683859655  0.028427599714235363  0.7582563084124139  1.0000
  C   C548      1.0  0.5295408428401147  0.019749512353762988  0.767238431399219  1.0000
  H   H737      1.0  0.5600610031767367  0.006302304381127444  0.8193878459903894  1.0000
  H   H738      1.0  0.578097168461545  0.9875753282152262  0.790931306332762  1.0000
  H   H739      1.0  0.5495745559471238  0.9820785690713331  0.7985810039352106  1.0000
  H   H740      1.0  0.5452299611442216  0.9805780099028389  0.7324495312802904  1.0000
  H   H741      1.0  0.5485178985282967  0.0051315060198553475  0.7052332102533715  1.0000
  H   H742      1.0  0.5727122095845775  0.9888396167449759  0.724091666796491  1.0000
  H   H743      1.0  0.5857284960662508  0.021693444808732476  0.7562641044646509  1.0000
  H   H744      1.0  0.5656671494722944  0.04057739620792411  0.7813526333914725  1.0000
  H   H745      1.0  0.5633162875839602  0.03840689165108668  0.7331484666501669  1.0000
  H   H746      1.0  0.5273443057667232  0.02983168482229126  0.7926893792601067  1.0000
  H   H747      1.0  0.5179059680014081  0.006283327490966384  0.7679593561179829  1.0000
  H   H748      1.0  0.5239557910279624  0.03156203562404447  0.7447576039393448  1.0000
  N   N42       1.0  0.37971363047246776  0.17617946190578992  0.9072974734070638  1.0000
  C   C549      1.0  0.3963236706853544  0.1717744432297217  0.8778397709317644  1.0000
  C   C550      1.0  0.3817571534043569  0.19870935279594612  0.9236140187774038  1.0000
  C   C551      1.0  0.38390127794802653  0.15846208110383342  0.935422274966998  1.0000
  C   C552      1.0  0.3567691073300364  0.17581952067509105  0.892469065472543  1.0000
  H   H749      1.0  0.3947098939215966  0.15524283871114639  0.8642178650644838  1.0000
  H   H750      1.0  0.4139013601633974  0.17111900631619675  0.8881335976043508  1.0000
  H   H751      1.0  0.39401390034475836  0.18514178443661392  0.8565850114420344  1.0000
  H   H752      1.0  0.36948930735151536  0.2024098586006125  0.946132406032866  1.0000
  H   H753      1.0  0.3988797834056895  0.19963270620005827  0.9350287080488947  1.0000
  H   H754      1.0  0.37842010268482423  0.2125743316499943  0.9033528662710134  1.0000
  H   H755      1.0  0.3716443295315704  0.16138950162257404  0.9580438424145585  1.0000
  H   H756      1.0  0.4010622710859011  0.15820910033378302  0.9472632568191199  1.0000
  H   H757      1.0  0.3823681543645497  0.1412351340069383  0.9242657065358036  1.0000
  H   H758      1.0  0.3531186575309291  0.18864940359916207  0.870657389734564  1.0000
  H   H759      1.0  0.3438639958617966  0.1796436120995344  0.9138893567751143  1.0000
  H   H760      1.0  0.3543328103780207  0.1589025003562602  0.8807280458310389  1.0000
  N   N43       1.0  0.6865813342988522  0.0053439119733018625  0.34797757243483757  1.0000
  C   C553      1.0  0.6639850298818912  0.9993524419839964  0.3575288516386471  1.0000
  C   C554      1.0  0.7010784381971871  0.9845263852683218  0.33742635533427745  1.0000
  C   C555      1.0  0.6965899161547812  0.015880604767648077  0.37956283427137477  1.0000
  C   C556      1.0  0.6846372451866611  0.021584939583614293  0.31749262114774296  1.0000
  H   H761      1.0  0.652479514017212  0.014637218421100773  0.3655517535748552  1.0000
  H   H762      1.0  0.6648013417820443  0.98733876283334  0.38070935612134615  1.0000
  H   H763      1.0  0.6560704368479621  0.9909375430697538  0.3345589354809062  1.0000
  H   H764      1.0  0.7183528050141408  0.9881628458494103  0.3301230338919418  1.0000
  H   H765      1.0  0.7027476746103322  0.9718997506323004  0.35987018984346997  1.0000
  H   H766      1.0  0.694026064269798  0.9759593064988682  0.31376072401913163  1.0000
  H   H767      1.0  0.6981486025114815  0.004119469868002046  0.40314909851359887  1.0000
  H   H768      1.0  0.686118060705127  0.03168592393399239  0.3881758232349785  1.0000
  H   H769      1.0  0.7137015585551246  0.02054065903347646  0.37351650384680807  1.0000
  H   H770      1.0  0.7013747196056264  0.02653344703371263  0.30964495298015454  1.0000
  H   H771      1.0  0.6737495332139145  0.03747915960624715  0.324696738757064  1.0000
  H   H772      1.0  0.6771496937291559  0.014129605726182604  0.29319354393430763  1.0000
  N   N44       1.0  0.189586081405156  0.7195043860387123  0.6356085204070733  1.0000
  C   C557      1.0  0.17217737524566573  0.738037252736179  0.6250422907819937  1.0000
  C   C558      1.0  0.17866220126219284  0.7006951027843961  0.6517425570496376  1.0000
  C   C559      1.0  0.2050065934232545  0.728118005918857  0.6624287915832073  1.0000
  C   C560      1.0  0.2024532310534037  0.7111724058465447  0.6032271929927201  1.0000
  H   H773      1.0  0.16035516609586098  0.7320590281386253  0.6046578167974194  1.0000
  H   H774      1.0  0.17982163024105982  0.7525713388356879  0.6128887507868681  1.0000
  H   H775      1.0  0.1620591720461042  0.7446386380422793  0.6488276904406944  1.0000
  H   H776      1.0  0.19129204581033096  0.6863757905435877  0.6601120688186238  1.0000
  H   H777      1.0  0.16900959283624253  0.7063769817793111  0.6764685722414207  1.0000
  H   H778      1.0  0.16679331108475062  0.6937996181649744  0.6324037355642872  1.0000
  H   H779      1.0  0.2179930820196828  0.7143642735799938  0.67174366278334  1.0000
  H   H780      1.0  0.19579920866934059  0.7347989921799807  0.6870722113182257  1.0000
  H   H781      1.0  0.2138990935968662  0.7420637376265965  0.6511384665827826  1.0000
  H   H782      1.0  0.2110005348254963  0.7248817555719284  0.5904062641930141  1.0000
  H   H783      1.0  0.1912904572440778  0.704711652994406  0.5822656484660682  1.0000
  H   H784      1.0  0.21562038334392347  0.6970246715182301  0.6101263189263723  1.0000
  N   N45       1.0  0.0439644151772971  0.7169375837737323  0.8666017975146203  1.0000
  C   C561      1.0  0.027332767891019145  0.7009734890576279  0.8748149696356915  1.0000
  C   C562      1.0  0.03248046996274033  0.7374434526676783  0.8489396021147788  1.0000
  C   C563      1.0  0.0612950661886551  0.7057857109052861  0.8420185334280288  1.0000
  C   C564      1.0  0.054634671959679595  0.723566206893723  0.9006090711080325  1.0000
  H   H785      1.0  0.03521067738556072  0.6854550418953628  0.888815186389356  1.0000
  H   H786      1.0  0.019244461689280176  0.695312433017963  0.8496684749176623  1.0000
  H   H787      1.0  0.013637110304646432  0.7090637405187286  0.8924820210674065  1.0000
  H   H788      1.0  0.04447950203937069  0.7498145578542337  0.841811324999325  1.0000
  H   H789      1.0  0.023581121736685695  0.7330575027425464  0.8237495629434647  1.0000
  H   H790      1.0  0.019499743254079986  0.7464019253521074  0.8669851486645049  1.0000
  H   H791      1.0  0.07419641548698756  0.7172500648027926  0.8352395573998361  1.0000
  H   H792      1.0  0.053757432732116375  0.7007263104008147  0.8160016357606014  1.0000
  H   H793      1.0  0.07013888361842392  0.6900361379250378  0.854184570397127  1.0000
  H   H794      1.0  0.0674116263828426  0.7354820980421062  0.8954567522745929  1.0000
  H   H795      1.0  0.06313398822072042  0.7085148280460498  0.9150824942088477  1.0000
  H   H796      1.0  0.041985108980723294  0.7323784965943354  0.9194957385825724  1.0000
  N   N46       1.0  0.6138270536384095  0.1358308714070385  0.8002070647850281  1.0000
  C   C565      1.0  0.6250672159187509  0.11251041871671656  0.7950004703594914  1.0000
  C   C566      1.0  0.5891927770716114  0.13519118116269377  0.8017755663358729  1.0000
  C   C567      1.0  0.6192765737201081  0.1503014572901008  0.7696466093635629  1.0000
  C   C568      1.0  0.6218846607004578  0.1453378997043015  0.8342681693622737  1.0000
  H   H797      1.0  0.6191230299822824  0.1046647261868149  0.7697916183945407  1.0000
  H   H798      1.0  0.6216716392416496  0.1012055020375083  0.8178852722662453  1.0000
  H   H799      1.0  0.6436850382928867  0.11244867601549448  0.792927456340927  1.0000
  H   H800      1.0  0.5801285817841959  0.15249632824932022  0.805610262225439  1.0000
  H   H801      1.0  0.5826807833265927  0.12823866015444063  0.7762351188623364  1.0000
  H   H802      1.0  0.5843977404590435  0.12426313616914147  0.8243091733271852  1.0000
  H   H803      1.0  0.610524833058746  0.1678463012674908  0.7718757368808515  1.0000
  H   H804      1.0  0.6141912084591044  0.14322448066849855  0.7434207651650794  1.0000
  H   H805      1.0  0.6376513192824285  0.151704057443118  0.7681889388242149  1.0000
  H   H806      1.0  0.6180633368242131  0.1349131599643752  0.8580291955286693  1.0000
  H   H807      1.0  0.6139500595523514  0.16302634022602985  0.8388702497123632  1.0000
  H   H808      1.0  0.6404872898833927  0.14589142960280346  0.833659020032233  1.0000
  N   N47       1.0  0.9405488817065567  0.09252704875585453  0.22429357507318015  1.0000
  C   C569      1.0  0.9292381529230634  0.0992222735651431  0.189697478513931  1.0000
  C   C570      1.0  0.9620654657819914  0.10258426338531808  0.22656300249686806  1.0000
  C   C571      1.0  0.9447793365195577  0.06744460331658612  0.22607925001778015  1.0000
  C   C572      1.0  0.9260267188115819  0.10092964716102812  0.2548455933904881  1.0000
  H   H809      1.0  0.9255991932573884  0.11802637957414759  0.18751508212857657  1.0000
  H   H810      1.0  0.9129089577959442  0.0920047033093614  0.18708898863650128  1.0000
  H   H811      1.0  0.9397085694945627  0.09315320129428832  0.16605528225804486  1.0000
  H   H812      1.0  0.9710845213195665  0.09791116681026653  0.2523450947053298  1.0000
  H   H813      1.0  0.9734639514662486  0.09672953328063107  0.20385405957427818  1.0000
  H   H814      1.0  0.9591987239974786  0.12153976161387672  0.2254136922870524  1.0000
  H   H815      1.0  0.9556861131835712  0.060439362362546316  0.20344906345328756  1.0000
  H   H816      1.0  0.9287206833786701  0.05949684553198641  0.22428120684880443  1.0000
  H   H817      1.0  0.953124866340614  0.061719241090461  0.25195667475893047  1.0000
  H   H818      1.0  0.9341793596633466  0.09656328397155577  0.2813989663390021  1.0000
  H   H819      1.0  0.9098128207727803  0.0933426902798342  0.25440017840402285  1.0000
  H   H820      1.0  0.9220032959708934  0.11976829578973161  0.2539065470668151  1.0000
  N   N48       1.0  0.06887677177501308  0.784270445757454  0.3388509838756504  1.0000
  C   C573      1.0  0.08597076844039298  0.7873229164918593  0.36692992141022085  1.0000
  C   C574      1.0  0.07806501786662447  0.7888146586624462  0.3028117848336874  1.0000
  C   C575      1.0  0.04858557317512723  0.8003520449040574  0.34563221278330336  1.0000
  C   C576      1.0  0.0628623176102619  0.7606944613882539  0.34004437778564994  1.0000
  H   H821      1.0  0.09094466332521378  0.804925444630928  0.3665862313306278  1.0000
  H   H822      1.0  0.10152772994044475  0.7754657833954407  0.36275152337515526  1.0000
  H   H823      1.0  0.07961659141218357  0.7840798971184277  0.3944903668575911  1.0000
  H   H824      1.0  0.0652796257587244  0.7878131840153446  0.2810539486515754  1.0000
  H   H825      1.0  0.08366497408763741  0.8061017602222175  0.3015662549706471  1.0000
  H   H826      1.0  0.09287435065809828  0.7765421574780933  0.29599710115770717  1.0000
  H   H827      1.0  0.03508300296386581  0.7981234723011257  0.3255689993286198  1.0000
  H   H828      1.0  0.05227211223697789  0.8183660939118428  0.3435095768370022  1.0000
  H   H829      1.0  0.041435532484670703  0.7979233983296009  0.3729144557887482  1.0000
  H   H830      1.0  0.05022824763056955  0.7577537146973673  0.31878638724454583  1.0000
  H   H831      1.0  0.05534648429075658  0.7569101215409776  0.36656331917184215  1.0000
  H   H832      1.0  0.07789306795415156  0.7480707794737675  0.33580627623609743  1.0000
  N   N49       1.0  0.4137591756540696  0.04236761569605085  0.7721754012079741  1.0000
  C   C577      1.0  0.4324435641705331  0.027053022911398328  0.7564422073327437  1.0000
  C   C578      1.0  0.40820767395582236  0.06216260697680309  0.7481353380289896  1.0000
  C   C579      1.0  0.42057297692453094  0.050228991811428036  0.8081699097937887  1.0000
  C   C580      1.0  0.39376993641648433  0.02993465788349603  0.7759719843637132  1.0000
  H   H833      1.0  0.4376170258463157  0.012415893255093957  0.7746816606169236  1.0000
  H   H834      1.0  0.4475337375125874  0.03605614708335736  0.7516350817247076  1.0000
  H   H835      1.0  0.42757554603295883  0.01998390199290978  0.7300248517919115  1.0000
  H   H836      1.0  0.40381234256688187  0.05679111528933922  0.7203262398773199  1.0000
  H   H837      1.0  0.3938146259808409  0.07380204084650055  0.758731766421078  1.0000
  H   H838      1.0  0.4226427342322607  0.07233990335503071  0.7453666026306247  1.0000
  H   H839      1.0  0.4070006564028008  0.06198734316268406  0.8208187159068249  1.0000
  H   H840      1.0  0.43570264379893237  0.0595900274230281  0.8063368314449908  1.0000
  H   H841      1.0  0.4247645190458668  0.035646683615716546  0.8269955641791873  1.0000
  H   H842      1.0  0.3973533572010132  0.014831759122453825  0.7938274143513938  1.0000
  H   H843      1.0  0.3882820617744737  0.023635567214256747  0.7493217547037486  1.0000
  H   H844      1.0  0.37936975725857963  0.04094016181652416  0.7878988369871482  1.0000
  N   N50       1.0  0.29527799348401473  0.21718671430377653  0.32965712824818333  1.0000
  C   C581      1.0  0.308958842823813  0.20126484351902388  0.35388771044136597  1.0000
  C   C582      1.0  0.2866207841184524  0.237812686368582  0.3500988244863989  1.0000
  C   C583      1.0  0.27613425644284284  0.20609258756394283  0.31516035196784004  1.0000
  C   C584      1.0  0.30943342379379374  0.22364886904890097  0.29948487129025925  1.0000
  H   H845      1.0  0.3157513397618161  0.18556207306014147  0.339206153116007  1.0000
  H   H846      1.0  0.2989731540605288  0.19605019762573817  0.37716738265672095  1.0000
  H   H847      1.0  0.3237831682829068  0.2089608042613616  0.3648121481045377  1.0000
  H   H848      1.0  0.27616774036048314  0.25015000300266477  0.33247836989736657  1.0000
  H   H849      1.0  0.2758745461145059  0.23359038285449202  0.37312013376766245  1.0000
  H   H850      1.0  0.30062520686735517  0.24667696803314515  0.36124728023379077  1.0000
  H   H851      1.0  0.2657199358093474  0.19996751582386288  0.3372060364097342  1.0000
  H   H852      1.0  0.2819142125865751  0.19118103986436766  0.2977627767289646  1.0000
  H   H853      1.0  0.2648085272538544  0.2180371538900594  0.2983352793531646  1.0000
  H   H854      1.0  0.30014517376514027  0.23662422160521931  0.2817798897085245  1.0000
  H   H855      1.0  0.3153378618741223  0.20869154985833335  0.28232092117869945  1.0000
  H   H856      1.0  0.32474466350789577  0.23085490345322549  0.3095295549629082  1.0000
  N   N51       1.0  0.7927424205918085  0.05933246396886949  0.2608591114386544  1.0000
  C   C585      1.0  0.8053500414772942  0.07305915112020189  0.28554649008272404  1.0000
  C   C586      1.0  0.7706462177089424  0.05629186215540094  0.27684382839451593  1.0000
  C   C587      1.0  0.8057282791739807  0.03684698684674936  0.2552374323400523  1.0000
  C   C588      1.0  0.789282071420763  0.07115080014191122  0.22574108552661817  1.0000
  H   H857      1.0  0.8086787387210072  0.06447372780098148  0.31208834843287087  1.0000
  H   H858      1.0  0.7958713392590021  0.08995111942570233  0.2910027383939406  1.0000
  H   H859      1.0  0.8218992066317372  0.0761649364328234  0.27383294762915283  1.0000
  H   H860      1.0  0.7725611718020845  0.0477230004175333  0.3036326311814118  1.0000
  H   H861      1.0  0.760290556360825  0.07293813158161333  0.28104470167212803  1.0000
  H   H862      1.0  0.7608457936280749  0.045823625406686164  0.2589509053859012  1.0000
  H   H863      1.0  0.7974254656113852  0.02637137073966711  0.23516386144896242  1.0000
  H   H864      1.0  0.8078081573563161  0.02695080074166256  0.28083312081260386  1.0000
  H   H865      1.0  0.8228822870537164  0.03864271357991278  0.24489311093077268  1.0000
  H   H866      1.0  0.7791609691771644  0.08799180777542714  0.22883920005093653  1.0000
  H   H867      1.0  0.7804402926045568  0.06096944256524961  0.2059837642960071  1.0000
  H   H868      1.0  0.8055650517123276  0.07426950937885834  0.2134130760912192  1.0000
  N   N52       1.0  0.9327082314280638  0.3071493861092472  0.3284921665275359  1.0000
  C   C589      1.0  0.939367876256383  0.28232090696490003  0.3293505521034103  1.0000
  C   C590      1.0  0.9081106726416412  0.3118270119471138  0.33332706894662434  1.0000
  C   C591      1.0  0.9390214480652982  0.3161914671326314  0.29322121638690524  1.0000
  C   C592      1.0  0.944405380523489  0.31828855740926315  0.35778399976569986  1.0000
  H   H869      1.0  0.9578379250479028  0.2782522297478264  0.3253914222477184  1.0000
  H   H870      1.0  0.9309045123546382  0.2734602253092261  0.3073659898565196  1.0000
  H   H871      1.0  0.9349121936210073  0.27479793836901967  0.35557204894040506  1.0000
  H   H872      1.0  0.9027021811007545  0.3051923712014457  0.35968282338509855  1.0000
  H   H873      1.0  0.9026012010698906  0.33044757684318776  0.3326756064255703  1.0000
  H   H874      1.0  0.8988618093241374  0.3037241840586197  0.311443328540838  1.0000
  H   H875      1.0  0.9304408353251865  0.3083081056005819  0.27038489014578393  1.0000
  H   H876      1.0  0.9574627022014515  0.3126923698811524  0.28874277138829385  1.0000
  H   H877      1.0  0.9345064908114802  0.33493298597798815  0.2915315201036737  1.0000
  H   H878      1.0  0.9399550101553058  0.3371065748573125  0.35760157075911525  1.0000
  H   H879      1.0  0.9630193163259391  0.31511363358745176  0.3548111867929372  1.0000
  H   H880      1.0  0.9400263161635997  0.31201278926891174  0.38493139585019714  1.0000
  N   N53       1.0  0.1672054043951849  0.5629630069475386  0.5085246274668804  1.0000
  C   C593      1.0  0.18038851329809674  0.5673446655240924  0.4759937514611587  1.0000
  C   C594      1.0  0.1432335678547931  0.5631404939908559  0.4984760095417357  1.0000
  C   C595      1.0  0.16959315534725833  0.5808635080926648  0.5358575542456042  1.0000
  C   C596      1.0  0.1755962131063606  0.5404458736355701  0.5235780360518028  1.0000
  H   H881      1.0  0.19855224960196377  0.5675207153239282  0.48244095751718835  1.0000
  H   H882      1.0  0.1743868867107283  0.5840497781708817  0.46345358097330513  1.0000
  H   H883      1.0  0.17908163255806084  0.5540465287454874  0.4549658812146301  1.0000
  H   H884      1.0  0.14078832143032427  0.5494354339545283  0.4785865249005771  1.0000
  H   H885      1.0  0.13264111002000775  0.5604193275836583  0.5224275163322984  1.0000
  H   H886      1.0  0.13649991437289288  0.579629152347074  0.4859054470974239  1.0000
  H   H887      1.0  0.18749425015670074  0.5813277344004273  0.543870202725571  1.0000
  H   H888      1.0  0.15984012335128428  0.5781634630714881  0.5607927487048868  1.0000
  H   H889      1.0  0.16336881060743058  0.5980490643972752  0.5253005361651134  1.0000
  H   H890      1.0  0.1660308295529176  0.5363522963481683  0.5480445328452671  1.0000
  H   H891      1.0  0.1937037116417246  0.53950579679425  0.531244494904515  1.0000
  H   H892      1.0  0.1740812978626485  0.5266056496872569  0.5034874299390413  1.0000
  N   N54       1.0  0.18647933215767803  0.5566248558406797  0.697517873264605  1.0000
  C   C597      1.0  0.19935474972267328  0.574679933640919  0.6836097533633628  1.0000
  C   C598      1.0  0.16705000985711124  0.5670084441206834  0.718585587894195  1.0000
  C   C599      1.0  0.20118697509232109  0.5412353712182884  0.7211401908031657  1.0000
  C   C600      1.0  0.17830716196683613  0.5436751057803153  0.6668847153692339  1.0000
  H   H893      1.0  0.21399043934938022  0.5674177031570272  0.6671892302615672  1.0000
  H   H894      1.0  0.20601225460909584  0.5845056291606153  0.7062350235083779  1.0000
  H   H895      1.0  0.1886608303906964  0.5869798969200584  0.6663785154614119  1.0000
  H   H896      1.0  0.155185139205061  0.5782205811425202  0.7014441859755668  1.0000
  H   H897      1.0  0.15758488612321858  0.5538540687272704  0.7310917005062008  1.0000
  H   H898      1.0  0.1726741580934553  0.5776249621025223  0.7409089510818337  1.0000
  H   H899      1.0  0.2155299282640508  0.5322347598370811  0.7058403425411908  1.0000
  H   H900      1.0  0.19182525298319725  0.5278975602412784  0.7333904020147901  1.0000
  H   H901      1.0  0.20825454999935428  0.5507289185601193  0.7437723991973001  1.0000
  H   H902      1.0  0.16858202625277693  0.5298802505253792  0.6765941843781077  1.0000
  H   H903      1.0  0.1925458643278879  0.5354022302507758  0.6505655279141597  1.0000
  H   H904      1.0  0.16718981114807843  0.5548690675436834  0.6486117014124152  1.0000
  N   N55       1.0  0.14146896312342436  0.7244551375283198  0.847948680583916  1.0000
  C   C601      1.0  0.1492252805884219  0.7442649900252177  0.82942828089503  1.0000
  C   C602      1.0  0.12344792775474399  0.7322400684800242  0.8738378904072495  1.0000
  C   C603      1.0  0.16051610200045363  0.711836805938848  0.867490658879304  1.0000
  C   C604      1.0  0.13269811896991496  0.7093108771627893  0.820817649034884  1.0000
  H   H905      1.0  0.16210684698698805  0.7388912363257378  0.8086778977097783  1.0000
  H   H906      1.0  0.1568596478430628  0.7556440209179477  0.8488413379622883  1.0000
  H   H907      1.0  0.13511483010945702  0.7547053012501976  0.8155683312354631  1.0000
  H   H908      1.0  0.11705171509803004  0.7177020769226873  0.8879964395668134  1.0000
  H   H909      1.0  0.12956034272112743  0.7435787134084242  0.8948239943629444  1.0000
  H   H910      1.0  0.10905077862539195  0.7422530914400554  0.8600060820415456  1.0000
  H   H911      1.0  0.15508673095191292  0.6975652211995995  0.883613881142573  1.0000
  H   H912      1.0  0.1688803493964348  0.7230469819536358  0.8862768621604169  1.0000
  H   H913      1.0  0.17353362718714113  0.7043497221207025  0.8483131678652075  1.0000
  H   H914      1.0  0.12780151545535234  0.69364750621296  0.8337807168278788  1.0000
  H   H915      1.0  0.1455765588295444  0.7038602863322175  0.7999209291484083  1.0000
  H   H916      1.0  0.11771238002352057  0.7178021656977189  0.8064068782156547  1.0000
  N   N56       1.0  0.5355133210077405  0.16667783303134892  0.35563649089974825  1.0000
  C   C605      1.0  0.5223772689548014  0.18617225071361695  0.3735931089839798  1.0000
  C   C606      1.0  0.5261592186465966  0.14548248043368844  0.36558793133986023  1.0000
  C   C607      1.0  0.559279709256006  0.16528999297666497  0.3674927656052797  1.0000
  C   C608      1.0  0.5341139110445217  0.16964740344907622  0.3159544454493468  1.0000
  H   H917      1.0  0.5284569546464762  0.20259066172403287  0.3658683235160924  1.0000
  H   H918      1.0  0.5235660824572624  0.18472802114866707  0.4036062572821661  1.0000
  H   H919      1.0  0.5041804867773572  0.18714433711465195  0.3662487382198218  1.0000
  H   H920      1.0  0.5363014583689443  0.13025943495274755  0.3541056728079084  1.0000
  H   H921      1.0  0.5256145517647803  0.14347617062714055  0.3954934328981841  1.0000
  H   H922      1.0  0.5087034614321262  0.14530081207487927  0.3553380397544733  1.0000
  H   H923      1.0  0.5697760422531054  0.15095351373895124  0.3540116260830246  1.0000
  H   H924      1.0  0.5609125989624167  0.1623400272711168  0.3972276564018696  1.0000
  H   H925      1.0  0.5668432912826734  0.18117296075714132  0.36122798460613553  1.0000
  H   H926      1.0  0.5162977965157184  0.17084140464630262  0.3063926025664076  1.0000
  H   H927      1.0  0.5436021985965818  0.1550378906000702  0.3016181239150601  1.0000
  H   H928      1.0  0.5411565495049669  0.18541516398833482  0.30733657531294895  1.0000
  N   N57       1.0  0.0933209607290983  0.405760133724722  0.36292442202680497  1.0000
  C   C609      1.0  0.07083589781961491  0.4186424357419311  0.3583771432025574  1.0000
  C   C610      1.0  0.11005279852951258  0.4164991336945123  0.34135911735267477  1.0000
  C   C611      1.0  0.09264918696106354  0.38204013031170886  0.35063483347648233  1.0000
  C   C612      1.0  0.09976347126907256  0.4058707886453696  0.4015347628363546  1.0000
  H   H929      1.0  0.05788568077006885  0.41123072332574134  0.37488379050717224  1.0000
  H   H930      1.0  0.0651650613941912  0.418734419234522  0.32965541721725544  1.0000
  H   H931      1.0  0.07078246790418137  0.4366575182718345  0.36728032748003825  1.0000
  H   H932      1.0  0.11138167696788327  0.43426601661909137  0.3504222606770765  1.0000
  H   H933      1.0  0.12714587089605178  0.4069818978663274  0.34389031876461806  1.0000
  H   H934      1.0  0.10563097079174487  0.41694317021894034  0.3120683851220968  1.0000
  H   H935      1.0  0.10929847465339619  0.3718062834085642  0.35422704325040316  1.0000
  H   H936      1.0  0.0882032954918182  0.38124821072690906  0.3214112377236947  1.0000
  H   H937      1.0  0.08008377520878368  0.3734542357897709  0.3661273752339754  1.0000
  H   H938      1.0  0.09995580091946736  0.42351576803197416  0.4118104121972456  1.0000
  H   H939      1.0  0.11683775503426512  0.39694789678417436  0.40619198920945476  1.0000
  H   H940      1.0  0.08788030922299868  0.3973593147333736  0.4185549571537771  1.0000
  N   N58       1.0  0.9557845168112912  0.5483111522182648  0.5683797429966095  1.0000
  C   C613      1.0  0.9389830727909257  0.560042074696171  0.5434214809654246  1.0000
  C   C614      1.0  0.9459259487416417  0.5475030217225226  0.60494329626166  1.0000
  C   C615      1.0  0.9758649842055056  0.5608002571323151  0.5698575072073562  1.0000
  C   C616      1.0  0.9623116277859071  0.5249002615086191  0.5552113686748595  1.0000
  H   H941      1.0  0.9236513701868007  0.5510334412220245  0.5414840534765704  1.0000
  H   H942      1.0  0.9458627367222585  0.5611540343438725  0.5156354584998766  1.0000
  H   H943      1.0  0.9335209685621696  0.5777042348093786  0.5524266755165685  1.0000
  H   H944      1.0  0.9582667282615005  0.5393143851458156  0.6248531470771235  1.0000
  H   H945      1.0  0.9403567598436611  0.5648956576407514  0.6152890549618426  1.0000
  H   H946      1.0  0.9309129878823206  0.5379410868494121  0.6049445624542269  1.0000
  H   H947      1.0  0.9834807604674198  0.5621483518227457  0.542590128623962  1.0000
  H   H948      1.0  0.9889846489792901  0.5523685679074911  0.5882528816489803  1.0000
  H   H949      1.0  0.9715653960985144  0.5784230048264676  0.5801018693398005  1.0000
  H   H950      1.0  0.947511170503489  0.5150369870834892  0.5535632168622984  1.0000
  H   H951      1.0  0.9749528562842733  0.5154687093244869  0.5733529086280572  1.0000
  H   H952      1.0  0.9696911642505236  0.5249167208971224  0.5275652900540531  1.0000
  N   N59       1.0  0.12987667895868515  0.19614208300639446  0.8739311203456251  1.0000
  C   C617      1.0  0.148534758256603  0.19089375022908994  0.8999892465311491  1.0000
  C   C618      1.0  0.10846070071886382  0.2009654052538583  0.893845182318903  1.0000
  C   C619      1.0  0.1285487181070346  0.17645038701153615  0.8496208906291636  1.0000
  C   C620      1.0  0.13397223854051998  0.2162557451109859  0.8522433240514893  1.0000
  H   H953      1.0  0.16509931670663747  0.18777739358306378  0.8860331292420567  1.0000
  H   H954      1.0  0.14634127511093276  0.17548524025301782  0.9162742687843186  1.0000
  H   H955      1.0  0.14962826130181073  0.20516637518242287  0.919339560818771  1.0000
  H   H956      1.0  0.10887439590282533  0.21578050023753748  0.9123825900779534  1.0000
  H   H957      1.0  0.09399645966819303  0.20518089002382855  0.8750507299322899  1.0000
  H   H958      1.0  0.1047568525047502  0.18621053789712216  0.9105650115825108  1.0000
  H   H959      1.0  0.11469233500099918  0.17988761720874513  0.829486008576804  1.0000
  H   H960      1.0  0.12536606641069437  0.16098734510542956  0.8650803124205745  1.0000
  H   H961      1.0  0.1445198970785957  0.1722684444572966  0.8343716469062573  1.0000
  H   H962      1.0  0.12003046110009219  0.22092880793837755  0.8326513333933961  1.0000
  H   H963      1.0  0.14997873262111083  0.21325211676542932  0.8367777939676788  1.0000
  H   H964      1.0  0.1351566526860859  0.2314177039484091  0.8696891785034716  1.0000
  N   N60       1.0  0.19936486171223944  0.3326572095393289  0.8630604038493958  1.0000
  C   C621      1.0  0.18658221749315285  0.3332509888214788  0.897287843946331  1.0000
  C   C622      1.0  0.2226762985313724  0.3223476206227886  0.8697055164943801  1.0000
  C   C623      1.0  0.19958738753197175  0.35609211485867065  0.8492938458108076  1.0000
  C   C624      1.0  0.18861971856657248  0.3188359651732547  0.8360363676957843  1.0000
  H   H965      1.0  0.168713511245894  0.34024349403773485  0.8932197409512401  1.0000
  H   H966      1.0  0.193817453198843  0.34400525713034613  0.9180632251210424  1.0000
  H   H967      1.0  0.18661187933740778  0.3159140631623872  0.9088792614669611  1.0000
  H   H968      1.0  0.23126316138570222  0.33213743616822605  0.8902869361833409  1.0000
  H   H969      1.0  0.2229898024717813  0.3045657002245584  0.8799090778913092  1.0000
  H   H970      1.0  0.23286554866639056  0.32166996188543  0.8444914409870229  1.0000
  H   H971      1.0  0.20845867366768425  0.3563273294898705  0.8228691472558238  1.0000
  H   H972      1.0  0.20803284232501476  0.3668740570876987  0.8686219091766123  1.0000
  H   H973      1.0  0.1822178061422329  0.3645444866922427  0.8450367580341248  1.0000
  H   H974      1.0  0.17101037299269775  0.32602635637939975  0.8303559093794947  1.0000
  H   H975      1.0  0.18810656051354432  0.3010671111363055  0.8456748993705256  1.0000
  H   H976      1.0  0.19784825040699738  0.3179717239413234  0.809878023178123  1.0000
  N   N61       1.0  0.05578501001190528  0.5246936503876504  0.36660365243532433  1.0000
  C   C625      1.0  0.05298086441786776  0.527667437337922  0.4061382250016491  1.0000
  C   C626      1.0  0.06862062905879229  0.5024016315451749  0.3589102097623801  1.0000
  C   C627      1.0  0.06815976289371828  0.5429759151323011  0.35213893588879164  1.0000
  C   C628      1.0  0.03337798574990236  0.5256910679826666  0.3492602156151844  1.0000
  H   H977      1.0  0.04275978897423616  0.5148098782858413  0.41768468312007917  1.0000
  H   H978      1.0  0.04418438506542577  0.5446639223658807  0.41293878328623657  1.0000
  H   H979      1.0  0.06953346745530764  0.5262159597549239  0.42034601053063186  1.0000
  H   H980      1.0  0.0715037034073096  0.49988752998774383  0.3293932263691656  1.0000
  H   H981      1.0  0.08538168844551186  0.5008257838898229  0.37247136785018503  1.0000
  H   H982      1.0  0.05950988926688239  0.48820052115755835  0.36865047987622324  1.0000
  H   H983      1.0  0.07112828918721692  0.5409969873441665  0.3225586195966477  1.0000
  H   H984      1.0  0.08483626708397418  0.5431104891713009  0.3656312010062693  1.0000
  H   H985      1.0  0.05865555677870993  0.5599700790662926  0.3565352190237359  1.0000
  H   H986      1.0  0.023705669603832247  0.5119922541548577  0.35962403494936906  1.0000
  H   H987      1.0  0.03475125711197413  0.5237474625946622  0.31938583498483486  1.0000
  H   H988      1.0  0.023142678351494528  0.5422176091061404  0.35484703470474815  1.0000
  N   N62       1.0  0.8847635212154425  0.7961782986207228  0.9922943879676605  1.0000
  C   C629      1.0  0.9043985509776857  0.8093050753700509  0.9910531540955059  1.0000
  C   C630      1.0  0.8888732337395882  0.7759931011530725  0.968560067873729  1.0000
  C   C631      1.0  0.8644711357004489  0.8106024302870911  0.9796393177465105  1.0000
  C   C632      1.0  0.881355420203002  0.7887684271918768  0.029871848157802198  1.0000
  H   H989      1.0  0.907924322973018  0.8144320905200966  0.9629651551720381  1.0000
  H   H990      1.0  0.9199374910475402  0.7991217083157067  0.0011158501737691395  1.0000
  H   H991      1.0  0.9016716643997055  0.8251152611473811  0.007522180776989851  1.0000
  H   H992      1.0  0.8744424417650974  0.7656306495836149  0.9688145594256705  1.0000
  H   H993      1.0  0.8915730621770537  0.7809770209855561  0.9399653730625227  1.0000
  H   H994      1.0  0.9041069096484473  0.7647271760114529  0.9773076774445013  1.0000
  H   H995      1.0  0.8662797602009527  0.8159937261180639  0.9510694768404074  1.0000
  H   H996      1.0  0.8611393385556425  0.8263700991520485  0.9961629876026561  1.0000
  H   H997      1.0  0.8492294160415068  0.8014059071106568  0.980795577742243  1.0000
  H   H998      1.0  0.8667619639676142  0.7786733824131059  0.031791493459246034  1.0000
  H   H999      1.0  0.8781950331088444  0.8035611037330332  0.048522346615119456  1.0000
  H   H1000     1.0  0.8964013649955572  0.7777969992725761  0.04012559756733603  1.0000
  N   N63       1.0  0.8299868298323378  0.014247386387803429  0.027425232303948777  1.0000
  C   C633      1.0  0.8445126154487033  0.9923996001639249  0.02997219998722689  1.0000
  C   C634      1.0  0.8250837605477157  0.023343647518903055  0.06423118412502182  1.0000
  C   C635      1.0  0.8086783437303952  0.010608254969687536  0.00905697804489658  1.0000
  C   C636      1.0  0.8416278108112362  0.03061365811888206  0.006302559364413041  1.0000
  H   H1001     1.0  0.8480825876008459  0.9847796451015473  0.0026952687149424115  1.0000
  H   H1002     1.0  0.8363555477679707  0.9797157893433802  0.04608286232406855  1.0000
  H   H1003     1.0  0.8608777889880542  0.9945536722022601  0.043192383446758686  1.0000
  H   H1004     1.0  0.8138591022033057  0.039653224032362155  0.06328249055538704  1.0000
  H   H1005     1.0  0.8165221621134291  0.011252973319770154  0.08102989385056825  1.0000
  H   H1006     1.0  0.8407184570434734  0.02658593452096425  0.0788359796103768  1.0000
  H   H1007     1.0  0.8117840146200389  0.0035632281265005616  0.9813023308208854  1.0000
  H   H1008     1.0  0.7973801196898034  0.026827197277219827  0.006514537223675898  1.0000
  H   H1009     1.0  0.7994381025512874  0.9983312561114548  0.02418879266058438  1.0000
  H   H1010     1.0  0.8453851552329602  0.024286691644277436  0.9782867846736283  1.0000
  H   H1011     1.0  0.8578476939750374  0.03377357462896291  0.01909441363035569  1.0000
  H   H1012     1.0  0.8311579395262665  0.04730773353607587  0.0038439902222113798  1.0000
  N   N64       1.0  0.07533102579799825  0.27872985232373026  0.3273065979862662  1.0000
  C   C637      1.0  0.0916794687702808  0.2905735203415194  0.30677006868879914  1.0000
  C   C638      1.0  0.06339084216291227  0.2947905654549223  0.35329461739095236  1.0000
  C   C639      1.0  0.0874454937874734  0.2593293498814475  0.3469858930805229  1.0000
  C   C640      1.0  0.05891060475466747  0.27025322388656936  0.3020353960856419  1.0000
  H   H1013     1.0  0.10428365287982984  0.2973783110934496  0.3249265856750698  1.0000
  H   H1014     1.0  0.08320130169928065  0.30505701617328507  0.2908794534876746  1.0000
  H   H1015     1.0  0.10121134316603682  0.27883008888324734  0.2873983295736324  1.0000
  H   H1016     1.0  0.05063528160765198  0.2865945340099312  0.36896322636228857  1.0000
  H   H1017     1.0  0.07527118650432257  0.3014039320235318  0.3728951885915788  1.0000
  H   H1018     1.0  0.05431339075795536  0.309686492973714  0.3390644883682423  1.0000
  H   H1019     1.0  0.09682199746088428  0.24706332491465743  0.32792145775896997  1.0000
  H   H1020     1.0  0.07566537170486821  0.24981764658111727  0.3625922853722914  1.0000
  H   H1021     1.0  0.10007005788217672  0.26507447966450326  0.36616559245810615  1.0000
  H   H1022     1.0  0.050871724624947726  0.28408986425890403  0.2843869062564107  1.0000
  H   H1023     1.0  0.04522142349215241  0.26286522103067766  0.3166755242910115  1.0000
  H   H1024     1.0  0.06707553318122825  0.25674836908716414  0.2840106077733062  1.0000
