data_image0
_chemical_formula_structural       FeS2FeS2FeSFeS3CHSH3FeS4FeSHSCFeS2H2S2CH3CH2CHC6H4C6H4C6H4C6HCHNC4H10C2NFeHSHCFeHCHFeCH5CSHNCHFeHCHCSHSC4H2C2SH4CHFeH2NH4SC2H2CH5CNHCH6SH4C2HSFeCNHC2HSFeCHFeCNC2H4SHC4HCHCSH2C2FeH4CH2SH2CH2NH4C3HSH5CH3C3H2CH7CFeH3CH2CH5SH4CH3C2HCH4NH6CHFeS2FeS2HFeS3FeS2FeS2HFeS3FeS2FeSFeH2FeS2FeS2FeSFeS3C6H2CHC6H4C6H4C6H4C6H4C6H4C6H3SH2FeHC2H5NC4H12NHCH4CH6CH2NC4H11NC2HNCHS2H2CHFeH7NHCH2CHCH2CHCH2SH2N2H4CSH4C2H2CHC2H2CH2CH3SFeCFeS2FeS2Fe2H2C2HC4SNH3CH3SH2CHCH2SCH2CH3SCHC2H2Fe2S2Fe2CS2CFeSH2CH4C4NH2C6H4C3HS2HNHC2HC2H4SHSH9CH2SHCSC2HFeCSHSH2CH2CHFeSH2C2HSH6C2HNHCSH4CFe2C4Fe2SHFeS2H2CH2C4H4C3H5CSH2NCSCH3CH4CH2CH3NSCHNC2H2CHCH2SHCH2FeS4H4SC4H2FeC4HCH6S2CH4CSCFe3HC2HCHSHCSHFeCHCH4C2FeNH2CH3C2H2S2NHNCHCSH2CNCHC2N2CH2CHSHCHCHCS2FeS2HC4H3CHCHFeH2SH5CH6C2HCH4CH3CH3CHC2H2NH3SCFeSCFeS2Fe2S2H2SCS2H4FeH3CHC2SNHC3HCH3SC6FeH5C6H2FeHCHC2HSHSNHCHCFeH2CH2SFeH2C3H4FeCSC2H3SFeH2CSHFeSH3CSNH4CSH2C3SC2H3C5H2CHFeCHCH3CH4SH3SH3CH3SCFeC2FeCSHCH3SCNCFeS2FeSCH2CHSHSH2CHSH2FeH3CSHCH2C2HCSC2HFeH2C2H4CH8NCSHCHSC4HSH7C3HFeNHNH3CHFeS2FeS2FeSFeS3H2SHSFeS2FeSCFeSFeS3CSHFeSC2H4SHSC3HC6H4C6H4C6H4C6H2FeHCHSC2H2CHCHFeHC3H2CHCH8FeHCHNCHCHSCNH2CH6C4FeHSCNH7CH2SHSH4C2H6NC3NH2S2CH5FeH2CHCH5CHCH2CHCH4NHNCHSC2H2NCH3CSH3C2SHFeHCH2FeCH5CH2CHC2H2CSHCHFeS2FeSFeSCFeS2FeS2FeSFeS3FeSFeS2FeHFeS2FeS2C5HCHC6H4C6H7C4H3C6H4C6HCHCHNHCSH5CNC4H12NHCHSH3SCH5NC4H12S2CH4CH2C4FeH2CH2FeHNC2H5CH2SH2SCFeHC2HCH2SH6CH3SCH3CH2NHSH2NHCH3CHCH2C2HCHSH4C2H2FeH4SHCHNH2C2SCHSHCFeH2C3NCHC2H2SHCHC2FeS2CH2FeSCHSHFeS2H2FeSFeHS2FeSCFeS2FeSFeS3CSHSHFeCFeCH2CFeCH2CHCHSC7H3CH3C2FeNSCH7C2SH2FeCH2C3HC2HNH2C2HNH2C6H4C6H4SNH5CH2CH2SHCHCH5C2H2S2H2NC4FeHCHCH2SCH2CHNCHSH5NCS2HCH2CH2C2HCHCH2C4HCHCH6CH2CHCHFeH4CH2FeHC3HSFeSH2SCHC2HC4H2C2HCH2FeC2HCH2SCH4CNCHCH2NHSH3S2HC3FeHSCHCHCH3FeS3CNH2SHSH2C2HCH14C2FeS2FeS2FeSFeHS3FeSCFeHFeHS2HFeCSCFeSCFeHSHFeSCSC2HC2HC7HSH3SCH3C6H5SC2H2CHCH2NHSH3CH2CH2CH2SHCHC3H2NH3NC2HSFeSC2H3C2H2CH3CSH2CHFeH4C2H6C3HCHFeCHCSC3HC3HCH2CNH2SHFeH4CH2SH2CHSCH4SH4CSHCH2CSHCHCH3C3HC2SH3SH4CH2CH2C2FeHCH3SCHCHNCH2CSHSCFeS2FeS2Fe2S3FeSH2CFeSHFeS2FeHFeCFeHS2H2FeHFeS3FeHFeS3HCH3CHSFeC8HCSH4CH3C6H4C6H5C2SH5C6H4CHCNCH8CHCSH2FeH4CSCHNC3H2NHC2NHSC2NHC2H4CH4CH2CH2CH2SCH4SHC2HCHSHFeH4CHC2HNH3SHFeSFeSCFe2SHS3H5CH2C2H3C2H2C2H4C6H6C7H4SNHC2NCH4SC2H5NC4H12CH3SC2H2C2SNH11CHSC2H2C3H2CNCHFe2S6Fe2S2H2SHFeSH2CFeCH2C2H2CHCS3H2CHCHCH4CH3C2SHCHCHFe2H2C2HC2NHSFeH5C3FeSCSNHFeSHC2HSC2H4SHCHCHSFeNH2SHCH2SH3C2H2CHCH3CH4CSNH2CH3SCHCSH2CH2SC2HFeSH2FeC2H3CHNHCHCH2CH2C2HSCH4C4H4CH2CH2FeH3CH3FeS2FeS2FeSFeS4FeSHFeSHFeCFeSHSHFeS2FeS2FeSFeCS2FeSHC3H2NHCSHC7H4CHC4H6SCHCHSC6H4C6H5C2SHCH3C2SC6H2NC4H12NC3H2CH13NHCH5C2HCHSH3CHCH2CH5CH2C2HCH2CHSFeH3C2HSHNH3S2CH2CHCH4SH2FeHCSH4FeH2CH2C2H3C5SCHN2SCH3NHC3HCH4CH3CH2CH3C4HFeS2FeS2HFeS4FeS2FeS2FeSFeS3FeS2FeS2FeSFeS3FeS2FeS2Fe2S3HC6H5NHC2H2CH2C6H4C6H4C6H4C6H4C6H4C6H4NC4H12C2H6NFeH3CH2CHC2HC2H2CHCH2NHCH2CH6C2H3CH6CNHCH3CH9NH2CH2CHCH2CH2C2H4C2HNH4CH7C2NH3CH3CHNHC2SCH5FeH7CH2SHCH4CH3CH2C2H2CFeN2H2SCHCH3SH3CH5CH5CFeHFeHCHNCHCNSHCHCHSHC2H4CHCHCH2SHCH4CHCHNC2H8CSCSNSC4HCHFeCH2CHCHCHCH8CS2HC2H2CH3NSHSC3H2SC2HFeSCSC2H2C2H7CH4C3HC2HC2HNC2H5SH2FeH3CSH5NH3FeS2FeH2Fe2S3FeS2FeS2FeSFeS3FeH2CSFeS2FeS2FeSFeS3HSC2HC3HNCHC5H3CHC6H4C6H5C3H2C6H4C6H2CH2SHCH2CHSHCH2SFeH2SNSCH3CHC3NCNC2H2NH3SHC2HC2H9NHCH4CH6CHCH2NHC2H3SCSH7SHC3H6NCHCHFeHCH2C3H3CH2CH4CHCHSCH3FeC3H2C2H2C2H9CH8CFeSHSFeSFeHSHCHSFeHFeS2FeHFeS3HFeS2FeS2FeSFeS3FeS2Fe2S3HC6H4CHC4H3C6H5C2HC6H4C6H4C3H4C2HFeH2NCH2CH6CH11CSH4CSH5NC4H8FeCHCH2CHC3NHCS3CHC3H2CHSHCH6CNH2CHCHCFeHC2H3CH3CHC2NHCH4CH5NHCNSCNHC
_chemical_formula_sum              "Fe256 S512 C1280 H2048 N128"
_cell_length_a       81.5578
_cell_length_b       81.5606
_cell_length_c       81.5718
_cell_angle_alpha    75.4747
_cell_angle_beta     75.2346
_cell_angle_gamma    75.5287

_space_group_name_H-M_alt    "P 1"
_space_group_IT_number       1

loop_
  _space_group_symop_operation_xyz
  'x, y, z'

loop_
  _atom_site_type_symbol
  _atom_site_label
  _atom_site_symmetry_multiplicity
  _atom_site_fract_x
  _atom_site_fract_y
  _atom_site_fract_z
  _atom_site_occupancy
  Fe  Fe1       1.0  0.17881  0.14061  0.09882  1.0000
  S   S1        1.0  0.17699  0.16604  0.08033  1.0000
  S   S2        1.0  0.20472  0.12732  0.10492  1.0000
  Fe  Fe2       1.0  0.14024  0.14318  0.10672  1.0000
  S   S3        1.0  0.13521  0.16901  0.08910  1.0000
  S   S4        1.0  0.11862  0.13003  0.12194  1.0000
  Fe  Fe3       1.0  0.15791  0.15710  0.07065  1.0000
  S   S5        1.0  0.16030  0.15982  0.04187  1.0000
  Fe  Fe4       1.0  0.15473  0.17497  0.10080  1.0000
  S   S6        1.0  0.15324  0.19960  0.10940  1.0000
  S   S7        1.0  0.16168  0.13073  0.08763  1.0000
  S   S8        1.0  0.15775  0.15004  0.11989  1.0000
  C   C1        1.0  0.07368  0.04226  0.18565  1.0000
  H   H1        1.0  0.09802  0.12493  0.16875  1.0000
  S   S9        1.0  0.11393  0.12443  0.01485  1.0000
  H   H2        1.0  0.12900  0.14640  0.05866  1.0000
  H   H3        1.0  0.11819  0.13121  0.15753  1.0000
  H   H4        1.0  0.14609  0.07727  0.11452  1.0000
  Fe  Fe5       1.0  0.17183  0.05873  0.17663  1.0000
  S   S10       1.0  0.04061  0.10084  0.18273  1.0000
  S   S11       1.0  0.19922  0.06120  0.16413  1.0000
  S   S12       1.0  0.15713  0.04342  0.16843  1.0000
  S   S13       1.0  0.15093  0.08250  0.17652  1.0000
  Fe  Fe6       1.0  0.17636  0.19009  0.19781  1.0000
  S   S14       1.0  0.18981  0.19730  0.17001  1.0000
  H   H5        1.0  0.11542  0.07783  0.11521  1.0000
  S   S15       1.0  0.15972  0.17049  0.20454  1.0000
  C   C2        1.0  0.13736  0.07788  0.08460  1.0000
  Fe  Fe7       1.0  0.04175  0.16334  0.17787  1.0000
  S   S16       1.0  0.02979  0.17044  0.20371  1.0000
  S   S17       1.0  0.05575  0.18121  0.15660  1.0000
  H   H6        1.0  0.13843  0.06489  0.09326  1.0000
  H   H7        1.0  0.14146  0.10008  0.11298  1.0000
  S   S18       1.0  0.05911  0.13905  0.18800  1.0000
  S   S19       1.0  0.02103  0.14974  0.17777  1.0000
  C   C3        1.0  0.11506  0.09060  0.10621  1.0000
  H   H8        1.0  0.12783  0.07892  0.07654  1.0000
  H   H9        1.0  0.10480  0.09250  0.09879  1.0000
  H   H10       1.0  0.08807  0.07837  0.13890  1.0000
  C   C4        1.0  0.14506  0.08986  0.10515  1.0000
  H   H11       1.0  0.15015  0.07848  0.07569  1.0000
  H   H12       1.0  0.13021  0.21306  0.18098  1.0000
  C   C5        1.0  0.10449  0.03704  0.17483  1.0000
  H   H13       1.0  0.14805  0.01065  0.17166  1.0000
  C   C6        1.0  0.10086  0.14491  0.13017  1.0000
  C   C7        1.0  0.10262  0.16155  0.13019  1.0000
  C   C8        1.0  0.08851  0.17305  0.13768  1.0000
  C   C9        1.0  0.07274  0.16781  0.14530  1.0000
  C   C10       1.0  0.07098  0.15124  0.14510  1.0000
  C   C11       1.0  0.08505  0.13977  0.13760  1.0000
  H   H14       1.0  0.11490  0.16549  0.12469  1.0000
  H   H15       1.0  0.08988  0.18585  0.13787  1.0000
  H   H16       1.0  0.05875  0.14721  0.15076  1.0000
  H   H17       1.0  0.08369  0.12686  0.13773  1.0000
  C   C12       1.0  0.20333  0.10798  0.12001  1.0000
  C   C13       1.0  0.21800  0.09836  0.12635  1.0000
  C   C14       1.0  0.21675  0.08364  0.13952  1.0000
  C   C15       1.0  0.20086  0.07845  0.14632  1.0000
  C   C16       1.0  0.18630  0.08775  0.13958  1.0000
  C   C17       1.0  0.18750  0.10260  0.12651  1.0000
  H   H18       1.0  0.23028  0.10242  0.12125  1.0000
  H   H19       1.0  0.22805  0.07639  0.14460  1.0000
  H   H20       1.0  0.17415  0.08348  0.14433  1.0000
  H   H21       1.0  0.17616  0.10988  0.12153  1.0000
  C   C18       1.0  0.16293  0.19837  0.12676  1.0000
  C   C19       1.0  0.17031  0.21215  0.12662  1.0000
  C   C20       1.0  0.17853  0.21161  0.13993  1.0000
  C   C21       1.0  0.17870  0.19767  0.15400  1.0000
  C   C22       1.0  0.17080  0.18405  0.15454  1.0000
  C   C23       1.0  0.16310  0.18430  0.14081  1.0000
  H   H22       1.0  0.17002  0.22317  0.11596  1.0000
  H   H23       1.0  0.08669  0.21994  0.17108  1.0000
  H   H24       1.0  0.17099  0.17319  0.16532  1.0000
  H   H25       1.0  0.15710  0.17377  0.14121  1.0000
  C   C24       1.0  0.14788  0.14906  0.03482  1.0000
  C   C25       1.0  0.15272  0.14611  0.01784  1.0000
  C   C26       1.0  0.14264  0.13823  0.01166  1.0000
  C   C27       1.0  0.12748  0.13351  0.02234  1.0000
  C   C28       1.0  0.12275  0.13631  0.03937  1.0000
  C   C29       1.0  0.13294  0.14398  0.04564  1.0000
  H   H26       1.0  0.16437  0.14986  0.00949  1.0000
  C   C30       1.0  0.21755  0.22589  0.25519  1.0000
  H   H27       1.0  0.11098  0.13278  0.04765  1.0000
  N   N1        1.0  0.11181  0.13138  0.18475  1.0000
  C   C31       1.0  0.10245  0.12189  0.20088  1.0000
  C   C32       1.0  0.12992  0.12955  0.18610  1.0000
  C   C33       1.0  0.10353  0.14989  0.18201  1.0000
  C   C34       1.0  0.11151  0.12417  0.16994  1.0000
  H   H28       1.0  0.10356  0.12596  0.21252  1.0000
  H   H29       1.0  0.10748  0.10772  0.20253  1.0000
  H   H30       1.0  0.08848  0.12396  0.20106  1.0000
  H   H31       1.0  0.13758  0.13577  0.17382  1.0000
  H   H32       1.0  0.13063  0.13559  0.19666  1.0000
  H   H33       1.0  0.13626  0.11569  0.18914  1.0000
  H   H34       1.0  0.11029  0.15730  0.16989  1.0000
  H   H35       1.0  0.10346  0.15570  0.19301  1.0000
  H   H36       1.0  0.08988  0.15186  0.18078  1.0000
  H   H37       1.0  0.11817  0.11039  0.17119  1.0000
  C   C35       1.0  0.12962  0.21801  0.16705  1.0000
  C   C36       1.0  0.08456  0.08270  0.15104  1.0000
  N   N2        1.0  0.13210  0.09179  0.09464  1.0000
  Fe  Fe8       1.0  0.13541  0.06625  0.17095  1.0000
  H   H38       1.0  0.05717  0.08799  0.15171  1.0000
  S   S20       1.0  0.11914  0.07501  0.15076  1.0000
  H   H39       1.0  0.15811  0.09072  0.09693  1.0000
  C   C37       1.0  0.06709  0.08803  0.15833  1.0000
  Fe  Fe9       1.0  0.01045  0.15449  0.20477  1.0000
  H   H40       1.0  0.14354  0.11017  0.07367  1.0000
  C   C38       1.0  0.13091  0.10874  0.08259  1.0000
  H   H41       1.0  0.12127  0.11056  0.07445  1.0000
  Fe  Fe10      1.0  0.14744  0.03455  0.19682  1.0000
  C   C39       1.0  0.09742  0.08272  0.15957  1.0000
  H   H42       1.0  0.02140  0.18544  0.24953  1.0000
  H   H43       1.0  0.12591  0.12350  0.22922  1.0000
  H   H44       1.0  0.99695  0.15682  0.28515  1.0000
  H   H45       1.0  0.11098  0.10056  0.11441  1.0000
  H   H46       1.0  0.16783  0.07983  0.22491  1.0000
  C   C40       1.0  0.16770  0.11943  0.23206  1.0000
  S   S21       1.0  0.19046  0.17834  0.21971  1.0000
  H   H47       1.0  0.07390  0.05471  0.18884  1.0000
  N   N3        1.0  0.01474  0.16047  0.26066  1.0000
  C   C41       1.0  0.09276  0.08804  0.17545  1.0000
  H   H48       1.0  0.08763  0.01543  0.16915  1.0000
  Fe  Fe11      1.0  0.14220  0.07081  0.20436  1.0000
  H   H49       1.0  0.20378  0.13519  0.15689  1.0000
  C   C42       1.0  0.22912  0.17981  0.10690  1.0000
  H   H50       1.0  0.12684  0.11957  0.08969  1.0000
  C   C43       1.0  0.02752  0.17147  0.25142  1.0000
  S   S22       1.0  0.13158  0.08956  0.22247  1.0000
  H   H51       1.0  0.22390  0.18805  0.11683  1.0000
  S   S23       1.0  0.16424  0.04795  0.20508  1.0000
  C   C44       1.0  0.10422  0.16377  0.23055  1.0000
  C   C45       1.0  0.14195  0.99975  0.17802  1.0000
  C   C46       1.0  0.20673  0.17197  0.26335  1.0000
  C   C47       1.0  0.09844  0.22298  0.17328  1.0000
  H   H52       1.0  0.06246  0.03722  0.19462  1.0000
  H   H53       1.0  0.21929  0.11047  0.18673  1.0000
  C   C48       1.0  0.06246  0.09391  0.17390  1.0000
  C   C49       1.0  0.16299  0.09303  0.22666  1.0000
  S   S24       1.0  0.15695  0.20911  0.21231  1.0000
  H   H54       1.0  0.09568  0.13975  0.24289  1.0000
  H   H55       1.0  0.23715  0.16768  0.11284  1.0000
  H   H56       1.0  0.10259  0.08773  0.18228  1.0000
  H   H57       1.0  0.20717  0.13220  0.18696  1.0000
  C   C50       1.0  0.08936  0.01341  0.18267  1.0000
  H   H58       1.0  0.18514  0.09536  0.17492  1.0000
  Fe  Fe12      1.0  0.03733  0.12606  0.19065  1.0000
  H   H59       1.0  0.17112  0.12247  0.19639  1.0000
  H   H60       1.0  0.23113  0.17145  0.07643  1.0000
  N   N4        1.0  0.09010  0.02972  0.18701  1.0000
  H   H61       1.0  0.21581  0.11349  0.15652  1.0000
  H   H62       1.0  0.07125  0.04535  0.17227  1.0000
  H   H63       1.0  0.23018  0.15247  0.09337  1.0000
  H   H64       1.0  0.18459  0.22216  0.13944  1.0000
  S   S25       1.0  0.12459  0.05655  0.19884  1.0000
  C   C51       1.0  0.22252  0.16509  0.08785  1.0000
  C   C52       1.0  0.07530  0.09397  0.18245  1.0000
  H   H65       1.0  0.23784  0.18673  0.09603  1.0000
  H   H66       1.0  0.19254  0.16477  0.11183  1.0000
  C   C53       1.0  0.19389  0.09757  0.18227  1.0000
  H   H67       1.0  0.19854  0.17473  0.12613  1.0000
  H   H68       1.0  0.10151  0.00367  0.18381  1.0000
  H   H69       1.0  0.19463  0.11970  0.15171  1.0000
  H   H70       1.0  0.18881  0.09278  0.19621  1.0000
  H   H71       1.0  0.08250  0.02047  0.21443  1.0000
  C   C54       1.0  0.20375  0.16708  0.11575  1.0000
  N   N5        1.0  0.21503  0.17614  0.10088  1.0000
  H   H72       1.0  0.01654  0.16276  0.28579  1.0000
  C   C55       1.0  0.20473  0.19256  0.09308  1.0000
  H   H73       1.0  0.20055  0.11466  0.20341  1.0000
  H   H74       1.0  0.19937  0.20140  0.10241  1.0000
  H   H75       1.0  0.21087  0.15423  0.12141  1.0000
  H   H76       1.0  0.19350  0.19039  0.08906  1.0000
  H   H77       1.0  0.21227  0.16198  0.08308  1.0000
  H   H78       1.0  0.21263  0.19949  0.08144  1.0000
  S   S26       1.0  0.14262  0.00743  0.20890  1.0000
  H   H79       1.0  0.10294  0.03981  0.16118  1.0000
  H   H80       1.0  0.20675  0.08917  0.17864  1.0000
  H   H81       1.0  0.10528  0.04934  0.17774  1.0000
  H   H82       1.0  0.17794  0.14050  0.18072  1.0000
  C   C56       1.0  0.09297  0.02625  0.20485  1.0000
  C   C57       1.0  0.14570  0.10073  0.22624  1.0000
  H   H83       1.0  0.07173  0.09827  0.19462  1.0000
  S   S27       1.0  0.11359  0.19554  0.21568  1.0000
  Fe  Fe13      1.0  0.04625  0.14533  0.21385  1.0000
  C   C58       1.0  0.17752  0.12659  0.18270  1.0000
  N   N6        1.0  0.19503  0.11599  0.17863  1.0000
  H   H84       1.0  0.14548  0.14026  0.23342  1.0000
  C   C59       1.0  0.20602  0.11844  0.18936  1.0000
  C   C60       1.0  0.20266  0.12138  0.16013  1.0000
  H   H85       1.0  0.16913  0.12538  0.17442  1.0000
  S   S28       1.0  0.02575  0.12987  0.21769  1.0000
  Fe  Fe14      1.0  0.17188  0.16016  0.22767  1.0000
  C   C61       1.0  0.13938  0.11765  0.22905  1.0000
  H   H86       1.0  0.10544  0.01708  0.20624  1.0000
  Fe  Fe15      1.0  0.14096  0.18840  0.22057  1.0000
  C   C62       1.0  0.08565  0.18432  0.21275  1.0000
  N   N7        1.0  0.11442  0.21425  0.16302  1.0000
  C   C63       1.0  0.07469  0.17252  0.21607  1.0000
  C   C64       1.0  0.17387  0.10224  0.22996  1.0000
  H   H87       1.0  0.07855  0.00755  0.19147  1.0000
  H   H88       1.0  0.12628  0.21421  0.13624  1.0000
  H   H89       1.0  0.11240  0.19322  0.00186  1.0000
  H   H90       1.0  0.11716  0.02820  0.17566  1.0000
  S   S29       1.0  0.15184  0.17651  0.24463  1.0000
  H   H91       1.0  0.09354  0.03829  0.20859  1.0000
  C   C65       1.0  0.02354  0.14209  0.26290  1.0000
  C   C66       1.0  0.07814  0.15647  0.22709  1.0000
  C   C67       1.0  0.10046  0.18004  0.21996  1.0000
  C   C68       1.0  0.15043  0.12711  0.23154  1.0000
  H   H92       1.0  0.08249  0.19690  0.20469  1.0000
  C   C69       1.0  0.19724  0.23066  0.28158  1.0000
  H   H93       1.0  0.11546  0.19013  0.18132  1.0000
  C   C70       1.0  0.18526  0.22387  0.27661  1.0000
  S   S30       1.0  0.06394  0.14187  0.23231  1.0000
  H   H94       1.0  0.06334  0.17603  0.21042  1.0000
  H   H95       1.0  0.21994  0.16557  0.25762  1.0000
  C   C71       1.0  0.11518  0.19539  0.16739  1.0000
  C   C72       1.0  0.09294  0.15214  0.23431  1.0000
  Fe  Fe16      1.0  0.16973  0.19587  0.23512  1.0000
  H   H96       1.0  0.02943  0.13825  0.25020  1.0000
  H   H97       1.0  0.17180  0.17479  0.27233  1.0000
  H   H98       1.0  0.20811  0.18185  0.26992  1.0000
  H   H99       1.0  0.11552  0.16035  0.23628  1.0000
  C   C73       1.0  0.21354  0.23178  0.27088  1.0000
  H   H100      1.0  0.00298  0.08843  0.17517  1.0000
  H   H101      1.0  0.18714  0.09611  0.23065  1.0000
  S   S31       1.0  0.18187  0.13145  0.23435  1.0000
  H   H102      1.0  0.17175  0.15959  0.29242  1.0000
  H   H103      1.0  0.18006  0.17900  0.28882  1.0000
  C   C74       1.0  0.13844  0.99506  0.19606  1.0000
  H   H104      1.0  0.20796  0.13954  0.26035  1.0000
  H   H105      1.0  0.03381  0.16853  0.23843  1.0000
  N   N8        1.0  0.19678  0.15937  0.27543  1.0000
  H   H106      1.0  0.20900  0.21464  0.23813  1.0000
  H   H107      1.0  0.21916  0.14336  0.28467  1.0000
  H   H108      1.0  0.19884  0.14064  0.29900  1.0000
  H   H109      1.0  0.18826  0.15315  0.25527  1.0000
  C   C75       1.0  0.17936  0.16853  0.28263  1.0000
  C   C76       1.0  0.20592  0.15032  0.28966  1.0000
  C   C77       1.0  0.00122  0.16342  0.25053  1.0000
  H   H110      1.0  0.17274  0.22316  0.28505  1.0000
  S   S32       1.0  0.17348  0.20929  0.25558  1.0000
  H   H111      1.0  0.99994  0.17867  0.27659  1.0000
  H   H112      1.0  0.20727  0.15958  0.29700  1.0000
  H   H113      1.0  0.20019  0.17911  0.25247  1.0000
  H   H114      1.0  0.03812  0.16933  0.25852  1.0000
  H   H115      1.0  0.11403  0.23477  0.14050  1.0000
  C   C78       1.0  0.18926  0.21799  0.26091  1.0000
  H   H116      1.0  0.18759  0.13702  0.27471  1.0000
  H   H117      1.0  0.01442  0.13338  0.27016  1.0000
  H   H118      1.0  0.14189  0.21189  0.15936  1.0000
  C   C79       1.0  0.19512  0.14670  0.26608  1.0000
  C   C80       1.0  0.20559  0.21902  0.25025  1.0000
  C   C81       1.0  0.11443  0.22060  0.14436  1.0000
  H   H119      1.0  0.03427  0.13948  0.26993  1.0000
  H   H120      1.0  0.14663  0.13570  0.99870  1.0000
  C   C82       1.0  0.00668  0.16487  0.27782  1.0000
  H   H121      1.0  0.99439  0.17717  0.24832  1.0000
  H   H122      1.0  0.09837  0.21891  0.18740  1.0000
  H   H123      1.0  0.12699  0.18848  0.15969  1.0000
  H   H124      1.0  0.10312  0.21799  0.14088  1.0000
  H   H125      1.0  0.00859  0.09152  0.20253  1.0000
  H   H126      1.0  0.13976  0.99446  0.15414  1.0000
  H   H127      1.0  0.10373  0.19215  0.16476  1.0000
  C   C83       1.0  0.13732  0.99049  0.16810  1.0000
  Fe  Fe17      1.0  0.11760  0.12309  0.98664  1.0000
  H   H128      1.0  0.12997  0.17508  0.00355  1.0000
  H   H129      1.0  0.00680  0.16006  0.23758  1.0000
  H   H130      1.0  0.12936  0.23213  0.16419  1.0000
  C   C84       1.0  0.99438  0.09555  0.20707  1.0000
  H   H131      1.0  0.23006  0.22664  0.24674  1.0000
  H   H132      1.0  0.00683  0.11649  0.17732  1.0000
  C   C85       1.0  0.12499  0.18703  0.99464  1.0000
  H   H133      1.0  0.19386  0.23500  0.29372  1.0000
  H   H134      1.0  0.09827  0.17616  0.99044  1.0000
  H   H135      1.0  0.11634  0.15837  0.99100  1.0000
  H   H136      1.0  0.13421  0.19587  0.99189  1.0000
  H   H137      1.0  0.09720  0.23727  0.16994  1.0000
  S   S33       1.0  0.25742  0.23782  0.31127  1.0000
  H   H138      1.0  0.25810  0.22844  0.50739  1.0000
  H   H139      1.0  0.30333  0.22093  0.37687  1.0000
  H   H140      1.0  0.27966  0.23311  0.46998  1.0000
  H   H141      1.0  0.28011  0.21316  0.48562  1.0000
  C   C86       1.0  0.29423  0.23273  0.37196  1.0000
  H   H142      1.0  0.29977  0.22103  0.47528  1.0000
  H   H143      1.0  0.28209  0.22879  0.37190  1.0000
  H   H144      1.0  0.29427  0.22563  0.34142  1.0000
  C   C87       1.0  0.30608  0.22960  0.34234  1.0000
  C   C88       1.0  0.28576  0.22500  0.48089  1.0000
  H   H145      1.0  0.31179  0.23583  0.32902  1.0000
  C   C89       1.0  0.29152  0.22350  0.50894  1.0000
  H   H146      1.0  0.28609  0.21158  0.51454  1.0000
  H   H147      1.0  0.30570  0.21946  0.50423  1.0000
  H   H148      1.0  0.28968  0.23043  0.51964  1.0000
  H   H149      1.0  0.31552  0.21770  0.34633  1.0000
  N   N9        1.0  0.28309  0.23458  0.49483  1.0000
  H   H150      1.0  0.24941  0.23723  0.39375  1.0000
  H   H151      1.0  0.10292  0.20535  0.97383  1.0000
  H   H152      1.0  0.23965  0.19391  0.76671  1.0000
  H   H153      1.0  0.12086  0.06284  0.95306  1.0000
  H   H154      1.0  0.24416  0.21026  0.73622  1.0000
  H   H155      1.0  0.26566  0.20924  0.72323  1.0000
  C   C90       1.0  0.25710  0.20167  0.73370  1.0000
  H   H156      1.0  0.25551  0.19085  0.72859  1.0000
  Fe  Fe18      1.0  0.02225  0.10968  0.88501  1.0000
  S   S34       1.0  0.02076  0.12008  0.85724  1.0000
  S   S35       1.0  0.01681  0.08331  0.89752  1.0000
  Fe  Fe19      1.0  0.02678  0.14342  0.89068  1.0000
  S   S36       1.0  0.02507  0.15720  0.86341  1.0000
  S   S37       1.0  0.03197  0.15577  0.91009  1.0000
  H   H157      1.0  0.17443  0.00745  0.82133  1.0000
  Fe  Fe20      1.0  0.04248  0.13290  0.85627  1.0000
  S   S38       1.0  0.06700  0.13042  0.83600  1.0000
  S   S39       1.0  0.00351  0.13195  0.89481  1.0000
  S   S40       1.0  0.04567  0.12011  0.88326  1.0000
  Fe  Fe21      1.0  0.14063  0.02941  0.89959  1.0000
  S   S41       1.0  0.14693  0.02667  0.87194  1.0000
  S   S42       1.0  0.16135  0.02948  0.91311  1.0000
  Fe  Fe22      1.0  0.10321  0.02869  0.90390  1.0000
  S   S43       1.0  0.10554  0.02644  0.87654  1.0000
  S   S44       1.0  0.07875  0.02811  0.92385  1.0000
  H   H158      1.0  0.27120  0.20590  0.76795  1.0000
  Fe  Fe23      1.0  0.12234  0.04606  0.86993  1.0000
  S   S45       1.0  0.12038  0.06739  0.84665  1.0000
  S   S46       1.0  0.12616  0.00768  0.90850  1.0000
  S   S47       1.0  0.11738  0.05053  0.89692  1.0000
  Fe  Fe24      1.0  0.10012  0.11390  0.96206  1.0000
  S   S48       1.0  0.11979  0.12199  0.93859  1.0000
  S   S49       1.0  0.07928  0.10254  0.95825  1.0000
  Fe  Fe25      1.0  0.11766  0.14452  0.95046  1.0000
  S   S50       1.0  0.11596  0.17077  0.93330  1.0000
  Fe  Fe26      1.0  0.13900  0.10847  0.95522  1.0000
  H   H159      1.0  0.10378  0.12718  0.82884  1.0000
  H   H160      1.0  0.08699  0.09262  0.84565  1.0000
  Fe  Fe27      1.0  0.14206  0.17078  0.83014  1.0000
  S   S51       1.0  0.16021  0.18820  0.82794  1.0000
  S   S52       1.0  0.11393  0.18298  0.83195  1.0000
  Fe  Fe28      1.0  0.17061  0.13879  0.82986  1.0000
  S   S53       1.0  0.19123  0.15367  0.82685  1.0000
  S   S54       1.0  0.17871  0.10996  0.83504  1.0000
  Fe  Fe29      1.0  0.17216  0.16668  0.84709  1.0000
  S   S55       1.0  0.18025  0.16795  0.87090  1.0000
  Fe  Fe30      1.0  0.17731  0.17358  0.80785  1.0000
  S   S56       1.0  0.18872  0.18707  0.78106  1.0000
  S   S57       1.0  0.15235  0.15064  0.85125  1.0000
  S   S58       1.0  0.15831  0.15727  0.80892  1.0000
  C   C91       1.0  0.10901  0.05840  0.96128  1.0000
  C   C92       1.0  0.21168  0.22098  0.79154  1.0000
  C   C93       1.0  0.20269  0.20774  0.79357  1.0000
  C   C94       1.0  0.19986  0.20361  0.77903  1.0000
  C   C95       1.0  0.20590  0.21288  0.76249  1.0000
  C   C96       1.0  0.12657  0.22156  0.80214  1.0000
  H   H161      1.0  0.12452  0.20871  0.96377  1.0000
  H   H162      1.0  0.19805  0.20068  0.80637  1.0000
  C   C97       1.0  0.11116  0.17091  0.98299  1.0000
  H   H163      1.0  0.13125  0.19659  0.78444  1.0000
  C   C98       1.0  0.13384  0.17034  0.91596  1.0000
  C   C99       1.0  0.15036  0.16212  0.91892  1.0000
  C   C100      1.0  0.16467  0.16200  0.90508  1.0000
  C   C101      1.0  0.16238  0.16925  0.88815  1.0000
  C   C102      1.0  0.14579  0.17709  0.88512  1.0000
  C   C103      1.0  0.13159  0.17802  0.89908  1.0000
  H   H164      1.0  0.15221  0.15615  0.93190  1.0000
  H   H165      1.0  0.17751  0.15601  0.90744  1.0000
  H   H166      1.0  0.14399  0.18283  0.87206  1.0000
  H   H167      1.0  0.11888  0.18455  0.89675  1.0000
  C   C104      1.0  0.16134  0.04736  0.92149  1.0000
  C   C105      1.0  0.14825  0.06225  0.92060  1.0000
  C   C106      1.0  0.14853  0.07589  0.92819  1.0000
  C   C107      1.0  0.16217  0.07477  0.93625  1.0000
  C   C108      1.0  0.17541  0.06011  0.93667  1.0000
  C   C109      1.0  0.17489  0.04641  0.92950  1.0000
  H   H168      1.0  0.13801  0.06326  0.91403  1.0000
  H   H169      1.0  0.13843  0.08736  0.92753  1.0000
  H   H170      1.0  0.18606  0.05925  0.94270  1.0000
  H   H171      1.0  0.18510  0.03499  0.93015  1.0000
  C   C110      1.0  0.13616  0.07968  0.84369  1.0000
  C   C111      1.0  0.15012  0.07301  0.85201  1.0000
  C   C112      1.0  0.16322  0.08231  0.84902  1.0000
  C   C113      1.0  0.16203  0.09874  0.83837  1.0000
  C   C114      1.0  0.14779  0.10575  0.83042  1.0000
  C   C115      1.0  0.13505  0.09603  0.83280  1.0000
  H   H172      1.0  0.15105  0.06058  0.86060  1.0000
  H   H173      1.0  0.17425  0.07675  0.85507  1.0000
  H   H174      1.0  0.14688  0.11841  0.82206  1.0000
  H   H175      1.0  0.12434  0.10118  0.82622  1.0000
  C   C116      1.0  0.04390  0.14092  0.92458  1.0000
  C   C117      1.0  0.05284  0.14694  0.93368  1.0000
  C   C118      1.0  0.06382  0.13522  0.94397  1.0000
  C   C119      1.0  0.06534  0.11742  0.94574  1.0000
  C   C120      1.0  0.05583  0.11139  0.93722  1.0000
  C   C121      1.0  0.04524  0.12312  0.92654  1.0000
  H   H176      1.0  0.05151  0.16069  0.93251  1.0000
  H   H177      1.0  0.07092  0.13997  0.95069  1.0000
  H   H178      1.0  0.05675  0.09766  0.93871  1.0000
  H   H179      1.0  0.03793  0.11836  0.92005  1.0000
  C   C122      1.0  0.03414  0.06861  0.90535  1.0000
  C   C123      1.0  0.05104  0.07158  0.89958  1.0000
  C   C124      1.0  0.06488  0.05905  0.90505  1.0000
  C   C125      1.0  0.06170  0.04389  0.91685  1.0000
  C   C126      1.0  0.04476  0.04119  0.92303  1.0000
  C   C127      1.0  0.03103  0.05341  0.91706  1.0000
  H   H180      1.0  0.05349  0.08331  0.89063  1.0000
  H   H181      1.0  0.07796  0.06123  0.90031  1.0000
  H   H182      1.0  0.04228  0.02947  0.93214  1.0000
  H   H183      1.0  0.01797  0.05108  0.92156  1.0000
  C   C128      1.0  0.07990  0.14517  0.83481  1.0000
  C   C129      1.0  0.07240  0.16191  0.83756  1.0000
  C   C130      1.0  0.08294  0.17357  0.83635  1.0000
  C   C131      1.0  0.10099  0.16841  0.83277  1.0000
  C   C132      1.0  0.10850  0.15161  0.83020  1.0000
  C   C133      1.0  0.09795  0.14009  0.83102  1.0000
  H   H184      1.0  0.05847  0.16598  0.84029  1.0000
  H   H185      1.0  0.07707  0.18658  0.83830  1.0000
  H   H186      1.0  0.12242  0.14751  0.82744  1.0000
  S   S59       1.0  0.16397  0.09197  0.94460  1.0000
  H   H187      1.0  0.15416  0.04035  0.83491  1.0000
  H   H188      1.0  0.09471  0.12478  0.88931  1.0000
  Fe  Fe31      1.0  0.00338  0.14325  0.86674  1.0000
  H   H189      1.0  0.08168  0.07706  0.86507  1.0000
  C   C134      1.0  0.07824  0.15769  0.88066  1.0000
  C   C135      1.0  0.10933  0.15262  0.87657  1.0000
  H   H190      1.0  0.07783  0.17124  0.87337  1.0000
  H   H191      1.0  0.07890  0.14954  0.87133  1.0000
  H   H192      1.0  0.06570  0.15736  0.89005  1.0000
  H   H193      1.0  0.10950  0.16616  0.86937  1.0000
  H   H194      1.0  0.11110  0.14461  0.86679  1.0000
  N   N10       1.0  0.18084  0.10993  0.88892  1.0000
  C   C136      1.0  0.19025  0.12213  0.87549  1.0000
  C   C137      1.0  0.19304  0.09750  0.89896  1.0000
  C   C138      1.0  0.17308  0.10047  0.88060  1.0000
  C   C139      1.0  0.16702  0.11960  0.90061  1.0000
  H   H195      1.0  0.19607  0.12973  0.88129  1.0000
  H   H196      1.0  0.18150  0.13160  0.86755  1.0000
  H   H197      1.0  0.20076  0.11532  0.86639  1.0000
  H   H198      1.0  0.20369  0.09006  0.89052  1.0000
  H   H199      1.0  0.19894  0.10416  0.90567  1.0000
  H   H200      1.0  0.18641  0.08802  0.90910  1.0000
  H   H201      1.0  0.18315  0.09330  0.87146  1.0000
  H   H202      1.0  0.16371  0.10944  0.87298  1.0000
  H   H203      1.0  0.16613  0.09090  0.89031  1.0000
  H   H204      1.0  0.17252  0.12586  0.90804  1.0000
  H   H205      1.0  0.15902  0.11091  0.91026  1.0000
  H   H206      1.0  0.15828  0.12994  0.89331  1.0000
  N   N11       1.0  0.10060  0.05105  0.95152  1.0000
  H   H207      1.0  0.15244  0.19926  0.77178  1.0000
  C   C140      1.0  0.09592  0.06421  0.93643  1.0000
  H   H208      1.0  0.10022  0.06974  0.96619  1.0000
  H   H209      1.0  0.27559  0.21741  0.74596  1.0000
  H   H210      1.0  0.11444  0.21718  0.80292  1.0000
  H   H211      1.0  0.14593  0.16305  0.97734  1.0000
  C   C141      1.0  0.16075  0.00823  0.82842  1.0000
  H   H212      1.0  0.10443  0.99648  0.86460  1.0000
  H   H213      1.0  0.12233  0.03596  0.82553  1.0000
  H   H214      1.0  0.16135  0.21703  0.79620  1.0000
  H   H215      1.0  0.07537  0.05698  0.96748  1.0000
  H   H216      1.0  0.28744  0.17904  0.75714  1.0000
  H   H217      1.0  0.16831  0.03977  0.81418  1.0000
  C   C142      1.0  0.26634  0.21010  0.75569  1.0000
  H   H218      1.0  0.07802  0.04025  0.95575  1.0000
  H   H219      1.0  0.14158  0.03474  0.79626  1.0000
  N   N12       1.0  0.06833  0.07832  0.84500  1.0000
  C   C143      1.0  0.05392  0.07084  0.85703  1.0000
  C   C144      1.0  0.06170  0.09140  0.83079  1.0000
  C   C145      1.0  0.08153  0.06450  0.83774  1.0000
  C   C146      1.0  0.07625  0.08656  0.85441  1.0000
  H   H220      1.0  0.05854  0.06070  0.86776  1.0000
  H   H221      1.0  0.04741  0.06482  0.85033  1.0000
  H   H222      1.0  0.04389  0.08089  0.86304  1.0000
  H   H223      1.0  0.07214  0.09773  0.82179  1.0000
  H   H224      1.0  0.05594  0.08565  0.82314  1.0000
  H   H225      1.0  0.05154  0.10190  0.83584  1.0000
  H   H226      1.0  0.09248  0.06984  0.82852  1.0000
  H   H227      1.0  0.07600  0.05782  0.83073  1.0000
  H   H228      1.0  0.08707  0.05463  0.84811  1.0000
  H   H229      1.0  0.06667  0.09700  0.86011  1.0000
  H   H230      1.0  0.11290  0.04877  0.97264  1.0000
  N   N13       1.0  0.12306  0.18309  0.97858  1.0000
  C   C147      1.0  0.25253  0.18553  0.76313  1.0000
  C   C148      1.0  0.09132  0.16229  0.90213  1.0000
  H   H231      1.0  0.21932  0.23336  0.74771  1.0000
  N   N14       1.0  0.09303  0.15148  0.88948  1.0000
  C   C149      1.0  0.31833  0.23036  0.70956  1.0000
  H   H232      1.0  0.12075  0.14824  0.88281  1.0000
  S   S60       1.0  0.13884  0.13189  0.96510  1.0000
  S   S61       1.0  0.09617  0.13771  0.97264  1.0000
  H   H233      1.0  0.25381  0.21930  0.75817  1.0000
  H   H234      1.0  0.07906  0.16199  0.91190  1.0000
  C   C150      1.0  0.09323  0.13331  0.89854  1.0000
  H   H235      1.0  0.08095  0.13200  0.90813  1.0000
  Fe  Fe32      1.0  0.12990  0.00717  0.88041  1.0000
  H   H236      1.0  0.10210  0.15779  0.90928  1.0000
  H   H237      1.0  0.10398  0.12826  0.90567  1.0000
  H   H238      1.0  0.10904  0.16811  0.97111  1.0000
  H   H239      1.0  0.13903  0.17197  0.95714  1.0000
  H   H240      1.0  0.09131  0.17605  0.89569  1.0000
  H   H241      1.0  0.15671  0.99614  0.82842  1.0000
  H   H242      1.0  0.11443  0.19654  0.95506  1.0000
  N   N15       1.0  0.14926  0.02376  0.82067  1.0000
  H   H243      1.0  0.28048  0.17256  0.74091  1.0000
  C   C151      1.0  0.28146  0.18393  0.74556  1.0000
  H   H244      1.0  0.25771  0.18030  0.77518  1.0000
  H   H245      1.0  0.11653  0.02571  0.95659  1.0000
  C   C152      1.0  0.11266  0.03587  0.94555  1.0000
  H   H246      1.0  0.31958  0.23248  0.66418  1.0000
  C   C153      1.0  0.08472  0.04575  0.96281  1.0000
  H   H247      1.0  0.14613  0.01151  0.80150  1.0000
  H   H248      1.0  0.25031  0.17450  0.75882  1.0000
  C   C154      1.0  0.15478  0.03949  0.82137  1.0000
  H   H249      1.0  0.12301  0.23521  0.80382  1.0000
  C   C155      1.0  0.11592  0.19916  0.96734  1.0000
  H   H250      1.0  0.20359  0.20984  0.75120  1.0000
  H   H251      1.0  0.14629  0.05148  0.81579  1.0000
  S   S62       1.0  0.29786  0.22549  0.71239  1.0000
  H   H252      1.0  0.10671  0.02991  0.93825  1.0000
  H   H253      1.0  0.08984  0.05894  0.92864  1.0000
  N   N16       1.0  0.13895  0.21961  0.78566  1.0000
  N   N17       1.0  0.26434  0.19528  0.74953  1.0000
  H   H254      1.0  0.08765  0.03578  0.97434  1.0000
  H   H255      1.0  0.10741  0.06902  0.92785  1.0000
  H   H256      1.0  0.13033  0.02355  0.84434  1.0000
  H   H257      1.0  0.29059  0.19099  0.73524  1.0000
  C   C156      1.0  0.13128  0.02401  0.83042  1.0000
  S   S63       1.0  0.11959  0.09836  0.97800  1.0000
  H   H258      1.0  0.14909  0.19293  0.79475  1.0000
  H   H259      1.0  0.16358  0.02308  0.79469  1.0000
  H   H260      1.0  0.13205  0.21360  0.81346  1.0000
  H   H261      1.0  0.12645  0.01267  0.82962  1.0000
  C   C157      1.0  0.15018  0.02326  0.80246  1.0000
  C   C158      1.0  0.15503  0.22506  0.78542  1.0000
  H   H262      1.0  0.12472  0.03941  0.93687  1.0000
  H   H263      1.0  0.16045  0.00819  0.84216  1.0000
  C   C159      1.0  0.14306  0.20133  0.78402  1.0000
  H   H264      1.0  0.08642  0.07558  0.94051  1.0000
  C   C160      1.0  0.13118  0.23044  0.77102  1.0000
  C   C161      1.0  0.14012  0.17520  0.96927  1.0000
  H   H265      1.0  0.14942  0.18407  0.96559  1.0000
  H   H266      1.0  0.21393  0.22407  0.80283  1.0000
  C   C162      1.0  0.21790  0.23013  0.77500  1.0000
  H   H267      1.0  0.16471  0.22360  0.77321  1.0000
  H   H268      1.0  0.15251  0.23878  0.78667  1.0000
  C   C163      1.0  0.21489  0.22613  0.76047  1.0000
  H   H269      1.0  0.14021  0.22919  0.75840  1.0000
  H   H270      1.0  0.11905  0.22663  0.77083  1.0000
  H   H271      1.0  0.21567  0.31329  0.26328  1.0000
  S   S64       1.0  0.22201  0.26720  0.31621  1.0000
  Fe  Fe33      1.0  0.26695  0.42204  0.31524  1.0000
  C   C164      1.0  0.31078  0.26770  0.29889  1.0000
  Fe  Fe34      1.0  0.27450  0.38668  0.30479  1.0000
  S   S65       1.0  0.27735  0.36820  0.28726  1.0000
  S   S66       1.0  0.28979  0.40765  0.29891  1.0000
  Fe  Fe35      1.0  0.23895  0.28694  0.30411  1.0000
  S   S67       1.0  0.25351  0.27361  0.28207  1.0000
  S   S68       1.0  0.22711  0.31531  0.30331  1.0000
  Fe  Fe36      1.0  0.23772  0.25275  0.29502  1.0000
  Fe  Fe37      1.0  0.27178  0.25949  0.29983  1.0000
  H   H272      1.0  0.22487  0.29308  0.24263  1.0000
  H   H273      1.0  0.19847  0.30992  0.28183  1.0000
  C   C165      1.0  0.27764  0.47477  0.31214  1.0000
  C   C166      1.0  0.24160  0.32926  0.30023  1.0000
  H   H274      1.0  0.18480  0.28428  0.28744  1.0000
  C   C167      1.0  0.24651  0.35706  0.30207  1.0000
  C   C168      1.0  0.26374  0.35293  0.29347  1.0000
  C   C169      1.0  0.26996  0.33674  0.28871  1.0000
  C   C170      1.0  0.25902  0.32483  0.29235  1.0000
  S   S69       1.0  0.30083  0.25247  0.29534  1.0000
  N   N18       1.0  0.20390  0.29185  0.26490  1.0000
  H   H275      1.0  0.28321  0.33351  0.28191  1.0000
  H   H276      1.0  0.26389  0.31251  0.28838  1.0000
  H   H277      1.0  0.21544  0.27417  0.24751  1.0000
  C   C171      1.0  0.20948  0.30323  0.27306  1.0000
  H   H278      1.0  0.18644  0.29398  0.24837  1.0000
  H   H279      1.0  0.17925  0.30868  0.26308  1.0000
  H   H280      1.0  0.28075  0.47844  0.29818  1.0000
  S   S70       1.0  0.26132  0.45120  0.30717  1.0000
  H   H281      1.0  0.31686  0.35854  0.27482  1.0000
  H   H282      1.0  0.22929  0.27591  0.26046  1.0000
  C   C172      1.0  0.30247  0.28504  0.29780  1.0000
  H   H283      1.0  0.31007  0.36066  0.29697  1.0000
  C   C173      1.0  0.19626  0.27848  0.27847  1.0000
  H   H284      1.0  0.28984  0.28926  0.29452  1.0000
  H   H285      1.0  0.21911  0.29576  0.28106  1.0000
  S   S71       1.0  0.25053  0.40239  0.31834  1.0000
  C   C174      1.0  0.21899  0.28346  0.25332  1.0000
  H   H286      1.0  0.24153  0.36961  0.30552  1.0000
  H   H287      1.0  0.30463  0.31059  0.29872  1.0000
  C   C175      1.0  0.19085  0.30222  0.25473  1.0000
  H   H288      1.0  0.19218  0.26945  0.27278  1.0000
  H   H289      1.0  0.19619  0.31247  0.24440  1.0000
  H   H290      1.0  0.22190  0.34904  0.31086  1.0000
  S   S72       1.0  0.22919  0.24066  0.27623  1.0000
  C   C176      1.0  0.23541  0.34539  0.30511  1.0000
  H   H291      1.0  0.20574  0.27046  0.28642  1.0000
  C   C177      1.0  0.31087  0.29710  0.30016  1.0000
  C   C178      1.0  0.32058  0.35414  0.28768  1.0000
  H   H292      1.0  0.32650  0.38425  0.29026  1.0000
  H   H293      1.0  0.32073  0.34004  0.29164  1.0000
  Fe  Fe38      1.0  0.28957  0.26793  0.43731  1.0000
  Fe  Fe39      1.0  0.28291  0.30709  0.42967  1.0000
  S   S73       1.0  0.25478  0.30933  0.44187  1.0000
  S   S74       1.0  0.29355  0.33088  0.41644  1.0000
  Fe  Fe40      1.0  0.26384  0.28757  0.46265  1.0000
  Fe  Fe41      1.0  0.25613  0.28910  0.42687  1.0000
  C   C179      1.0  0.24322  0.25744  0.37219  1.0000
  S   S75       1.0  0.28396  0.28784  0.41398  1.0000
  S   S76       1.0  0.27580  0.41057  0.34031  1.0000
  C   C180      1.0  0.32640  0.25654  0.63493  1.0000
  Fe  Fe42      1.0  0.26162  0.38971  0.34198  1.0000
  S   S77       1.0  0.24559  0.37533  0.36489  1.0000
  H   H294      1.0  0.31348  0.28696  0.64496  1.0000
  H   H295      1.0  0.23466  0.35248  0.34325  1.0000
  C   C181      1.0  0.26602  0.26986  0.63883  1.0000
  H   H296      1.0  0.31877  0.29716  0.41863  1.0000
  H   H297      1.0  0.21619  0.35698  0.37996  1.0000
  H   H298      1.0  0.30135  0.30949  0.49746  1.0000
  H   H299      1.0  0.32507  0.33098  0.63199  1.0000
  C   C182      1.0  0.26435  0.23981  0.50164  1.0000
  C   C183      1.0  0.32612  0.47870  0.62387  1.0000
  C   C184      1.0  0.26456  0.45665  0.33799  1.0000
  C   C185      1.0  0.27001  0.46500  0.34815  1.0000
  N   N19       1.0  0.21235  0.34457  0.36125  1.0000
  H   H300      1.0  0.25716  0.44664  0.34415  1.0000
  H   H301      1.0  0.26693  0.46119  0.36211  1.0000
  C   C186      1.0  0.27994  0.34373  0.40254  1.0000
  C   C187      1.0  0.28321  0.35977  0.39279  1.0000
  C   C188      1.0  0.27264  0.36962  0.38119  1.0000
  C   C189      1.0  0.25839  0.36374  0.37990  1.0000
  C   C190      1.0  0.25498  0.34786  0.38984  1.0000
  C   C191      1.0  0.26599  0.33770  0.40077  1.0000
  H   H302      1.0  0.29396  0.36452  0.39413  1.0000
  H   H303      1.0  0.27533  0.38189  0.37350  1.0000
  H   H304      1.0  0.24410  0.34312  0.38887  1.0000
  H   H305      1.0  0.26363  0.32515  0.40774  1.0000
  C   C192      1.0  0.24262  0.28030  0.39332  1.0000
  C   C193      1.0  0.23992  0.27530  0.36595  1.0000
  C   C194      1.0  0.23967  0.28665  0.37646  1.0000
  H   H306      1.0  0.25334  0.35544  0.56429  1.0000
  S   S78       1.0  0.29206  0.28705  0.45150  1.0000
  S   S79       1.0  0.28477  0.37321  0.32858  1.0000
  H   H307      1.0  0.30716  0.37488  0.35565  1.0000
  N   N20       1.0  0.29675  0.32041  0.35210  1.0000
  H   H308      1.0  0.26186  0.24764  0.51176  1.0000
  C   C195      1.0  0.27920  0.33117  0.35266  1.0000
  C   C196      1.0  0.29735  0.30422  0.34673  1.0000
  H   H309      1.0  0.31675  0.34755  0.37558  1.0000
  C   C197      1.0  0.26691  0.29059  0.50343  1.0000
  C   C198      1.0  0.30945  0.32992  0.33956  1.0000
  H   H310      1.0  0.27211  0.36519  0.55737  1.0000
  H   H311      1.0  0.27830  0.34349  0.35663  1.0000
  H   H312      1.0  0.31410  0.30859  0.36969  1.0000
  H   H313      1.0  0.32577  0.31849  0.60703  1.0000
  S   S80       1.0  0.24262  0.24296  0.35955  1.0000
  H   H314      1.0  0.31531  0.25542  0.36432  1.0000
  S   S81       1.0  0.32573  0.39310  0.32421  1.0000
  H   H315      1.0  0.28934  0.25759  0.49800  1.0000
  H   H316      1.0  0.29411  0.32903  0.63597  1.0000
  H   H317      1.0  0.20471  0.36008  0.33791  1.0000
  H   H318      1.0  0.29921  0.44882  0.36212  1.0000
  H   H319      1.0  0.32287  0.32229  0.33900  1.0000
  H   H320      1.0  0.23420  0.32994  0.34633  1.0000
  H   H321      1.0  0.26938  0.32442  0.36221  1.0000
  H   H322      1.0  0.29282  0.36057  0.52949  1.0000
  H   H323      1.0  0.30023  0.32842  0.37396  1.0000
  C   C199      1.0  0.30497  0.37470  0.61588  1.0000
  H   H324      1.0  0.30475  0.24686  0.48190  1.0000
  H   H325      1.0  0.27733  0.25338  0.34767  1.0000
  S   S82       1.0  0.23945  0.29507  0.40693  1.0000
  H   H326      1.0  0.31574  0.47127  0.62586  1.0000
  C   C200      1.0  0.20188  0.34844  0.34788  1.0000
  S   S83       1.0  0.31779  0.38517  0.62262  1.0000
  C   C201      1.0  0.24670  0.26243  0.39932  1.0000
  C   C202      1.0  0.24688  0.25103  0.38881  1.0000
  H   H327      1.0  0.24891  0.25741  0.41234  1.0000
  Fe  Fe43      1.0  0.24322  0.25404  0.33108  1.0000
  C   C203      1.0  0.20803  0.32926  0.37439  1.0000
  S   S84       1.0  0.27790  0.26154  0.62051  1.0000
  H   H328      1.0  0.23692  0.28041  0.35326  1.0000
  S   S85       1.0  0.26172  0.26733  0.44923  1.0000
  H   H329      1.0  0.21208  0.37127  0.36023  1.0000
  H   H330      1.0  0.18779  0.35094  0.35362  1.0000
  C   C204      1.0  0.32057  0.36831  0.35351  1.0000
  H   H331      1.0  0.23698  0.30039  0.37159  1.0000
  H   H332      1.0  0.21627  0.32547  0.38430  1.0000
  C   C205      1.0  0.23091  0.34105  0.35302  1.0000
  H   H333      1.0  0.28319  0.31131  0.64640  1.0000
  Fe  Fe44      1.0  0.29780  0.39542  0.32409  1.0000
  S   S86       1.0  0.29866  0.29973  0.61009  1.0000
  H   H334      1.0  0.19432  0.33172  0.38140  1.0000
  H   H335      1.0  0.32400  0.25330  0.34218  1.0000
  C   C206      1.0  0.29075  0.25015  0.48782  1.0000
  C   C207      1.0  0.20860  0.35955  0.36968  1.0000
  H   H336      1.0  0.28311  0.30289  0.48092  1.0000
  S   S87       1.0  0.31118  0.27710  0.57913  1.0000
  H   H337      1.0  0.30920  0.34226  0.34317  1.0000
  H   H338      1.0  0.20465  0.33749  0.34105  1.0000
  H   H339      1.0  0.19468  0.36279  0.37582  1.0000
  H   H340      1.0  0.20992  0.31789  0.36840  1.0000
  H   H341      1.0  0.23914  0.33803  0.36277  1.0000
  H   H342      1.0  0.26916  0.32411  0.54766  1.0000
  C   C208      1.0  0.28055  0.29907  0.49484  1.0000
  C   C209      1.0  0.31295  0.36203  0.60593  1.0000
  H   H343      1.0  0.26381  0.33331  0.52694  1.0000
  N   N21       1.0  0.30191  0.24148  0.35452  1.0000
  H   H344      1.0  0.28916  0.35381  0.65059  1.0000
  C   C210      1.0  0.32592  0.35287  0.36471  1.0000
  S   S88       1.0  0.28727  0.48713  0.35368  1.0000
  H   H345      1.0  0.24508  0.36883  0.53571  1.0000
  H   H346      1.0  0.29403  0.30690  0.33376  1.0000
  H   H347      1.0  0.27441  0.34237  0.56492  1.0000
  H   H348      1.0  0.26381  0.37858  0.52889  1.0000
  C   C211      1.0  0.27944  0.47815  0.34039  1.0000
  Fe  Fe45      1.0  0.30486  0.39605  0.64654  1.0000
  Fe  Fe46      1.0  0.29810  0.30052  0.56242  1.0000
  C   C212      1.0  0.31789  0.24660  0.35513  1.0000
  C   C213      1.0  0.28210  0.32545  0.64478  1.0000
  C   C214      1.0  0.30293  0.35328  0.60076  1.0000
  C   C215      1.0  0.29080  0.30296  0.50427  1.0000
  Fe  Fe47      1.0  0.32109  0.29582  0.58815  1.0000
  Fe  Fe48      1.0  0.28778  0.28274  0.59990  1.0000
  S   S89       1.0  0.27356  0.30462  0.58257  1.0000
  H   H349      1.0  0.32541  0.30045  0.44546  1.0000
  Fe  Fe49      1.0  0.28677  0.32124  0.59109  1.0000
  S   S90       1.0  0.27213  0.34613  0.59940  1.0000
  S   S91       1.0  0.30087  0.30392  0.53336  1.0000
  H   H350      1.0  0.24822  0.33727  0.54633  1.0000
  H   H351      1.0  0.26031  0.36523  0.51608  1.0000
  C   C216      1.0  0.26707  0.35375  0.55722  1.0000
  H   H352      1.0  0.32692  0.35884  0.60236  1.0000
  H   H353      1.0  0.26024  0.29608  0.62482  1.0000
  C   C217      1.0  0.28748  0.29851  0.52240  1.0000
  C   C218      1.0  0.25894  0.28753  0.63738  1.0000
  C   C219      1.0  0.26342  0.28629  0.52161  1.0000
  C   C220      1.0  0.27367  0.29026  0.53110  1.0000
  H   H354      1.0  0.27096  0.28682  0.54509  1.0000
  H   H355      1.0  0.30919  0.34357  0.59306  1.0000
  H   H356      1.0  0.27123  0.33197  0.63799  1.0000
  H   H357      1.0  0.28955  0.34599  0.51777  1.0000
  C   C221      1.0  0.28489  0.35731  0.60532  1.0000
  C   C222      1.0  0.27688  0.37020  0.61498  1.0000
  C   C223      1.0  0.28690  0.37879  0.62036  1.0000
  H   H358      1.0  0.25282  0.27981  0.52839  1.0000
  H   H359      1.0  0.26291  0.37345  0.61844  1.0000
  H   H360      1.0  0.28062  0.38870  0.62783  1.0000
  H   H361      1.0  0.31443  0.43507  0.37449  1.0000
  H   H362      1.0  0.32147  0.46231  0.34080  1.0000
  C   C224      1.0  0.26219  0.33589  0.54010  1.0000
  S   S92       1.0  0.31025  0.31896  0.56977  1.0000
  H   H363      1.0  0.29470  0.26404  0.33552  1.0000
  H   H364      1.0  0.32285  0.43440  0.32070  1.0000
  N   N22       1.0  0.26894  0.35132  0.53943  1.0000
  C   C225      1.0  0.28744  0.34892  0.53086  1.0000
  S   S93       1.0  0.25438  0.28486  0.49172  1.0000
  C   C226      1.0  0.25909  0.36668  0.52958  1.0000
  H   H365      1.0  0.28417  0.25897  0.47764  1.0000
  H   H366      1.0  0.29536  0.33793  0.53842  1.0000
  H   H367      1.0  0.25757  0.24803  0.49124  1.0000
  C   C227      1.0  0.32640  0.25785  0.40709  1.0000
  H   H368      1.0  0.30080  0.42584  0.36662  1.0000
  H   H369      1.0  0.29153  0.30927  0.37929  1.0000
  H   H370      1.0  0.31050  0.29592  0.34573  1.0000
  H   H371      1.0  0.30603  0.42508  0.33599  1.0000
  C   C228      1.0  0.30085  0.31643  0.36949  1.0000
  H   H372      1.0  0.24388  0.30772  0.65094  1.0000
  H   H373      1.0  0.28538  0.26601  0.35771  1.0000
  C   C229      1.0  0.28933  0.25698  0.34859  1.0000
  H   H374      1.0  0.30686  0.33295  0.32626  1.0000
  H   H375      1.0  0.28809  0.29664  0.35609  1.0000
  H   H376      1.0  0.32566  0.48841  0.61158  1.0000
  N   N23       1.0  0.32167  0.43503  0.34722  1.0000
  S   S94       1.0  0.30810  0.24251  0.43766  1.0000
  C   C230      1.0  0.31323  0.43572  0.33296  1.0000
  H   H377      1.0  0.31974  0.26994  0.41083  1.0000
  N   N24       1.0  0.32376  0.48710  0.63864  1.0000
  C   C231      1.0  0.30845  0.43620  0.36333  1.0000
  C   C232      1.0  0.32303  0.24233  0.41796  1.0000
  H   H378      1.0  0.31587  0.25648  0.62850  1.0000
  H   H379      1.0  0.29084  0.24135  0.38148  1.0000
  C   C233      1.0  0.26836  0.46148  0.31996  1.0000
  H   H380      1.0  0.27557  0.33452  0.33977  1.0000
  C   C234      1.0  0.28342  0.48290  0.32233  1.0000
  H   H381      1.0  0.30388  0.44809  0.33042  1.0000
  H   H382      1.0  0.29620  0.27624  0.64648  1.0000
  S   S95       1.0  0.25869  0.27473  0.32036  1.0000
  H   H383      1.0  0.30830  0.25573  0.71550  1.0000
  C   C235      1.0  0.26321  0.32532  0.67287  1.0000
  H   H384      1.0  0.27477  0.35386  0.67123  1.0000
  H   H385      1.0  0.26528  0.39232  0.73634  1.0000
  Fe  Fe50      1.0  0.27888  0.39098  0.68043  1.0000
  S   S96       1.0  0.30553  0.37674  0.67130  1.0000
  S   S97       1.0  0.25827  0.37624  0.69617  1.0000
  S   S98       1.0  0.28751  0.40926  0.69131  1.0000
  S   S99       1.0  0.22967  0.24619  0.77300  1.0000
  H   H386      1.0  0.29584  0.30773  0.67249  1.0000
  H   H387      1.0  0.31092  0.38606  0.74132  1.0000
  H   H388      1.0  0.25408  0.25701  0.68250  1.0000
  H   H389      1.0  0.27417  0.36512  0.76771  1.0000
  S   S100      1.0  0.23675  0.29152  0.68690  1.0000
  C   C236      1.0  0.24797  0.28313  0.66845  1.0000
  C   C237      1.0  0.26579  0.35519  0.70693  1.0000
  C   C238      1.0  0.28319  0.34939  0.70811  1.0000
  C   C239      1.0  0.25417  0.34404  0.71448  1.0000
  H   H390      1.0  0.29223  0.35788  0.70251  1.0000
  H   H391      1.0  0.26570  0.36959  0.73922  1.0000
  Fe  Fe51      1.0  0.31423  0.39642  0.68010  1.0000
  C   C240      1.0  0.29630  0.46402  0.70031  1.0000
  C   C241      1.0  0.29245  0.45548  0.68919  1.0000
  C   C242      1.0  0.28293  0.46485  0.67658  1.0000
  C   C243      1.0  0.27724  0.34950  0.65882  1.0000
  H   H392      1.0  0.27815  0.38054  0.72019  1.0000
  C   C244      1.0  0.29400  0.32203  0.67003  1.0000
  H   H393      1.0  0.29723  0.44175  0.69011  1.0000
  H   H394      1.0  0.24067  0.34844  0.71366  1.0000
  H   H395      1.0  0.30452  0.24725  0.67652  1.0000
  H   H396      1.0  0.30381  0.45676  0.70993  1.0000
  H   H397      1.0  0.25088  0.31861  0.72868  1.0000
  H   H398      1.0  0.30412  0.38967  0.72135  1.0000
  S   S101      1.0  0.27644  0.27483  0.70553  1.0000
  S   S102      1.0  0.24145  0.28544  0.73492  1.0000
  C   C245      1.0  0.28891  0.33260  0.71691  1.0000
  H   H399      1.0  0.29212  0.32571  0.68273  1.0000
  H   H400      1.0  0.29321  0.37197  0.76856  1.0000
  H   H401      1.0  0.25173  0.33132  0.66687  1.0000
  H   H402      1.0  0.32599  0.29916  0.76267  1.0000
  C   C246      1.0  0.32357  0.26570  0.77547  1.0000
  S   S103      1.0  0.27723  0.40900  0.65479  1.0000
  C   C247      1.0  0.27714  0.48270  0.67531  1.0000
  Fe  Fe52      1.0  0.27016  0.28179  0.73156  1.0000
  Fe  Fe53      1.0  0.24799  0.27637  0.70978  1.0000
  Fe  Fe54      1.0  0.24508  0.25710  0.74703  1.0000
  H   H403      1.0  0.30239  0.32820  0.71780  1.0000
  C   C248      1.0  0.31976  0.24636  0.71178  1.0000
  C   C249      1.0  0.25996  0.32710  0.72291  1.0000
  H   H404      1.0  0.30627  0.32572  0.66194  1.0000
  C   C250      1.0  0.27732  0.32139  0.72420  1.0000
  H   H405      1.0  0.30381  0.26855  0.75320  1.0000
  S   S104      1.0  0.28469  0.30035  0.73494  1.0000
  H   H406      1.0  0.27424  0.38777  0.76421  1.0000
  C   C251      1.0  0.25544  0.26554  0.66995  1.0000
  S   S105      1.0  0.27345  0.25433  0.74593  1.0000
  H   H407      1.0  0.30439  0.35851  0.72632  1.0000
  Fe  Fe55      1.0  0.27709  0.24765  0.72012  1.0000
  C   C252      1.0  0.29927  0.35850  0.74030  1.0000
  H   H408      1.0  0.31878  0.27482  0.73381  1.0000
  C   C253      1.0  0.28228  0.37508  0.76172  1.0000
  H   H409      1.0  0.29163  0.34807  0.74550  1.0000
  H   H410      1.0  0.31487  0.46542  0.65666  1.0000
  H   H411      1.0  0.29183  0.40197  0.73731  1.0000
  H   H412      1.0  0.12795  0.24435  0.77182  1.0000
  C   C254      1.0  0.29931  0.38891  0.73550  1.0000
  C   C255      1.0  0.27378  0.37967  0.73439  1.0000
  Fe  Fe56      1.0  0.28851  0.42611  0.66493  1.0000
  N   N25       1.0  0.28865  0.37554  0.74299  1.0000
  H   H413      1.0  0.31065  0.35492  0.74656  1.0000
  H   H414      1.0  0.32358  0.25366  0.74704  1.0000
  C   C256      1.0  0.31051  0.24522  0.66311  1.0000
  H   H415      1.0  0.30535  0.29589  0.76123  1.0000
  H   H416      1.0  0.26431  0.31107  0.67546  1.0000
  H   H417      1.0  0.32141  0.30029  0.74203  1.0000
  C   C257      1.0  0.29105  0.48199  0.69856  1.0000
  C   C258      1.0  0.31786  0.26750  0.74740  1.0000
  H   H418      1.0  0.26038  0.32916  0.68560  1.0000
  H   H419      1.0  0.30950  0.26765  0.78142  1.0000
  S   S106      1.0  0.24902  0.24828  0.72207  1.0000
  S   S107      1.0  0.27959  0.45504  0.66112  1.0000
  N   N26       1.0  0.27914  0.33056  0.66162  1.0000
  H   H420      1.0  0.30134  0.27839  0.66585  1.0000
  N   N27       1.0  0.32659  0.27454  0.75712  1.0000
  C   C259      1.0  0.31951  0.29327  0.75579  1.0000
  H   H421      1.0  0.30000  0.24430  0.65714  1.0000
  C   C260      1.0  0.32440  0.47375  0.65464  1.0000
  S   S108      1.0  0.31609  0.41466  0.65447  1.0000
  H   H422      1.0  0.32143  0.47962  0.66628  1.0000
  H   H423      1.0  0.26948  0.24517  0.65624  1.0000
  C   C261      1.0  0.26414  0.25885  0.65511  1.0000
  N   N28       1.0  0.31946  0.25933  0.65284  1.0000
  C   C262      1.0  0.30707  0.27602  0.65254  1.0000
  H   H424      1.0  0.26624  0.35645  0.65238  1.0000
  C   C263      1.0  0.24968  0.29412  0.65215  1.0000
  C   C264      1.0  0.32258  0.59321  0.30611  1.0000
  N   N29       1.0  0.30993  0.60222  0.29504  1.0000
  N   N30       1.0  0.25778  0.70262  0.24637  1.0000
  C   C265      1.0  0.31878  0.69095  0.31353  1.0000
  H   H425      1.0  0.29211  0.59576  0.28337  1.0000
  H   H426      1.0  0.25136  0.70799  0.27192  1.0000
  C   C266      1.0  0.31435  0.65667  0.27735  1.0000
  H   H427      1.0  0.24597  0.68405  0.24133  1.0000
  S   S109      1.0  0.26182  0.56993  0.31025  1.0000
  H   H428      1.0  0.22009  0.53383  0.30525  1.0000
  C   C267      1.0  0.19421  0.72988  0.26064  1.0000
  H   H429      1.0  0.30980  0.61903  0.27005  1.0000
  C   C268      1.0  0.27340  0.69934  0.23277  1.0000
  H   H430      1.0  0.10361  0.73172  0.23914  1.0000
  C   C269      1.0  0.23431  0.53289  0.30296  1.0000
  S   S110      1.0  0.24522  0.67161  0.29928  1.0000
  S   S111      1.0  0.22927  0.72246  0.29887  1.0000
  Fe  Fe57      1.0  0.27379  0.66764  0.29742  1.0000
  S   S112      1.0  0.29310  0.65971  0.27444  1.0000
  S   S113      1.0  0.27277  0.69268  0.30445  1.0000
  H   H431      1.0  0.13906  0.72683  0.13605  1.0000
  C   C270      1.0  0.21515  0.72511  0.28481  1.0000
  C   C271      1.0  0.26273  0.70613  0.26117  1.0000
  C   C272      1.0  0.20058  0.71322  0.26935  1.0000
  C   C273      1.0  0.21090  0.71085  0.28150  1.0000
  H   H432      1.0  0.21548  0.69801  0.28835  1.0000
  H   H433      1.0  0.30703  0.65782  0.30442  1.0000
  H   H434      1.0  0.29441  0.58270  0.30415  1.0000
  C   C274      1.0  0.31901  0.61116  0.27840  1.0000
  H   H435      1.0  0.12129  0.72128  0.13079  1.0000
  C   C275      1.0  0.13109  0.72967  0.12604  1.0000
  H   H436      1.0  0.24645  0.63248  0.30728  1.0000
  Fe  Fe58      1.0  0.24392  0.69576  0.30851  1.0000
  H   H437      1.0  0.25755  0.60619  0.29449  1.0000
  H   H438      1.0  0.23779  0.68934  0.26232  1.0000
  S   S114      1.0  0.18220  0.73212  0.24476  1.0000
  H   H439      1.0  0.28933  0.60866  0.31628  1.0000
  H   H440      1.0  0.26820  0.71805  0.25752  1.0000
  H   H441      1.0  0.32577  0.65501  0.25078  1.0000
  H   H442      1.0  0.19742  0.70213  0.26674  1.0000
  H   H443      1.0  0.27990  0.71063  0.22822  1.0000
  C   C276      1.0  0.29660  0.61499  0.30377  1.0000
  H   H444      1.0  0.32283  0.69128  0.29936  1.0000
  H   H445      1.0  0.31501  0.72439  0.31455  1.0000
  H   H446      1.0  0.08251  0.72629  0.24547  1.0000
  H   H447      1.0  0.27016  0.69669  0.22135  1.0000
  H   H448      1.0  0.25871  0.67568  0.25780  1.0000
  H   H449      1.0  0.25099  0.72952  0.23467  1.0000
  C   C277      1.0  0.24530  0.71771  0.23944  1.0000
  C   C278      1.0  0.30159  0.58948  0.29187  1.0000
  H   H450      1.0  0.23680  0.54632  0.29915  1.0000
  C   C279      1.0  0.08966  0.73665  0.24421  1.0000
  H   H451      1.0  0.23358  0.72080  0.24954  1.0000
  H   H452      1.0  0.28301  0.68795  0.23768  1.0000
  H   H453      1.0  0.13978  0.72575  0.11413  1.0000
  H   H454      1.0  0.31129  0.57936  0.28569  1.0000
  C   C280      1.0  0.31763  0.65590  0.29360  1.0000
  H   H455      1.0  0.24044  0.52648  0.29172  1.0000
  H   H456      1.0  0.24080  0.71538  0.22858  1.0000
  H   H457      1.0  0.27253  0.69523  0.26638  1.0000
  C   C281      1.0  0.24973  0.68722  0.25218  1.0000
  H   H458      1.0  0.28696  0.62217  0.29563  1.0000
  H   H459      1.0  0.26333  0.53539  0.31052  1.0000
  H   H460      1.0  0.30247  0.62477  0.30636  1.0000
  C   C282      1.0  0.25278  0.60497  0.30829  1.0000
  H   H461      1.0  0.26686  0.51511  0.30422  1.0000
  C   C283      1.0  0.26010  0.52232  0.31475  1.0000
  C   C284      1.0  0.24656  0.61982  0.31553  1.0000
  H   H462      1.0  0.29126  0.49256  0.31622  1.0000
  H   H463      1.0  0.24363  0.49838  0.31253  1.0000
  N   N31       1.0  0.24123  0.52327  0.31849  1.0000
  H   H464      1.0  0.30505  0.69783  0.31624  1.0000
  H   H465      1.0  0.32630  0.62008  0.28047  1.0000
  H   H466      1.0  0.08853  0.73886  0.25742  1.0000
  S   S115      1.0  0.30702  0.62257  0.42206  1.0000
  C   C285      1.0  0.32069  0.68098  0.48086  1.0000
  Fe  Fe59      1.0  0.31541  0.66676  0.58874  1.0000
  S   S116      1.0  0.25884  0.64322  0.42603  1.0000
  C   C286      1.0  0.26379  0.68506  0.64719  1.0000
  Fe  Fe60      1.0  0.28308  0.54556  0.36546  1.0000
  S   S117      1.0  0.30605  0.52405  0.36092  1.0000
  S   S118      1.0  0.27091  0.55687  0.38929  1.0000
  Fe  Fe61      1.0  0.31653  0.65360  0.55667  1.0000
  Fe  Fe62      1.0  0.28976  0.51522  0.34748  1.0000
  S   S119      1.0  0.29178  0.56347  0.34087  1.0000
  S   S120      1.0  0.26616  0.53547  0.35412  1.0000
  H   H467      1.0  0.26565  0.51578  0.32641  1.0000
  H   H468      1.0  0.31092  0.70344  0.34257  1.0000
  S   S121      1.0  0.28687  0.67852  0.34924  1.0000
  C   C287      1.0  0.30680  0.49911  0.64046  1.0000
  S   S122      1.0  0.23187  0.63665  0.34258  1.0000
  S   S123      1.0  0.24092  0.68300  0.33665  1.0000
  H   H469      1.0  0.21231  0.62372  0.41191  1.0000
  H   H470      1.0  0.25369  0.66979  0.36665  1.0000
  H   H471      1.0  0.24249  0.65696  0.39696  1.0000
  H   H472      1.0  0.26573  0.60192  0.39570  1.0000
  Fe  Fe63      1.0  0.27695  0.55162  0.32907  1.0000
  H   H473      1.0  0.30931  0.60305  0.52642  1.0000
  H   H474      1.0  0.32586  0.68323  0.34542  1.0000
  H   H475      1.0  0.22876  0.63386  0.41383  1.0000
  C   C288      1.0  0.31747  0.63128  0.36965  1.0000
  H   H476      1.0  0.29606  0.49228  0.64216  1.0000
  C   C289      1.0  0.28605  0.58657  0.63035  1.0000
  C   C290      1.0  0.23761  0.62230  0.38373  1.0000
  S   S124      1.0  0.31948  0.54090  0.63309  1.0000
  N   N32       1.0  0.23835  0.61203  0.40134  1.0000
  H   H477      1.0  0.24364  0.58770  0.39328  1.0000
  C   C291      1.0  0.29382  0.56933  0.63562  1.0000
  C   C292      1.0  0.25591  0.60963  0.40454  1.0000
  C   C293      1.0  0.32467  0.69703  0.33868  1.0000
  H   H478      1.0  0.30396  0.60545  0.39308  1.0000
  C   C294      1.0  0.24003  0.60185  0.34396  1.0000
  H   H479      1.0  0.31383  0.62737  0.33891  1.0000
  H   H480      1.0  0.23491  0.60056  0.35771  1.0000
  H   H481      1.0  0.24716  0.57438  0.34516  1.0000
  S   S125      1.0  0.32132  0.60426  0.45776  1.0000
  C   C295      1.0  0.30718  0.56828  0.41750  1.0000
  C   C296      1.0  0.30953  0.62887  0.52848  1.0000
  C   C297      1.0  0.30310  0.55541  0.39530  1.0000
  C   C298      1.0  0.28516  0.56038  0.40038  1.0000
  C   C299      1.0  0.27830  0.56879  0.41435  1.0000
  C   C300      1.0  0.28926  0.57314  0.42261  1.0000
  Fe  Fe64      1.0  0.29428  0.61295  0.47195  1.0000
  H   H482      1.0  0.30848  0.54856  0.38477  1.0000
  H   H483      1.0  0.26446  0.57191  0.41881  1.0000
  H   H484      1.0  0.24041  0.63536  0.38203  1.0000
  H   H485      1.0  0.24712  0.61584  0.37368  1.0000
  H   H486      1.0  0.25968  0.62223  0.40268  1.0000
  C   C301      1.0  0.26587  0.65531  0.40543  1.0000
  C   C302      1.0  0.28228  0.65955  0.40064  1.0000
  C   C303      1.0  0.28844  0.66741  0.38349  1.0000
  C   C304      1.0  0.27827  0.67083  0.37108  1.0000
  C   C305      1.0  0.26169  0.66706  0.37603  1.0000
  C   C306      1.0  0.25539  0.65962  0.39322  1.0000
  H   H487      1.0  0.29016  0.65695  0.41017  1.0000
  H   H488      1.0  0.30120  0.67052  0.37982  1.0000
  Fe  Fe65      1.0  0.28116  0.62961  0.43897  1.0000
  H   H489      1.0  0.23477  0.58678  0.41591  1.0000
  C   C307      1.0  0.22568  0.62119  0.41422  1.0000
  H   H490      1.0  0.30923  0.60589  0.34664  1.0000
  C   C308      1.0  0.30912  0.56190  0.62548  1.0000
  C   C309      1.0  0.23427  0.59497  0.40282  1.0000
  H   H491      1.0  0.22568  0.61361  0.42763  1.0000
  S   S126      1.0  0.27347  0.65227  0.32426  1.0000
  H   H492      1.0  0.25666  0.60291  0.41809  1.0000
  S   S127      1.0  0.29126  0.64008  0.45654  1.0000
  N   N33       1.0  0.30812  0.61931  0.36661  1.0000
  H   H493      1.0  0.28384  0.63093  0.38075  1.0000
  C   C310      1.0  0.23769  0.50557  0.32325  1.0000
  H   H494      1.0  0.22356  0.50570  0.32644  1.0000
  C   C311      1.0  0.26514  0.64201  0.55146  1.0000
  Fe  Fe66      1.0  0.24475  0.65852  0.32709  1.0000
  H   H495      1.0  0.22459  0.62425  0.38073  1.0000
  H   H496      1.0  0.30371  0.59341  0.37750  1.0000
  C   C312      1.0  0.31409  0.55905  0.40411  1.0000
  H   H497      1.0  0.31784  0.62448  0.53773  1.0000
  H   H498      1.0  0.28383  0.57980  0.43325  1.0000
  S   S128      1.0  0.28175  0.60311  0.45576  1.0000
  Fe  Fe67      1.0  0.30861  0.59687  0.44010  1.0000
  H   H499      1.0  0.22113  0.59630  0.40040  1.0000
  H   H500      1.0  0.31476  0.67716  0.49474  1.0000
  C   C313      1.0  0.28963  0.62743  0.36788  1.0000
  C   C314      1.0  0.30992  0.60313  0.37977  1.0000
  C   C315      1.0  0.29674  0.64292  0.64710  1.0000
  H   H501      1.0  0.25349  0.62492  0.59425  1.0000
  H   H502      1.0  0.26384  0.64293  0.58446  1.0000
  H   H503      1.0  0.23751  0.52514  0.34507  1.0000
  H   H504      1.0  0.31522  0.59674  0.59329  1.0000
  Fe  Fe68      1.0  0.31736  0.63059  0.44110  1.0000
  C   C316      1.0  0.25524  0.63524  0.58243  1.0000
  S   S129      1.0  0.32106  0.57400  0.42747  1.0000
  C   C317      1.0  0.31545  0.61547  0.34912  1.0000
  C   C318      1.0  0.24689  0.58702  0.33683  1.0000
  H   H505      1.0  0.24244  0.64392  0.58168  1.0000
  H   H506      1.0  0.27850  0.60581  0.58001  1.0000
  H   H507      1.0  0.27416  0.59222  0.63820  1.0000
  S   S130      1.0  0.31093  0.68817  0.60299  1.0000
  Fe  Fe69      1.0  0.26992  0.67768  0.33172  1.0000
  H   H508      1.0  0.27447  0.64953  0.55237  1.0000
  H   H509      1.0  0.28979  0.64655  0.63619  1.0000
  C   C319      1.0  0.30918  0.58915  0.60504  1.0000
  S   S131      1.0  0.29512  0.66023  0.57883  1.0000
  H   H510      1.0  0.28123  0.64423  0.49368  1.0000
  Fe  Fe70      1.0  0.30427  0.63331  0.59231  1.0000
  S   S132      1.0  0.28460  0.61838  0.60948  1.0000
  H   H511      1.0  0.27024  0.63689  0.53933  1.0000
  H   H512      1.0  0.25274  0.65124  0.55005  1.0000
  H   H513      1.0  0.25642  0.61202  0.55270  1.0000
  C   C320      1.0  0.27969  0.61644  0.56840  1.0000
  S   S133      1.0  0.28922  0.60693  0.50104  1.0000
  N   N34       1.0  0.26276  0.62787  0.56671  1.0000
  H   H514      1.0  0.24903  0.60693  0.57577  1.0000
  H   H515      1.0  0.28891  0.62373  0.56983  1.0000
  H   H516      1.0  0.28566  0.61044  0.55688  1.0000
  H   H517      1.0  0.31618  0.64376  0.36013  1.0000
  C   C321      1.0  0.29388  0.59656  0.61521  1.0000
  S   S134      1.0  0.31015  0.66200  0.53009  1.0000
  H   H518      1.0  0.21863  0.53387  0.33583  1.0000
  H   H519      1.0  0.28212  0.61870  0.36585  1.0000
  C   C322      1.0  0.25104  0.61775  0.56449  1.0000
  C   C323      1.0  0.29257  0.68749  0.61977  1.0000
  C   C324      1.0  0.29187  0.69291  0.63498  1.0000
  S   S135      1.0  0.29907  0.53065  0.32123  1.0000
  C   C325      1.0  0.26434  0.68000  0.63187  1.0000
  C   C326      1.0  0.27876  0.68108  0.61826  1.0000
  H   H520      1.0  0.30250  0.69795  0.63617  1.0000
  H   H521      1.0  0.25368  0.67508  0.63059  1.0000
  H   H522      1.0  0.27904  0.67720  0.60649  1.0000
  C   C327      1.0  0.30390  0.64655  0.52262  1.0000
  C   C328      1.0  0.29356  0.65205  0.51014  1.0000
  C   C329      1.0  0.28925  0.63992  0.50326  1.0000
  C   C330      1.0  0.29489  0.62224  0.50916  1.0000
  C   C331      1.0  0.30485  0.61673  0.52192  1.0000
  H   H523      1.0  0.23814  0.62597  0.56311  1.0000
  H   H524      1.0  0.28884  0.66569  0.50579  1.0000
  C   C332      1.0  0.25302  0.58857  0.31898  1.0000
  H   H525      1.0  0.28782  0.63959  0.35802  1.0000
  Fe  Fe71      1.0  0.31326  0.54129  0.33509  1.0000
  C   C333      1.0  0.23997  0.61826  0.33335  1.0000
  H   H526      1.0  0.32405  0.69378  0.47921  1.0000
  C   C334      1.0  0.31671  0.57172  0.61007  1.0000
  H   H527      1.0  0.31241  0.63435  0.38278  1.0000
  H   H528      1.0  0.23600  0.54552  0.33006  1.0000
  H   H529      1.0  0.31020  0.63651  0.64222  1.0000
  C   C335      1.0  0.23296  0.53236  0.33300  1.0000
  H   H530      1.0  0.32048  0.65310  0.46983  1.0000
  H   H531      1.0  0.31634  0.58611  0.31873  1.0000
  H   H532      1.0  0.32375  0.59706  0.37968  1.0000
  H   H533      1.0  0.30612  0.50975  0.62887  1.0000
  S   S136      1.0  0.32415  0.62592  0.56943  1.0000
  H   H534      1.0  0.28789  0.56178  0.64753  1.0000
  H   H535      1.0  0.24312  0.49788  0.33472  1.0000
  H   H536      1.0  0.31059  0.68270  0.47327  1.0000
  S   S137      1.0  0.32282  0.64018  0.60410  1.0000
  H   H537      1.0  0.27820  0.61976  0.64688  1.0000
  H   H538      1.0  0.32615  0.64554  0.49069  1.0000
  H   H539      1.0  0.31904  0.67723  0.32020  1.0000
  C   C336      1.0  0.27756  0.69153  0.64877  1.0000
  H   H540      1.0  0.29736  0.65517  0.65041  1.0000
  H   H541      1.0  0.30429  0.50530  0.65181  1.0000
  H   H542      1.0  0.29907  0.60890  0.65119  1.0000
  S   S138      1.0  0.24618  0.68234  0.66446  1.0000
  C   C337      1.0  0.27368  0.61810  0.72406  1.0000
  Fe  Fe72      1.0  0.27103  0.69656  0.70925  1.0000
  C   C338      1.0  0.20075  0.72998  0.78412  1.0000
  C   C339      1.0  0.25244  0.53176  0.71254  1.0000
  Fe  Fe73      1.0  0.25142  0.68359  0.68971  1.0000
  C   C340      1.0  0.31822  0.69404  0.69318  1.0000
  S   S139      1.0  0.28888  0.53600  0.67962  1.0000
  H   H543      1.0  0.26961  0.48997  0.66571  1.0000
  C   C341      1.0  0.28137  0.49128  0.68609  1.0000
  H   H544      1.0  0.23281  0.51442  0.73957  1.0000
  H   H545      1.0  0.25381  0.73179  0.71701  1.0000
  H   H546      1.0  0.27100  0.54565  0.72646  1.0000
  S   S140      1.0  0.24652  0.70804  0.69938  1.0000
  C   C342      1.0  0.31096  0.70822  0.70125  1.0000
  N   N35       1.0  0.25031  0.53211  0.73099  1.0000
  C   C343      1.0  0.28526  0.58999  0.71595  1.0000
  Fe  Fe74      1.0  0.30511  0.51760  0.69733  1.0000
  S   S141      1.0  0.28875  0.71324  0.71030  1.0000
  S   S142      1.0  0.26910  0.57630  0.69815  1.0000
  Fe  Fe75      1.0  0.29289  0.55627  0.69152  1.0000
  S   S143      1.0  0.27732  0.67345  0.69700  1.0000
  C   C344      1.0  0.27107  0.59204  0.70842  1.0000
  H   H547      1.0  0.24711  0.60859  0.70317  1.0000
  H   H548      1.0  0.27692  0.50504  0.68482  1.0000
  C   C345      1.0  0.23688  0.54721  0.73530  1.0000
  H   H549      1.0  0.27130  0.65249  0.67360  1.0000
  S   S144      1.0  0.30771  0.53766  0.71056  1.0000
  H   H550      1.0  0.27737  0.52242  0.73093  1.0000
  S   S145      1.0  0.19836  0.73843  0.80256  1.0000
  H   H551      1.0  0.30819  0.62864  0.74452  1.0000
  H   H552      1.0  0.28008  0.60712  0.66803  1.0000
  C   C346      1.0  0.25816  0.60700  0.70888  1.0000
  H   H553      1.0  0.24358  0.51571  0.75578  1.0000
  S   S146      1.0  0.31638  0.56145  0.67141  1.0000
  H   H554      1.0  0.22421  0.54669  0.73287  1.0000
  H   H555      1.0  0.26314  0.63294  0.67959  1.0000
  Fe  Fe76      1.0  0.26230  0.66113  0.72215  1.0000
  H   H556      1.0  0.31004  0.68612  0.69179  1.0000
  H   H557      1.0  0.29176  0.61795  0.68747  1.0000
  H   H558      1.0  0.29524  0.57843  0.71572  1.0000
  C   C347      1.0  0.29812  0.62636  0.67591  1.0000
  S   S147      1.0  0.23672  0.66937  0.71392  1.0000
  H   H559      1.0  0.31134  0.61907  0.67149  1.0000
  C   C348      1.0  0.32164  0.71864  0.70258  1.0000
  H   H560      1.0  0.25607  0.54387  0.70405  1.0000
  H   H561      1.0  0.18567  0.73790  0.74704  1.0000
  C   C349      1.0  0.30472  0.66287  0.73128  1.0000
  C   C350      1.0  0.24310  0.73883  0.72573  1.0000
  H   H562      1.0  0.26773  0.71879  0.74258  1.0000
  C   C351      1.0  0.28629  0.61615  0.65686  1.0000
  S   S148      1.0  0.25773  0.68366  0.73509  1.0000
  C   C352      1.0  0.25959  0.62011  0.71645  1.0000
  C   C353      1.0  0.27054  0.64118  0.66875  1.0000
  H   H563      1.0  0.29734  0.60129  0.72990  1.0000
  Fe  Fe77      1.0  0.23355  0.69328  0.72434  1.0000
  H   H564      1.0  0.27711  0.69564  0.66052  1.0000
  H   H565      1.0  0.26274  0.52070  0.70880  1.0000
  C   C354      1.0  0.28643  0.60293  0.72398  1.0000
  C   C355      1.0  0.26686  0.53351  0.73427  1.0000
  H   H566      1.0  0.26584  0.53365  0.74810  1.0000
  H   H567      1.0  0.24961  0.63166  0.71663  1.0000
  H   H568      1.0  0.31611  0.72966  0.70871  1.0000
  H   H569      1.0  0.29949  0.63779  0.68023  1.0000
  C   C356      1.0  0.24521  0.51597  0.74175  1.0000
  H   H570      1.0  0.31312  0.64709  0.76192  1.0000
  H   H571      1.0  0.24030  0.53045  0.70959  1.0000
  H   H572      1.0  0.22108  0.70868  0.79117  1.0000
  H   H573      1.0  0.25523  0.50443  0.73865  1.0000
  H   H574      1.0  0.29333  0.65952  0.74138  1.0000
  H   H575      1.0  0.22506  0.69647  0.76504  1.0000
  H   H576      1.0  0.14596  0.71145  0.78958  1.0000
  H   H577      1.0  0.30558  0.67633  0.73112  1.0000
  N   N36       1.0  0.32078  0.65043  0.73428  1.0000
  C   C357      1.0  0.15102  0.72335  0.78266  1.0000
  S   S149      1.0  0.29676  0.49272  0.71187  1.0000
  H   H578      1.0  0.23497  0.54796  0.74911  1.0000
  C   C358      1.0  0.21330  0.71506  0.78156  1.0000
  H   H579      1.0  0.32558  0.60035  0.70582  1.0000
  S   S150      1.0  0.20755  0.70790  0.73608  1.0000
  C   C359      1.0  0.21564  0.70820  0.76676  1.0000
  C   C360      1.0  0.32399  0.65067  0.75123  1.0000
  C   C361      1.0  0.20549  0.71634  0.75444  1.0000
  C   C362      1.0  0.31897  0.63289  0.73410  1.0000
  H   H580      1.0  0.24054  0.55954  0.72730  1.0000
  S   S151      1.0  0.27560  0.63450  0.73351  1.0000
  H   H581      1.0  0.31615  0.63236  0.72159  1.0000
  H   H582      1.0  0.11634  0.72907  0.79424  1.0000
  H   H583      1.0  0.30201  0.66285  0.71862  1.0000
  H   H584      1.0  0.26277  0.64617  0.65847  1.0000
  H   H585      1.0  0.12810  0.71817  0.76690  1.0000
  H   H586      1.0  0.15535  0.72810  0.79220  1.0000
  H   H587      1.0  0.16274  0.71948  0.77284  1.0000
  C   C363      1.0  0.25676  0.72666  0.75030  1.0000
  C   C364      1.0  0.13338  0.73016  0.76122  1.0000
  C   C365      1.0  0.19074  0.73823  0.77168  1.0000
  H   H588      1.0  0.32545  0.66375  0.75173  1.0000
  Fe  Fe78      1.0  0.31401  0.53908  0.66159  1.0000
  N   N37       1.0  0.28795  0.63162  0.66215  1.0000
  H   H589      1.0  0.24690  0.71851  0.75648  1.0000
  N   N38       1.0  0.13784  0.73666  0.77456  1.0000
  H   H590      1.0  0.06324  0.73340  0.88440  1.0000
  H   H591      1.0  0.23327  0.73053  0.73133  1.0000
  H   H592      1.0  0.26159  0.72922  0.76082  1.0000
  C   C366      1.0  0.19318  0.73143  0.75684  1.0000
  H   H593      1.0  0.14495  0.72707  0.75092  1.0000
  Fe  Fe79      1.0  0.11579  0.82497  0.06452  1.0000
  S   S152      1.0  0.08807  0.83370  0.07674  1.0000
  S   S153      1.0  0.12300  0.83222  0.03559  1.0000
  Fe  Fe80      1.0  0.12669  0.81182  0.09947  1.0000
  S   S154      1.0  0.09991  0.82017  0.11407  1.0000
  S   S155      1.0  0.14835  0.79945  0.11372  1.0000
  Fe  Fe81      1.0  0.09199  0.80865  0.09571  1.0000
  S   S156      1.0  0.07424  0.78975  0.10304  1.0000
  Fe  Fe82      1.0  0.09914  0.84413  0.09358  1.0000
  S   S157      1.0  0.08789  0.87035  0.10024  1.0000
  S   S158      1.0  0.11898  0.79891  0.08215  1.0000
  S   S159      1.0  0.12673  0.83681  0.08022  1.0000
  H   H594      1.0  0.10166  0.90935  0.04098  1.0000
  H   H595      1.0  0.10659  0.80264  0.04892  1.0000
  S   S160      1.0  0.08914  0.79204  0.00010  1.0000
  H   H596      1.0  0.12122  0.83288  0.19205  1.0000
  S   S161      1.0  0.03596  0.81112  0.17294  1.0000
  Fe  Fe83      1.0  0.12759  0.90569  0.15663  1.0000
  S   S162      1.0  0.10414  0.92679  0.15996  1.0000
  S   S163      1.0  0.13861  0.89225  0.13421  1.0000
  Fe  Fe84      1.0  0.13420  0.90322  0.19229  1.0000
  S   S164      1.0  0.11132  0.92400  0.19893  1.0000
  C   C367      1.0  0.06071  0.85917  0.19412  1.0000
  Fe  Fe85      1.0  0.09770  0.91096  0.18671  1.0000
  S   S165      1.0  0.07288  0.90215  0.20001  1.0000
  Fe  Fe86      1.0  0.12012  0.93790  0.17174  1.0000
  S   S166      1.0  0.12277  0.96588  0.16319  1.0000
  S   S167      1.0  0.11993  0.88905  0.18242  1.0000
  S   S168      1.0  0.14423  0.91794  0.16607  1.0000
  C   C368      1.0  0.15474  0.93116  0.20864  1.0000
  S   S169      1.0  0.12640  0.76542  0.19261  1.0000
  H   H597      1.0  0.09340  0.78709  0.03480  1.0000
  Fe  Fe87      1.0  0.04445  0.78666  0.19128  1.0000
  S   S170      1.0  0.05439  0.76138  0.18256  1.0000
  C   C369      1.0  0.07119  0.88539  0.19098  1.0000
  C   C370      1.0  0.06101  0.87339  0.20070  1.0000
  H   H598      1.0  0.10381  0.84143  0.18066  1.0000
  H   H599      1.0  0.02538  0.87729  0.15372  1.0000
  H   H600      1.0  0.16053  0.87691  0.17910  1.0000
  H   H601      1.0  0.15446  0.82253  0.15337  1.0000
  S   S171      1.0  0.06134  0.79811  0.20095  1.0000
  H   H602      1.0  0.01434  0.86770  0.13285  1.0000
  S   S172      1.0  0.07009  0.83944  0.16910  1.0000
  C   C371      1.0  0.12644  0.97115  0.19414  1.0000
  C   C372      1.0  0.11143  0.75273  0.13880  1.0000
  C   C373      1.0  0.08068  0.88341  0.17445  1.0000
  H   H603      1.0  0.12016  0.96031  0.20042  1.0000
  C   C374      1.0  0.10138  0.87605  0.11077  1.0000
  C   C375      1.0  0.09557  0.89033  0.11885  1.0000
  C   C376      1.0  0.10672  0.89520  0.12660  1.0000
  C   C377      1.0  0.12384  0.88615  0.12568  1.0000
  C   C378      1.0  0.12955  0.87192  0.11762  1.0000
  C   C379      1.0  0.11823  0.86662  0.11063  1.0000
  H   H604      1.0  0.08251  0.89768  0.11912  1.0000
  H   H605      1.0  0.10224  0.90623  0.13281  1.0000
  H   H606      1.0  0.14278  0.86486  0.11688  1.0000
  H   H607      1.0  0.12277  0.85537  0.10492  1.0000
  C   C380      1.0  0.07108  0.78058  0.12508  1.0000
  C   C381      1.0  0.06662  0.76428  0.13103  1.0000
  C   C382      1.0  0.06273  0.75755  0.14887  1.0000
  C   C383      1.0  0.06323  0.76723  0.16061  1.0000
  C   C384      1.0  0.06862  0.78300  0.15458  1.0000
  C   C385      1.0  0.07224  0.78980  0.13686  1.0000
  H   H608      1.0  0.06567  0.75714  0.12189  1.0000
  H   H609      1.0  0.07724  0.73954  0.21561  1.0000
  H   H610      1.0  0.06945  0.79032  0.16361  1.0000
  H   H611      1.0  0.07502  0.80257  0.13249  1.0000
  C   C386      1.0  0.14214  0.79004  0.13567  1.0000
  C   C387      1.0  0.12502  0.78827  0.14290  1.0000
  C   C388      1.0  0.12029  0.78058  0.16036  1.0000
  C   C389      1.0  0.13267  0.77463  0.17072  1.0000
  C   C390      1.0  0.14986  0.77616  0.16351  1.0000
  C   C391      1.0  0.15459  0.78382  0.14599  1.0000
  H   H612      1.0  0.11540  0.79262  0.13506  1.0000
  H   H613      1.0  0.10697  0.77942  0.16590  1.0000
  H   H614      1.0  0.15953  0.77144  0.17141  1.0000
  H   H615      1.0  0.16790  0.78501  0.14048  1.0000
  C   C392      1.0  0.11313  0.82144  0.02579  1.0000
  C   C393      1.0  0.11230  0.82719  0.00828  1.0000
  C   C394      1.0  0.10440  0.81865  0.00040  1.0000
  C   C395      1.0  0.09775  0.80404  0.00987  1.0000
  C   C396      1.0  0.09862  0.79831  0.02737  1.0000
  C   C397      1.0  0.10611  0.80710  0.03537  1.0000
  H   H616      1.0  0.11756  0.83839  0.00086  1.0000
  H   H617      1.0  0.10486  0.76655  0.13668  1.0000
  Fe  Fe88      1.0  0.14191  0.77102  0.20906  1.0000
  H   H618      1.0  0.10067  0.88059  0.23808  1.0000
  C   C398      1.0  0.13090  0.98057  0.20408  1.0000
  H   H619      1.0  0.05650  0.74922  0.24124  1.0000
  S   S173      1.0  0.17909  0.81418  0.19256  1.0000
  C   C399      1.0  0.11173  0.87036  0.23384  1.0000
  C   C400      1.0  0.16121  0.85275  0.21962  1.0000
  H   H620      1.0  0.17220  0.84799  0.17169  1.0000
  H   H621      1.0  0.14848  0.77887  0.99943  1.0000
  C   C401      1.0  0.02179  0.79562  0.13703  1.0000
  H   H622      1.0  0.10349  0.82342  0.98702  1.0000
  C   C402      1.0  0.17116  0.83454  0.19817  1.0000
  H   H623      1.0  0.14827  0.94330  0.21340  1.0000
  Fe  Fe89      1.0  0.16580  0.79352  0.21054  1.0000
  H   H624      1.0  0.02101  0.80135  0.12328  1.0000
  C   C403      1.0  0.16237  0.86563  0.18929  1.0000
  C   C404      1.0  0.16894  0.84926  0.18509  1.0000
  C   C405      1.0  0.12117  0.84114  0.22909  1.0000
  H   H625      1.0  0.09943  0.87279  0.03919  1.0000
  H   H626      1.0  0.08716  0.86816  0.15479  1.0000
  C   C406      1.0  0.07998  0.86947  0.16768  1.0000
  H   H627      1.0  0.04811  0.87213  0.15361  1.0000
  C   C407      1.0  0.18001  0.91606  0.19163  1.0000
  H   H628      1.0  0.08844  0.89274  0.16678  1.0000
  H   H629      1.0  0.11795  0.87568  0.22040  1.0000
  H   H630      1.0  0.11731  0.82895  0.22931  1.0000
  H   H631      1.0  0.10111  0.74496  0.14393  1.0000
  H   H632      1.0  0.06830  0.85426  0.13347  1.0000
  H   H633      1.0  0.19574  0.93844  0.19802  1.0000
  H   H634      1.0  0.10953  0.84260  0.14876  1.0000
  H   H635      1.0  0.02406  0.84582  0.14095  1.0000
  Fe  Fe90      1.0  0.05080  0.82311  0.18488  1.0000
  H   H636      1.0  0.02899  0.85483  0.11815  1.0000
  C   C408      1.0  0.02648  0.85777  0.13128  1.0000
  H   H637      1.0  0.06259  0.76199  0.25297  1.0000
  N   N39       1.0  0.11703  0.88388  0.04679  1.0000
  C   C409      1.0  0.18282  0.93714  0.20638  1.0000
  H   H638      1.0  0.13572  0.85999  0.04685  1.0000
  C   C410      1.0  0.10208  0.87532  0.05098  1.0000
  H   H639      1.0  0.00467  0.76515  0.16897  1.0000
  S   S174      1.0  0.02143  0.79102  0.21269  1.0000
  C   C411      1.0  0.12014  0.88669  0.06288  1.0000
  N   N40       1.0  0.08288  0.75272  0.23273  1.0000
  H   H640      1.0  0.13050  0.87018  0.02628  1.0000
  H   H641      1.0  0.15604  0.92049  0.22012  1.0000
  C   C412      1.0  0.16710  0.83626  0.21547  1.0000
  H   H642      1.0  0.15110  0.82314  0.17581  1.0000
  H   H643      1.0  0.10177  0.74399  0.11367  1.0000
  H   H644      1.0  0.12820  0.84578  0.21576  1.0000
  H   H645      1.0  0.07018  0.81193  0.22445  1.0000
  H   H646      1.0  0.10856  0.89466  0.06984  1.0000
  H   H647      1.0  0.12312  0.87428  0.07208  1.0000
  C   C413      1.0  0.09282  0.76599  0.23149  1.0000
  C   C414      1.0  0.13251  0.85199  0.16104  1.0000
  C   C415      1.0  0.03737  0.86734  0.15140  1.0000
  C   C416      1.0  0.04391  0.87975  0.12095  1.0000
  Fe  Fe91      1.0  0.03765  0.80489  0.22090  1.0000
  H   H648      1.0  0.05338  0.84963  0.20200  1.0000
  S   S175      1.0  0.16428  0.78456  0.23918  1.0000
  C   C417      1.0  0.07013  0.85722  0.17758  1.0000
  N   N41       1.0  0.04118  0.86377  0.13377  1.0000
  H   H649      1.0  0.03224  0.89026  0.12217  1.0000
  H   H650      1.0  0.04720  0.87749  0.10748  1.0000
  H   H651      1.0  0.12076  0.86221  0.15949  1.0000
  H   H652      1.0  0.05490  0.88456  0.12266  1.0000
  H   H653      1.0  0.03564  0.85548  0.16148  1.0000
  H   H654      1.0  0.13091  0.83404  0.13782  1.0000
  H   H655      1.0  0.11276  0.81874  0.18403  1.0000
  C   C418      1.0  0.05699  0.85024  0.13144  1.0000
  H   H656      1.0  0.02692  0.76713  0.16270  1.0000
  H   H657      1.0  0.08209  0.86795  0.22708  1.0000
  S   S176      1.0  0.02795  0.83084  0.20541  1.0000
  H   H658      1.0  0.14232  0.80822  0.16956  1.0000
  S   S177      1.0  0.13730  0.79836  0.21208  1.0000
  H   H659      1.0  0.17690  0.94964  0.21069  1.0000
  H   H660      1.0  0.05547  0.83791  0.14079  1.0000
  H   H661      1.0  0.14412  0.75704  0.12627  1.0000
  H   H662      1.0  0.09014  0.88314  0.05758  1.0000
  C   C419      1.0  0.15868  0.86742  0.20654  1.0000
  C   C420      1.0  0.20864  0.74178  0.27624  1.0000
  H   H663      1.0  0.13762  0.85396  0.17166  1.0000
  H   H664      1.0  0.11794  0.81983  0.15301  1.0000
  H   H665      1.0  0.14247  0.85425  0.14898  1.0000
  H   H666      1.0  0.19288  0.91664  0.18291  1.0000
  H   H667      1.0  0.06048  0.84749  0.11815  1.0000
  H   H668      1.0  0.16023  0.94401  0.17470  1.0000
  N   N42       1.0  0.12871  0.83451  0.16458  1.0000
  C   C421      1.0  0.12147  0.83268  0.15040  1.0000
  C   C422      1.0  0.14485  0.82154  0.16584  1.0000
  C   C423      1.0  0.11607  0.83178  0.18109  1.0000
  N   N43       1.0  0.17170  0.93271  0.19706  1.0000
  H   H669      1.0  0.14410  0.87885  0.03485  1.0000
  H   H670      1.0  0.05891  0.77099  0.23161  1.0000
  S   S178      1.0  0.17072  0.76693  0.20493  1.0000
  S   S179      1.0  0.15013  0.88791  0.21174  1.0000
  C   C424      1.0  0.19815  0.74418  0.26421  1.0000
  H   H671      1.0  0.12141  0.86812  0.24205  1.0000
  H   H672      1.0  0.16361  0.95932  0.18526  1.0000
  H   H673      1.0  0.18493  0.92703  0.21810  1.0000
  H   H674      1.0  0.11084  0.89904  0.02271  1.0000
  H   H675      1.0  0.12433  0.90753  0.03149  1.0000
  Fe  Fe92      1.0  0.01395  0.81640  0.19506  1.0000
  H   H676      1.0  0.10677  0.84439  0.26166  1.0000
  H   H677      1.0  0.05369  0.87484  0.21351  1.0000
  C   C425      1.0  0.06443  0.75893  0.23997  1.0000
  H   H678      1.0  0.08001  0.76125  0.20623  1.0000
  C   C426      1.0  0.16921  0.94647  0.18166  1.0000
  H   H679      1.0  0.08864  0.77807  0.22236  1.0000
  H   H680      1.0  0.01090  0.78435  0.17032  1.0000
  H   H681      1.0  0.18186  0.90534  0.20297  1.0000
  H   H682      1.0  0.13122  0.89329  0.06027  1.0000
  H   H683      1.0  0.09947  0.86273  0.20959  1.0000
  C   C427      1.0  0.13253  0.87282  0.03831  1.0000
  H   H684      1.0  0.05850  0.74534  0.15356  1.0000
  C   C428      1.0  0.11330  0.90071  0.03496  1.0000
  H   H685      1.0  0.10454  0.86261  0.05981  1.0000
  H   H686      1.0  0.09978  0.80987  0.22834  1.0000
  C   C429      1.0  0.01347  0.77437  0.16239  1.0000
  H   H687      1.0  0.17195  0.91227  0.18462  1.0000
  C   C430      1.0  0.14079  0.77118  0.99600  1.0000
  H   H688      1.0  0.14540  0.75729  0.00134  1.0000
  H   H689      1.0  0.09278  0.83586  0.25379  1.0000
  H   H690      1.0  0.15839  0.85408  0.23298  1.0000
  H   H691      1.0  0.18165  0.94757  0.17228  1.0000
  N   N44       1.0  0.01116  0.78224  0.14451  1.0000
  H   H692      1.0  0.16896  0.82492  0.22560  1.0000
  N   N45       1.0  0.12277  0.74814  0.12264  1.0000
  C   C431      1.0  0.09758  0.84778  0.25274  1.0000
  H   H693      1.0  0.13040  0.77276  0.11338  1.0000
  S   S180      1.0  0.13816  0.76015  0.23753  1.0000
  C   C432      1.0  0.08993  0.80614  0.23938  1.0000
  C   C433      1.0  0.07319  0.80708  0.23712  1.0000
  H   H694      1.0  0.14589  0.92823  0.20188  1.0000
  H   H695      1.0  0.10614  0.76536  0.10631  1.0000
  N   N46       1.0  0.10601  0.85428  0.23474  1.0000
  C   C434      1.0  0.09356  0.85787  0.22330  1.0000
  H   H696      1.0  0.08631  0.85749  0.25759  1.0000
  H   H697      1.0  0.10683  0.76148  0.22662  1.0000
  H   H698      1.0  0.01758  0.80628  0.14437  1.0000
  C   C435      1.0  0.08079  0.79605  0.27016  1.0000
  S   S181      1.0  0.11440  0.79991  0.25921  1.0000
  H   H699      1.0  0.19331  0.75706  0.25755  1.0000
  H   H700      1.0  0.03564  0.79016  0.13742  1.0000
  H   H701      1.0  0.21182  0.75288  0.27881  1.0000
  C   C436      1.0  0.06428  0.79634  0.26779  1.0000
  C   C437      1.0  0.06048  0.80166  0.25125  1.0000
  S   S182      1.0  0.04009  0.80055  0.24852  1.0000
  H   H702      1.0  0.08873  0.84609  0.22381  1.0000
  Fe  Fe93      1.0  0.16685  0.75809  0.23388  1.0000
  H   H703      1.0  0.05445  0.79235  0.27880  1.0000
  C   C438      1.0  0.09376  0.80057  0.25593  1.0000
  H   H704      1.0  0.08362  0.79196  0.28300  1.0000
  H   H705      1.0  0.13055  0.83770  0.23781  1.0000
  Fe  Fe94      1.0  0.13590  0.78732  0.24019  1.0000
  C   C439      1.0  0.13623  0.75877  0.11641  1.0000
  H   H706      1.0  0.11888  0.75059  0.14911  1.0000
  H   H707      1.0  0.12711  0.77489  0.00283  1.0000
  H   H708      1.0  0.09136  0.76928  0.24430  1.0000
  H   H709      1.0  0.01499  0.77418  0.12040  1.0000
  H   H710      1.0  0.12812  0.97688  0.21806  1.0000
  C   C440      1.0  0.12951  0.97622  0.17610  1.0000
  H   H711      1.0  0.14524  0.75553  0.10438  1.0000
  H   H712      1.0  0.03049  0.76251  0.13349  1.0000
  C   C441      1.0  0.01662  0.76873  0.13398  1.0000
  H   H713      1.0  0.09855  0.74464  0.20950  1.0000
  C   C442      1.0  0.08474  0.74933  0.21530  1.0000
  C   C443      1.0  0.11234  0.75145  0.10932  1.0000
  H   H714      1.0  0.12042  0.74802  0.09697  1.0000
  H   H715      1.0  0.00888  0.75839  0.13940  1.0000
  C   C444      1.0  0.12792  0.97913  0.85587  1.0000
  S   S183      1.0  0.00338  0.79507  0.85546  1.0000
  H   H716      1.0  0.03969  0.77658  0.89357  1.0000
  C   C445      1.0  0.26314  0.75314  0.73120  1.0000
  H   H717      1.0  0.01586  0.84751  0.93511  1.0000
  Fe  Fe95      1.0  0.07130  0.79599  0.94409  1.0000
  S   S184      1.0  0.08544  0.81407  0.92319  1.0000
  S   S185      1.0  0.05479  0.78074  0.93840  1.0000
  Fe  Fe96      1.0  0.10790  0.80168  0.93615  1.0000
  S   S186      1.0  0.13482  0.79303  0.92196  1.0000
  Fe  Fe97      1.0  0.07774  0.83091  0.94287  1.0000
  S   S187      1.0  0.06758  0.85897  0.93417  1.0000
  C   C446      1.0  0.11599  0.76973  0.89461  1.0000
  Fe  Fe98      1.0  0.11189  0.90056  0.85115  1.0000
  S   S188      1.0  0.08812  0.92105  0.85585  1.0000
  S   S189      1.0  0.12538  0.88528  0.87267  1.0000
  Fe  Fe99      1.0  0.10922  0.90265  0.81443  1.0000
  S   S190      1.0  0.08487  0.92307  0.81599  1.0000
  S   S191      1.0  0.12030  0.88850  0.79250  1.0000
  Fe  Fe100     1.0  0.09864  0.93499  0.82934  1.0000
  S   S192      1.0  0.09586  0.96384  0.82582  1.0000
  Fe  Fe101     1.0  0.07662  0.90732  0.84237  1.0000
  S   S193      1.0  0.05172  0.89820  0.85525  1.0000
  S   S194      1.0  0.12374  0.91567  0.82578  1.0000
  S   S195      1.0  0.09966  0.88595  0.83951  1.0000
  Fe  Fe102     1.0  0.16251  0.79534  0.81552  1.0000
  S   S196      1.0  0.17030  0.81902  0.81786  1.0000
  Fe  Fe103     1.0  0.14041  0.77995  0.80124  1.0000
  S   S197      1.0  0.13467  0.79322  0.82349  1.0000
  S   S198      1.0  0.16760  0.78456  0.79150  1.0000
  Fe  Fe104     1.0  0.00906  0.81754  0.86273  1.0000
  H   H718      1.0  0.08553  0.75916  0.83938  1.0000
  Fe  Fe105     1.0  0.02933  0.79489  0.83735  1.0000
  S   S199      1.0  0.01887  0.81253  0.81480  1.0000
  S   S200      1.0  0.05002  0.77094  0.83648  1.0000
  Fe  Fe106     1.0  0.02310  0.83350  0.82563  1.0000
  S   S201      1.0  0.03506  0.85556  0.80882  1.0000
  S   S202      1.0  0.03582  0.81568  0.84658  1.0000
  C   C447      1.0  0.04434  0.76550  0.88683  1.0000
  C   C448      1.0  0.10021  0.78236  0.79979  1.0000
  C   C449      1.0  0.10045  0.77165  0.81608  1.0000
  C   C450      1.0  0.08505  0.76785  0.82705  1.0000
  C   C451      1.0  0.06917  0.77552  0.82222  1.0000
  H   H719      1.0  0.03941  0.81771  0.88460  1.0000
  C   C452      1.0  0.06880  0.78672  0.80614  1.0000
  H   H720      1.0  0.10335  0.85074  0.81134  1.0000
  C   C453      1.0  0.04648  0.88700  0.84212  1.0000
  C   C454      1.0  0.05252  0.89034  0.82419  1.0000
  C   C455      1.0  0.04834  0.88118  0.81388  1.0000
  C   C456      1.0  0.03872  0.86819  0.82155  1.0000
  C   C457      1.0  0.03272  0.86484  0.83948  1.0000
  C   C458      1.0  0.03640  0.87441  0.84969  1.0000
  H   H721      1.0  0.06014  0.90019  0.81823  1.0000
  H   H722      1.0  0.05271  0.88410  0.80000  1.0000
  H   H723      1.0  0.02513  0.85497  0.84548  1.0000
  H   H724      1.0  0.03161  0.87188  0.86345  1.0000
  C   C459      1.0  0.13479  0.86945  0.79900  1.0000
  C   C460      1.0  0.13814  0.85552  0.79068  1.0000
  C   C461      1.0  0.14872  0.83980  0.79666  1.0000
  C   C462      1.0  0.15678  0.83838  0.81031  1.0000
  C   C463      1.0  0.15397  0.85254  0.81817  1.0000
  C   C464      1.0  0.14263  0.86789  0.81284  1.0000
  H   H725      1.0  0.13247  0.85687  0.77968  1.0000
  H   H726      1.0  0.15110  0.82898  0.79037  1.0000
  H   H727      1.0  0.16047  0.85162  0.82848  1.0000
  H   H728      1.0  0.14030  0.87867  0.81916  1.0000
  H   H729      1.0  0.06549  0.76632  0.90759  1.0000
  H   H730      1.0  0.06448  0.74747  0.86358  1.0000
  H   H731      1.0  0.08645  0.93689  0.88961  1.0000
  C   C465      1.0  0.10851  0.97015  0.83670  1.0000
  C   C466      1.0  0.12595  0.96233  0.83588  1.0000
  C   C467      1.0  0.13566  0.96691  0.84537  1.0000
  C   C468      1.0  0.14518  0.77220  0.87949  1.0000
  H   H732      1.0  0.22933  0.76534  0.74239  1.0000
  H   H733      1.0  0.13188  0.95262  0.82807  1.0000
  H   H734      1.0  0.14910  0.96065  0.84488  1.0000
  C   C469      1.0  0.08367  0.86691  0.91762  1.0000
  C   C470      1.0  0.10099  0.86243  0.91927  1.0000
  C   C471      1.0  0.11389  0.86827  0.90555  1.0000
  C   C472      1.0  0.10948  0.87801  0.88999  1.0000
  C   C473      1.0  0.09223  0.88208  0.88830  1.0000
  C   C474      1.0  0.07929  0.87698  0.90222  1.0000
  H   H735      1.0  0.10441  0.85470  0.93122  1.0000
  H   H736      1.0  0.12724  0.86503  0.90691  1.0000
  H   H737      1.0  0.08870  0.88902  0.87624  1.0000
  H   H738      1.0  0.06597  0.88047  0.90079  1.0000
  C   C475      1.0  0.04049  0.79278  0.92494  1.0000
  C   C476      1.0  0.02299  0.79191  0.93034  1.0000
  C   C477      1.0  0.01135  0.80076  0.91959  1.0000
  C   C478      1.0  0.01725  0.80987  0.90303  1.0000
  C   C479      1.0  0.03485  0.81056  0.89738  1.0000
  C   C480      1.0  0.04645  0.80227  0.90850  1.0000
  H   H739      1.0  0.01838  0.78451  0.94297  1.0000
  C   C481      1.0  0.11058  0.98722  0.85639  1.0000
  H   H740      1.0  0.06003  0.80284  0.90425  1.0000
  C   C482      1.0  0.13329  0.78212  0.90660  1.0000
  H   H741      1.0  0.06149  0.74508  0.91050  1.0000
  N   N47       1.0  0.06335  0.75974  0.88438  1.0000
  H   H742      1.0  0.01613  0.84760  0.89639  1.0000
  C   C483      1.0  0.04560  0.85486  0.89777  1.0000
  S   S203      1.0  0.10181  0.82059  0.95355  1.0000
  H   H743      1.0  0.14330  0.80116  0.97371  1.0000
  H   H744      1.0  0.04699  0.84279  0.89313  1.0000
  H   H745      1.0  0.13685  0.79595  0.95642  1.0000
  H   H746      1.0  0.15581  0.77025  0.86868  1.0000
  H   H747      1.0  0.27427  0.74583  0.72301  1.0000
  C   C484      1.0  0.08436  0.78982  0.79475  1.0000
  N   N48       1.0  0.11323  0.93172  0.89125  1.0000
  C   C485      1.0  0.12546  0.91832  0.90051  1.0000
  C   C486      1.0  0.09595  0.92714  0.89653  1.0000
  C   C487      1.0  0.11942  0.93278  0.87244  1.0000
  C   C488      1.0  0.11215  0.94867  0.89536  1.0000
  H   H748      1.0  0.12119  0.91709  0.91477  1.0000
  H   H749      1.0  0.13866  0.92134  0.89671  1.0000
  H   H750      1.0  0.12661  0.90542  0.89752  1.0000
  H   H751      1.0  0.09081  0.92621  0.91067  1.0000
  H   H752      1.0  0.13503  0.76303  0.76058  1.0000
  H   H753      1.0  0.09640  0.91443  0.89351  1.0000
  H   H754      1.0  0.11033  0.94256  0.86510  1.0000
  H   H755      1.0  0.12055  0.92031  0.86874  1.0000
  H   H756      1.0  0.13242  0.93620  0.86796  1.0000
  H   H757      1.0  0.10317  0.95908  0.88836  1.0000
  H   H758      1.0  0.12500  0.95254  0.89143  1.0000
  H   H759      1.0  0.10746  0.94850  0.90944  1.0000
  N   N49       1.0  0.02883  0.85870  0.90981  1.0000
  H   H760      1.0  0.10393  0.76609  0.89540  1.0000
  C   C489      1.0  0.06845  0.75495  0.90136  1.0000
  H   H761      1.0  0.13598  0.75010  0.97750  1.0000
  S   S204      1.0  0.11974  0.78618  0.78573  1.0000
  H   H762      1.0  0.15914  0.78316  0.89186  1.0000
  H   H763      1.0  0.08257  0.74958  0.90008  1.0000
  H   H764      1.0  0.02912  0.83214  0.92248  1.0000
  S   S205      1.0  0.06168  0.81382  0.96297  1.0000
  C   C490      1.0  0.01452  0.85954  0.90136  1.0000
  H   H765      1.0  0.06817  0.78547  0.87930  1.0000
  H   H766      1.0  0.08406  0.79811  0.78215  1.0000
  H   H767      1.0  0.26828  0.75648  0.74107  1.0000
  H   H768      1.0  0.10708  0.77912  0.91835  1.0000
  H   H769      1.0  0.01437  0.87900  0.92332  1.0000
  N   N50       1.0  0.12869  0.83012  0.86814  1.0000
  C   C491      1.0  0.14384  0.82082  0.85742  1.0000
  C   C492      1.0  0.12296  0.84754  0.85817  1.0000
  C   C493      1.0  0.13347  0.83169  0.88390  1.0000
  C   C494      1.0  0.11450  0.82046  0.87304  1.0000
  H   H770      1.0  0.14861  0.80762  0.86444  1.0000
  H   H771      1.0  0.15483  0.82774  0.85338  1.0000
  H   H772      1.0  0.14065  0.81937  0.84545  1.0000
  H   H773      1.0  0.11956  0.84693  0.84599  1.0000
  H   H774      1.0  0.11147  0.85489  0.86586  1.0000
  H   H775      1.0  0.13329  0.85531  0.85444  1.0000
  H   H776      1.0  0.13892  0.81885  0.89116  1.0000
  H   H777      1.0  0.12206  0.83762  0.89283  1.0000
  H   H778      1.0  0.14336  0.83990  0.88070  1.0000
  H   H779      1.0  0.11844  0.80727  0.88058  1.0000
  H   H780      1.0  0.11069  0.81893  0.86142  1.0000
  H   H781      1.0  0.10284  0.82710  0.88117  1.0000
  S   S206      1.0  0.12659  0.75900  0.86386  1.0000
  S   S207      1.0  0.09441  0.78213  0.95549  1.0000
  C   C495      1.0  0.10094  0.98286  0.84667  1.0000
  H   H782      1.0  0.99775  0.80031  0.92402  1.0000
  H   H783      1.0  0.25818  0.76539  0.72268  1.0000
  H   H784      1.0  0.23927  0.75594  0.76083  1.0000
  H   H785      1.0  0.16160  0.77166  0.95403  1.0000
  C   C496      1.0  0.14710  0.77938  0.89268  1.0000
  H   H786      1.0  0.04707  0.86553  0.88621  1.0000
  H   H787      1.0  0.14861  0.75766  0.77603  1.0000
  C   C497      1.0  0.12958  0.76742  0.88043  1.0000
  C   C498      1.0  0.16035  0.76933  0.96834  1.0000
  C   C499      1.0  0.02816  0.84491  0.92556  1.0000
  C   C500      1.0  0.13143  0.76421  0.97322  1.0000
  Fe  Fe107     1.0  0.17477  0.75895  0.80899  1.0000
  H   H788      1.0  0.06820  0.83948  0.81801  1.0000
  H   H789      1.0  0.10045  0.86493  0.79111  1.0000
  C   C501      1.0  0.09426  0.85598  0.80232  1.0000
  H   H790      1.0  0.08258  0.86397  0.80905  1.0000
  H   H791      1.0  0.06731  0.85890  0.78846  1.0000
  Fe  Fe108     1.0  0.08653  0.80189  0.97227  1.0000
  H   H792      1.0  0.08622  0.85719  0.77165  1.0000
  N   N51       1.0  0.08982  0.84207  0.79666  1.0000
  C   C502      1.0  0.07904  0.84978  0.78351  1.0000
  C   C503      1.0  0.08018  0.83147  0.81170  1.0000
  H   H793      1.0  0.08814  0.82506  0.82163  1.0000
  H   H794      1.0  0.11417  0.82453  0.79860  1.0000
  H   H795      1.0  0.07456  0.83973  0.77967  1.0000
  H   H796      1.0  0.10283  0.82081  0.78412  1.0000
  H   H797      1.0  0.11365  0.83867  0.77789  1.0000
  C   C504      1.0  0.10583  0.83104  0.78901  1.0000
  H   H798      1.0  0.07610  0.82120  0.80782  1.0000
  H   H799      1.0  0.05656  0.79262  0.80230  1.0000
  S   S208      1.0  0.17161  0.77010  0.83245  1.0000
  H   H800      1.0  0.11250  0.76602  0.82026  1.0000
  H   H801      1.0  0.05663  0.85311  0.90415  1.0000
  S   S209      1.0  0.14007  0.98341  0.86869  1.0000
  C   C505      1.0  0.11778  0.77717  0.90761  1.0000
  Fe  Fe109     1.0  0.14406  0.76696  0.83834  1.0000
  H   H802      1.0  0.03752  0.75499  0.89472  1.0000
  C   C506      1.0  0.13587  0.79295  0.97069  1.0000
  C   C507      1.0  0.02702  0.87549  0.91456  1.0000
  H   H803      1.0  0.03898  0.84368  0.93211  1.0000
  C   C508      1.0  0.23505  0.75292  0.75016  1.0000
  H   H804      1.0  0.00177  0.86105  0.91048  1.0000
  H   H805      1.0  0.08618  0.76991  0.87081  1.0000
  S   S210      1.0  0.14802  0.75333  0.81653  1.0000
  H   H806      1.0  0.04010  0.76972  0.87421  1.0000
  H   H807      1.0  0.03734  0.87520  0.92135  1.0000
  H   H808      1.0  0.01377  0.87062  0.89021  1.0000
  H   H809      1.0  0.06792  0.77808  0.86049  1.0000
  H   H810      1.0  0.23703  0.75072  0.71753  1.0000
  H   H811      1.0  0.02802  0.88609  0.90288  1.0000
  C   C509      1.0  0.07180  0.77392  0.87327  1.0000
  H   H812      1.0  0.11766  0.76749  0.97996  1.0000
  H   H813      1.0  0.12208  0.79699  0.97678  1.0000
  H   H814      1.0  0.13171  0.76677  0.95907  1.0000
  S   S211      1.0  0.00212  0.82119  0.89024  1.0000
  C   C510      1.0  0.06882  0.74456  0.87606  1.0000
  H   H815      1.0  0.08744  0.98891  0.84731  1.0000
  H   H816      1.0  0.15638  0.75021  0.75598  1.0000
  H   H817      1.0  0.18138  0.74999  0.77340  1.0000
  C   C511      1.0  0.14481  0.75254  0.76641  1.0000
  H   H818      1.0  0.11208  0.75094  0.78231  1.0000
  H   H819      1.0  0.16876  0.77688  0.97086  1.0000
  N   N52       1.0  0.14215  0.77439  0.97708  1.0000
  H   H820      1.0  0.16555  0.75537  0.97282  1.0000
  S   S212      1.0  0.99677  0.83726  0.84258  1.0000
  H   H821      1.0  0.22449  0.74558  0.75625  1.0000
  H   H822      1.0  0.12512  0.74547  0.79820  1.0000
  N   N53       1.0  0.24951  0.74290  0.73936  1.0000
  H   H823      1.0  0.08317  0.74039  0.87324  1.0000
  C   C512      1.0  0.12216  0.74064  0.78790  1.0000
  H   H824      1.0  0.12347  0.73992  0.75485  1.0000
  H   H825      1.0  0.65710  0.18297  0.26494  1.0000
  H   H826      1.0  0.35039  0.21432  0.39363  1.0000
  C   C513      1.0  0.34374  0.22648  0.39739  1.0000
  H   H827      1.0  0.32923  0.21457  0.42156  1.0000
  C   C514      1.0  0.33178  0.22662  0.41316  1.0000
  H   H828      1.0  0.32775  0.23517  0.35943  1.0000
  H   H829      1.0  0.36125  0.21260  0.69955  1.0000
  C   C515      1.0  0.34968  0.22208  0.70287  1.0000
  C   C516      1.0  0.33331  0.21824  0.70501  1.0000
  H   H830      1.0  0.33230  0.20583  0.70330  1.0000
  C   C517      1.0  0.35113  0.23815  0.70498  1.0000
  H   H831      1.0  0.60303  0.35784  0.31546  1.0000
  S   S213      1.0  0.33780  0.30713  0.30662  1.0000
  H   H832      1.0  0.34912  0.38041  0.28079  1.0000
  H   H833      1.0  0.62612  0.31842  0.28583  1.0000
  H   H834      1.0  0.58592  0.33747  0.31360  1.0000
  H   H835      1.0  0.59544  0.32150  0.30050  1.0000
  C   C518      1.0  0.34143  0.35262  0.30463  1.0000
  C   C519      1.0  0.32735  0.29174  0.30420  1.0000
  H   H836      1.0  0.56399  0.39573  0.27840  1.0000
  H   H837      1.0  0.53920  0.38159  0.28301  1.0000
  Fe  Fe110     1.0  0.62940  0.27312  0.31510  1.0000
  H   H838      1.0  0.34278  0.33846  0.30932  1.0000
  H   H839      1.0  0.57170  0.30494  0.30564  1.0000
  H   H840      1.0  0.33103  0.35893  0.31415  1.0000
  H   H841      1.0  0.61603  0.35891  0.27702  1.0000
  S   S214      1.0  0.58761  0.39381  0.29943  1.0000
  H   H842      1.0  0.33348  0.38160  0.26819  1.0000
  C   C520      1.0  0.61496  0.34865  0.31094  1.0000
  H   H843      1.0  0.63296  0.31785  0.30516  1.0000
  N   N54       1.0  0.61192  0.33873  0.29949  1.0000
  H   H844      1.0  0.35196  0.33448  0.27923  1.0000
  H   H845      1.0  0.34818  0.27012  0.30890  1.0000
  C   C521      1.0  0.62809  0.32667  0.29389  1.0000
  C   C522      1.0  0.56968  0.38404  0.30360  1.0000
  S   S215      1.0  0.60602  0.28420  0.30331  1.0000
  C   C523      1.0  0.56044  0.38703  0.29053  1.0000
  H   H846      1.0  0.60441  0.34363  0.27500  1.0000
  S   S216      1.0  0.65604  0.27292  0.29863  1.0000
  H   H847      1.0  0.63859  0.33368  0.28633  1.0000
  C   C524      1.0  0.54646  0.37897  0.29311  1.0000
  Fe  Fe111     1.0  0.65950  0.28648  0.31784  1.0000
  H   H848      1.0  0.59391  0.35964  0.28784  1.0000
  H   H849      1.0  0.33380  0.24900  0.30367  1.0000
  C   C525      1.0  0.65935  0.34310  0.31398  1.0000
  C   C526      1.0  0.59826  0.32883  0.30894  1.0000
  C   C527      1.0  0.33540  0.27431  0.30593  1.0000
  N   N55       1.0  0.33745  0.35809  0.28715  1.0000
  C   C528      1.0  0.54181  0.36757  0.30865  1.0000
  H   H850      1.0  0.35379  0.35595  0.30484  1.0000
  C   C529      1.0  0.60636  0.35073  0.28414  1.0000
  C   C530      1.0  0.57170  0.29452  0.31685  1.0000
  H   H851      1.0  0.34852  0.35253  0.26176  1.0000
  H   H852      1.0  0.36406  0.35129  0.27449  1.0000
  S   S217      1.0  0.52383  0.35822  0.31131  1.0000
  H   H853      1.0  0.45488  0.30117  0.31418  1.0000
  C   C531      1.0  0.35111  0.34873  0.27509  1.0000
  H   H854      1.0  0.62502  0.35646  0.30412  1.0000
  C   C532      1.0  0.33663  0.37691  0.28128  1.0000
  C   C533      1.0  0.32725  0.26237  0.30296  1.0000
  Fe  Fe112     1.0  0.57539  0.30550  0.45226  1.0000
  S   S218      1.0  0.58858  0.32494  0.43222  1.0000
  S   S219      1.0  0.55673  0.29348  0.44559  1.0000
  C   C534      1.0  0.58475  0.44966  0.36993  1.0000
  H   H855      1.0  0.54513  0.38644  0.62323  1.0000
  H   H856      1.0  0.54490  0.30315  0.32800  1.0000
  Fe  Fe113     1.0  0.58363  0.33931  0.45358  1.0000
  S   S220      1.0  0.57474  0.36797  0.45174  1.0000
  C   C535      1.0  0.61959  0.47900  0.33524  1.0000
  H   H857      1.0  0.59486  0.45257  0.37511  1.0000
  S   S221      1.0  0.59957  0.28963  0.46086  1.0000
  H   H858      1.0  0.52745  0.40153  0.38364  1.0000
  Fe  Fe114     1.0  0.58282  0.40642  0.35831  1.0000
  S   S222      1.0  0.60893  0.40930  0.35979  1.0000
  S   S223      1.0  0.56017  0.41222  0.37960  1.0000
  H   H859      1.0  0.48252  0.25892  0.33635  1.0000
  H   H860      1.0  0.48269  0.24880  0.38337  1.0000
  Fe  Fe115     1.0  0.61860  0.38641  0.34688  1.0000
  S   S224      1.0  0.63759  0.36345  0.35684  1.0000
  Fe  Fe116     1.0  0.60960  0.42495  0.33284  1.0000
  H   H861      1.0  0.52335  0.37763  0.34416  1.0000
  S   S225      1.0  0.59225  0.38193  0.34815  1.0000
  S   S226      1.0  0.58265  0.42354  0.33227  1.0000
  Fe  Fe117     1.0  0.51473  0.34083  0.33638  1.0000
  S   S227      1.0  0.49206  0.35078  0.35597  1.0000
  C   C536      1.0  0.33459  0.31955  0.62941  1.0000
  Fe  Fe118     1.0  0.52010  0.30492  0.35791  1.0000
  S   S228      1.0  0.49807  0.31151  0.37956  1.0000
  S   S229      1.0  0.53747  0.27877  0.36003  1.0000
  Fe  Fe119     1.0  0.48365  0.32590  0.35843  1.0000
  S   S230      1.0  0.45519  0.32508  0.36395  1.0000
  Fe  Fe120     1.0  0.50822  0.33565  0.37532  1.0000
  S   S231      1.0  0.51196  0.34759  0.39576  1.0000
  S   S232      1.0  0.50497  0.31713  0.33699  1.0000
  S   S233      1.0  0.53161  0.32779  0.35550  1.0000
  C   C537      1.0  0.55753  0.46026  0.36066  1.0000
  S   S234      1.0  0.34528  0.28957  0.35087  1.0000
  H   H862      1.0  0.33712  0.44965  0.35333  1.0000
  S   S235      1.0  0.38335  0.28234  0.36065  1.0000
  H   H863      1.0  0.56475  0.32276  0.52036  1.0000
  Fe  Fe121     1.0  0.36778  0.26767  0.35268  1.0000
  C   C538      1.0  0.51954  0.37075  0.64393  1.0000
  Fe  Fe122     1.0  0.36182  0.30495  0.35598  1.0000
  C   C539      1.0  0.65160  0.35495  0.32494  1.0000
  H   H864      1.0  0.65039  0.36868  0.31977  1.0000
  H   H865      1.0  0.59832  0.25910  0.33480  1.0000
  C   C540      1.0  0.58517  0.26989  0.38449  1.0000
  Fe  Fe123     1.0  0.35781  0.29667  0.32320  1.0000
  C   C541      1.0  0.55624  0.27978  0.34382  1.0000
  H   H866      1.0  0.65660  0.30569  0.34358  1.0000
  H   H867      1.0  0.59536  0.29715  0.36126  1.0000
  C   C542      1.0  0.57729  0.47944  0.35576  1.0000
  H   H868      1.0  0.65604  0.26419  0.58225  1.0000
  C   C543      1.0  0.47672  0.28205  0.36745  1.0000
  H   H869      1.0  0.60647  0.29185  0.37878  1.0000
  S   S236      1.0  0.61517  0.45195  0.32395  1.0000
  C   C544      1.0  0.37416  0.34730  0.63730  1.0000
  C   C545      1.0  0.44588  0.31697  0.35112  1.0000
  C   C546      1.0  0.42877  0.31458  0.35719  1.0000
  C   C547      1.0  0.42113  0.30725  0.34792  1.0000
  C   C548      1.0  0.43057  0.30214  0.33252  1.0000
  C   C549      1.0  0.44760  0.30486  0.32623  1.0000
  C   C550      1.0  0.45524  0.31230  0.33548  1.0000
  H   H870      1.0  0.42142  0.31832  0.36920  1.0000
  H   H871      1.0  0.40794  0.30549  0.35276  1.0000
  H   H872      1.0  0.46832  0.31442  0.33053  1.0000
  C   C551      1.0  0.34994  0.36670  0.33693  1.0000
  H   H873      1.0  0.54423  0.33456  0.52955  1.0000
  H   H874      1.0  0.59087  0.28381  0.40886  1.0000
  H   H875      1.0  0.61911  0.27884  0.42982  1.0000
  C   C552      1.0  0.34731  0.24202  0.38661  1.0000
  C   C553      1.0  0.36057  0.30097  0.41239  1.0000
  Fe  Fe124     1.0  0.64228  0.26272  0.34865  1.0000
  N   N56       1.0  0.57042  0.46471  0.36780  1.0000
  S   S237      1.0  0.64025  0.48560  0.37287  1.0000
  C   C554      1.0  0.55140  0.36410  0.32158  1.0000
  H   H876      1.0  0.53136  0.38364  0.61044  1.0000
  H   H877      1.0  0.54814  0.35499  0.33341  1.0000
  H   H878      1.0  0.57266  0.36974  0.32906  1.0000
  H   H879      1.0  0.61433  0.38223  0.40439  1.0000
  H   H880      1.0  0.55912  0.30977  0.38238  1.0000
  H   H881      1.0  0.52464  0.41444  0.34545  1.0000
  H   H882      1.0  0.54247  0.39880  0.33701  1.0000
  C   C555      1.0  0.64638  0.34736  0.39725  1.0000
  C   C556      1.0  0.64791  0.33120  0.34936  1.0000
  S   S238      1.0  0.37269  0.31405  0.32807  1.0000
  H   H883      1.0  0.54431  0.40893  0.35343  1.0000
  H   H884      1.0  0.34720  0.30088  0.44607  1.0000
  Fe  Fe125     1.0  0.61233  0.31045  0.44234  1.0000
  C   C557      1.0  0.56352  0.29609  0.38079  1.0000
  H   H885      1.0  0.52609  0.33956  0.63555  1.0000
  H   H886      1.0  0.63120  0.43673  0.35383  1.0000
  C   C558      1.0  0.64537  0.28920  0.55635  1.0000
  C   C559      1.0  0.62626  0.27995  0.41664  1.0000
  C   C560      1.0  0.57845  0.28915  0.40441  1.0000
  H   H887      1.0  0.48124  0.28022  0.37968  1.0000
  C   C561      1.0  0.35509  0.35086  0.34767  1.0000
  C   C562      1.0  0.62708  0.36993  0.64032  1.0000
  H   H888      1.0  0.55048  0.36991  0.35566  1.0000
  N   N57       1.0  0.58021  0.28819  0.38619  1.0000
  H   H889      1.0  0.36842  0.34406  0.34534  1.0000
  H   H890      1.0  0.56346  0.45634  0.34796  1.0000
  C   C563      1.0  0.36349  0.37797  0.62912  1.0000
  C   C564      1.0  0.62186  0.46099  0.33797  1.0000
  H   H891      1.0  0.64062  0.36375  0.63850  1.0000
  N   N58       1.0  0.65813  0.28931  0.56635  1.0000
  H   H892      1.0  0.64075  0.45030  0.37296  1.0000
  H   H893      1.0  0.50783  0.40709  0.37548  1.0000
  C   C565      1.0  0.54368  0.30865  0.43242  1.0000
  C   C566      1.0  0.53482  0.30292  0.42303  1.0000
  C   C567      1.0  0.52524  0.31484  0.41158  1.0000
  C   C568      1.0  0.52406  0.33256  0.40990  1.0000
  C   C569      1.0  0.53273  0.33834  0.41946  1.0000
  C   C570      1.0  0.54270  0.32638  0.43057  1.0000
  H   H894      1.0  0.53548  0.28922  0.42450  1.0000
  H   H895      1.0  0.51851  0.31031  0.40434  1.0000
  H   H896      1.0  0.53184  0.35204  0.41821  1.0000
  H   H897      1.0  0.54942  0.33089  0.43788  1.0000
  C   C571      1.0  0.57048  0.37969  0.43156  1.0000
  C   C572      1.0  0.55919  0.39578  0.43068  1.0000
  C   C573      1.0  0.55577  0.40554  0.41471  1.0000
  C   C574      1.0  0.56408  0.39949  0.39950  1.0000
  C   C575      1.0  0.57557  0.38352  0.40027  1.0000
  C   C576      1.0  0.57856  0.37349  0.41635  1.0000
  H   H898      1.0  0.55293  0.40061  0.44241  1.0000
  H   H899      1.0  0.54687  0.41787  0.41416  1.0000
  H   H900      1.0  0.58196  0.37876  0.38854  1.0000
  H   H901      1.0  0.58725  0.36110  0.41692  1.0000
  S   S239      1.0  0.56809  0.32116  0.47284  1.0000
  N   N59       1.0  0.48387  0.26693  0.35913  1.0000
  H   H902      1.0  0.58839  0.26865  0.37072  1.0000
  H   H903      1.0  0.53851  0.36499  0.37731  1.0000
  H   H904      1.0  0.56884  0.28162  0.41319  1.0000
  H   H905      1.0  0.57162  0.47286  0.39048  1.0000
  H   H906      1.0  0.48183  0.28159  0.33360  1.0000
  C   C577      1.0  0.62577  0.26836  0.40677  1.0000
  H   H907      1.0  0.55310  0.28906  0.38862  1.0000
  H   H908      1.0  0.50552  0.39317  0.35262  1.0000
  C   C578      1.0  0.51671  0.38293  0.35598  1.0000
  H   H909      1.0  0.51138  0.37239  0.36577  1.0000
  H   H910      1.0  0.57109  0.25659  0.35657  1.0000
  S   S240      1.0  0.63676  0.30723  0.42201  1.0000
  H   H911      1.0  0.65385  0.37601  0.40174  1.0000
  C   C579      1.0  0.65517  0.31940  0.33833  1.0000
  H   H912      1.0  0.58008  0.43826  0.37893  1.0000
  C   C580      1.0  0.33497  0.31252  0.61528  1.0000
  H   H913      1.0  0.48068  0.29392  0.35883  1.0000
  H   H914      1.0  0.34175  0.26969  0.38366  1.0000
  H   H915      1.0  0.61939  0.33998  0.32258  1.0000
  H   H916      1.0  0.37591  0.37997  0.62013  1.0000
  H   H917      1.0  0.59678  0.26312  0.39003  1.0000
  C   C581      1.0  0.58669  0.26869  0.33328  1.0000
  C   C582      1.0  0.62435  0.35093  0.42284  1.0000
  H   H918      1.0  0.33481  0.31856  0.43327  1.0000
  H   H919      1.0  0.48341  0.23982  0.36513  1.0000
  S   S241      1.0  0.36222  0.24160  0.36688  1.0000
  S   S242      1.0  0.63233  0.28834  0.33307  1.0000
  H   H920      1.0  0.55225  0.38041  0.37187  1.0000
  H   H921      1.0  0.51369  0.38613  0.38859  1.0000
  N   N60       1.0  0.52851  0.38965  0.36254  1.0000
  C   C583      1.0  0.54310  0.37563  0.36699  1.0000
  C   C584      1.0  0.53527  0.40359  0.34903  1.0000
  C   C585      1.0  0.51893  0.39646  0.37823  1.0000
  C   C586      1.0  0.33257  0.37509  0.33950  1.0000
  Fe  Fe126     1.0  0.59348  0.30705  0.47994  1.0000
  H   H922      1.0  0.59049  0.31141  0.37632  1.0000
  C   C587      1.0  0.64610  0.34897  0.34269  1.0000
  H   H923      1.0  0.63113  0.38030  0.38538  1.0000
  C   C588      1.0  0.64488  0.28239  0.38245  1.0000
  H   H924      1.0  0.59798  0.31248  0.56071  1.0000
  H   H925      1.0  0.34076  0.44920  0.33072  1.0000
  S   S243      1.0  0.62188  0.40221  0.31993  1.0000
  C   C589      1.0  0.63236  0.47638  0.35983  1.0000
  H   H926      1.0  0.57421  0.30270  0.40640  1.0000
  H   H927      1.0  0.65370  0.30339  0.38707  1.0000
  C   C590      1.0  0.64580  0.29370  0.39254  1.0000
  H   H928      1.0  0.61812  0.25846  0.41241  1.0000
  N   N61       1.0  0.34427  0.29564  0.42250  1.0000
  C   C591      1.0  0.64121  0.29613  0.64425  1.0000
  H   H929      1.0  0.64722  0.29808  0.54347  1.0000
  S   S244      1.0  0.34876  0.32326  0.37375  1.0000
  H   H930      1.0  0.58167  0.36117  0.49306  1.0000
  H   H931      1.0  0.35271  0.26990  0.41743  1.0000
  H   H932      1.0  0.34023  0.35937  0.64865  1.0000
  H   H933      1.0  0.57461  0.26273  0.39139  1.0000
  H   H934      1.0  0.37079  0.29716  0.42017  1.0000
  N   N62       1.0  0.63499  0.36005  0.40749  1.0000
  C   C592      1.0  0.63630  0.29261  0.40960  1.0000
  S   S245      1.0  0.63685  0.24737  0.33204  1.0000
  S   S246      1.0  0.60850  0.32649  0.46228  1.0000
  H   H935      1.0  0.64624  0.27606  0.55415  1.0000
  C   C593      1.0  0.63463  0.45835  0.36256  1.0000
  H   H936      1.0  0.56446  0.29584  0.36700  1.0000
  H   H937      1.0  0.35698  0.27231  0.43714  1.0000
  C   C594      1.0  0.33876  0.25770  0.39161  1.0000
  H   H938      1.0  0.65483  0.33719  0.40504  1.0000
  H   H939      1.0  0.58724  0.48300  0.36063  1.0000
  C   C595      1.0  0.57128  0.26726  0.34557  1.0000
  C   C596      1.0  0.34746  0.27667  0.42852  1.0000
  H   H940      1.0  0.61664  0.34360  0.41897  1.0000
  C   C597      1.0  0.47820  0.25151  0.37098  1.0000
  H   H941      1.0  0.35695  0.39025  0.63363  1.0000
  C   C598      1.0  0.65490  0.27773  0.58348  1.0000
  H   H942      1.0  0.61515  0.36001  0.43073  1.0000
  H   H943      1.0  0.63190  0.29363  0.56315  1.0000
  C   C599      1.0  0.62925  0.45065  0.35175  1.0000
  C   C600      1.0  0.59370  0.29762  0.37513  1.0000
  C   C601      1.0  0.59214  0.38592  0.64485  1.0000
  C   C602      1.0  0.56219  0.46942  0.38479  1.0000
  H   H944      1.0  0.56070  0.34868  0.63401  1.0000
  C   C603      1.0  0.34301  0.34386  0.36144  1.0000
  H   H945      1.0  0.50769  0.27556  0.34639  1.0000
  C   C604      1.0  0.63486  0.26969  0.38962  1.0000
  H   H946      1.0  0.61576  0.36641  0.39195  1.0000
  H   H947      1.0  0.58351  0.47626  0.34278  1.0000
  H   H948      1.0  0.52243  0.38039  0.64981  1.0000
  H   H949      1.0  0.50819  0.26165  0.36712  1.0000
  H   H950      1.0  0.65867  0.31626  0.55607  1.0000
  H   H951      1.0  0.36866  0.29166  0.64428  1.0000
  C   C605      1.0  0.54880  0.35456  0.64233  1.0000
  H   H952      1.0  0.59115  0.44577  0.35734  1.0000
  H   H953      1.0  0.65482  0.35367  0.38562  1.0000
  C   C606      1.0  0.55213  0.30673  0.64353  1.0000
  H   H954      1.0  0.52062  0.35601  0.61743  1.0000
  C   C607      1.0  0.47759  0.27014  0.34291  1.0000
  H   H955      1.0  0.55199  0.44926  0.36948  1.0000
  Fe  Fe127     1.0  0.59473  0.39931  0.32203  1.0000
  H   H956      1.0  0.50890  0.37735  0.63692  1.0000
  H   H957      1.0  0.34129  0.41769  0.36008  1.0000
  H   H958      1.0  0.55697  0.45849  0.39417  1.0000
  H   H959      1.0  0.60219  0.31922  0.32031  1.0000
  C   C608      1.0  0.50297  0.26407  0.35518  1.0000
  H   H960      1.0  0.55312  0.37128  0.60920  1.0000
  H   H961      1.0  0.36566  0.29509  0.40068  1.0000
  Fe  Fe128     1.0  0.39341  0.29025  0.33206  1.0000
  H   H962      1.0  0.46383  0.25332  0.37416  1.0000
  C   C609      1.0  0.64567  0.36898  0.41308  1.0000
  C   C610      1.0  0.61644  0.36684  0.63082  1.0000
  C   C611      1.0  0.62354  0.37285  0.39688  1.0000
  H   H963      1.0  0.35504  0.37555  0.62152  1.0000
  S   S247      1.0  0.58418  0.34424  0.58904  1.0000
  Fe  Fe129     1.0  0.58168  0.31833  0.60567  1.0000
  S   S248      1.0  0.55851  0.30700  0.60907  1.0000
  H   H964      1.0  0.55982  0.35175  0.53926  1.0000
  H   H965      1.0  0.46317  0.27270  0.34537  1.0000
  S   S249      1.0  0.34749  0.28873  0.59442  1.0000
  C   C612      1.0  0.61407  0.31794  0.51098  1.0000
  H   H966      1.0  0.35067  0.48824  0.63416  1.0000
  C   C613      1.0  0.54138  0.37672  0.61816  1.0000
  C   C614      1.0  0.34659  0.31193  0.64004  1.0000
  H   H967      1.0  0.53748  0.36661  0.52135  1.0000
  C   C615      1.0  0.34754  0.29806  0.61155  1.0000
  C   C616      1.0  0.35980  0.29065  0.62194  1.0000
  C   C617      1.0  0.35925  0.29752  0.63626  1.0000
  C   C618      1.0  0.33768  0.30422  0.43752  1.0000
  H   H968      1.0  0.54190  0.36499  0.49899  1.0000
  H   H969      1.0  0.62183  0.35840  0.62167  1.0000
  C   C619      1.0  0.33129  0.30081  0.41148  1.0000
  C   C620      1.0  0.61474  0.32439  0.53836  1.0000
  H   H970      1.0  0.32856  0.31507  0.40679  1.0000
  C   C621      1.0  0.55648  0.29347  0.32950  1.0000
  H   H971      1.0  0.46230  0.28474  0.37059  1.0000
  H   H972      1.0  0.36558  0.34417  0.63033  1.0000
  Fe  Fe130     1.0  0.61739  0.31119  0.61371  1.0000
  C   C622      1.0  0.55212  0.29794  0.63089  1.0000
  C   C623      1.0  0.60272  0.31389  0.54692  1.0000
  H   H973      1.0  0.62979  0.33445  0.51369  1.0000
  C   C624      1.0  0.56950  0.35168  0.52688  1.0000
  H   H974      1.0  0.54716  0.27508  0.62596  1.0000
  H   H975      1.0  0.35929  0.37203  0.32620  1.0000
  S   S250      1.0  0.59322  0.29709  0.50840  1.0000
  C   C625      1.0  0.62452  0.48669  0.34634  1.0000
  H   H976      1.0  0.38680  0.34820  0.62826  1.0000
  H   H977      1.0  0.64332  0.31200  0.57577  1.0000
  H   H978      1.0  0.58555  0.33793  0.49831  1.0000
  H   H979      1.0  0.54662  0.47137  0.35863  1.0000
  C   C626      1.0  0.55462  0.33451  0.51769  1.0000
  N   N63       1.0  0.56183  0.35041  0.51278  1.0000
  C   C627      1.0  0.57533  0.34980  0.49684  1.0000
  H   H980      1.0  0.63745  0.37855  0.42093  1.0000
  C   C628      1.0  0.54791  0.36565  0.50960  1.0000
  H   H981      1.0  0.54911  0.33290  0.50716  1.0000
  H   H982      1.0  0.55298  0.37783  0.50562  1.0000
  N   N64       1.0  0.36622  0.36345  0.64384  1.0000
  H   H983      1.0  0.58028  0.34055  0.52924  1.0000
  S   S251      1.0  0.63486  0.28991  0.62808  1.0000
  H   H984      1.0  0.61853  0.31948  0.49711  1.0000
  H   H985      1.0  0.63364  0.32353  0.63493  1.0000
  H   H986      1.0  0.55588  0.31909  0.63975  1.0000
  S   S252      1.0  0.60748  0.30468  0.59349  1.0000
  S   S253      1.0  0.63256  0.25592  0.37728  1.0000
  H   H987      1.0  0.36959  0.27949  0.61904  1.0000
  C   C629      1.0  0.63904  0.31359  0.64476  1.0000
  C   C630      1.0  0.60210  0.30737  0.51960  1.0000
  C   C631      1.0  0.62045  0.32637  0.52037  1.0000
  Fe  Fe131     1.0  0.61100  0.33100  0.57845  1.0000
  H   H988      1.0  0.33575  0.24404  0.63457  1.0000
  S   S254      1.0  0.42154  0.29186  0.32131  1.0000
  C   C632      1.0  0.54713  0.28190  0.63577  1.0000
  H   H989      1.0  0.64366  0.32654  0.36307  1.0000
  C   C633      1.0  0.59897  0.37490  0.63303  1.0000
  H   H990      1.0  0.56976  0.34974  0.48580  1.0000
  C   C634      1.0  0.53085  0.35008  0.62513  1.0000
  H   H991      1.0  0.61377  0.48704  0.32465  1.0000
  H   H992      1.0  0.57494  0.36360  0.52371  1.0000
  H   H993      1.0  0.64170  0.28189  0.59104  1.0000
  Fe  Fe132     1.0  0.59590  0.34736  0.60990  1.0000
  S   S255      1.0  0.58538  0.37102  0.62147  1.0000
  S   S256      1.0  0.62322  0.33658  0.59778  1.0000
  S   S257      1.0  0.62295  0.33485  0.54999  1.0000
  C   C635      1.0  0.59659  0.30523  0.53759  1.0000
  N   N65       1.0  0.53511  0.36304  0.63237  1.0000
  H   H994      1.0  0.54238  0.34386  0.61647  1.0000
  H   H995      1.0  0.58730  0.29710  0.54432  1.0000
  S   S258      1.0  0.59119  0.32233  0.62751  1.0000
  H   H996      1.0  0.35858  0.31525  0.40768  1.0000
  S   S259      1.0  0.37955  0.27348  0.32429  1.0000
  H   H997      1.0  0.63871  0.34055  0.39260  1.0000
  H   H998      1.0  0.63258  0.34134  0.43128  1.0000
  C   C636      1.0  0.33424  0.41851  0.34980  1.0000
  C   C637      1.0  0.33069  0.44967  0.34281  1.0000
  H   H999      1.0  0.65202  0.28336  0.36924  1.0000
  C   C638      1.0  0.65650  0.30707  0.56871  1.0000
  H   H1000     1.0  0.34400  0.41680  0.33770  1.0000
  H   H1001     1.0  0.55128  0.48073  0.38369  1.0000
  H   H1002     1.0  0.33532  0.27215  0.43582  1.0000
  H   H1003     1.0  0.32767  0.40726  0.35364  1.0000
  H   H1004     1.0  0.37646  0.33608  0.64808  1.0000
  H   H1005     1.0  0.57862  0.39218  0.64661  1.0000
  H   H1006     1.0  0.65446  0.35962  0.42110  1.0000
  H   H1007     1.0  0.39058  0.36823  0.64515  1.0000
  H   H1008     1.0  0.55246  0.36400  0.64786  1.0000
  H   H1009     1.0  0.65784  0.48196  0.32580  1.0000
  H   H1010     1.0  0.33583  0.29484  0.39985  1.0000
  H   H1011     1.0  0.50894  0.25283  0.34879  1.0000
  H   H1012     1.0  0.33329  0.26694  0.62682  1.0000
  H   H1013     1.0  0.33874  0.46947  0.62214  1.0000
  C   C639      1.0  0.56523  0.37249  0.31914  1.0000
  C   C640      1.0  0.58688  0.28226  0.31883  1.0000
  Fe  Fe133     1.0  0.52244  0.33578  0.69902  1.0000
  S   S260      1.0  0.50618  0.33481  0.72578  1.0000
  S   S261      1.0  0.53258  0.35944  0.68338  1.0000
  Fe  Fe134     1.0  0.52585  0.29737  0.70120  1.0000
  S   S262      1.0  0.51064  0.29321  0.72831  1.0000
  S   S263      1.0  0.53563  0.27497  0.68782  1.0000
  Fe  Fe135     1.0  0.49275  0.31753  0.71843  1.0000
  S   S264      1.0  0.46395  0.31820  0.72632  1.0000
  Fe  Fe136     1.0  0.52576  0.31079  0.73252  1.0000
  H   H1014     1.0  0.58685  0.37151  0.75535  1.0000
  S   S265      1.0  0.50734  0.32071  0.69086  1.0000
  S   S266      1.0  0.54262  0.31269  0.70609  1.0000
  S   S267      1.0  0.35015  0.29171  0.70081  1.0000
  Fe  Fe137     1.0  0.39838  0.29571  0.68648  1.0000
  S   S268      1.0  0.37672  0.31880  0.68814  1.0000
  C   C641      1.0  0.64438  0.31820  0.65778  1.0000
  Fe  Fe138     1.0  0.36555  0.30253  0.71300  1.0000
  H   H1015     1.0  0.46841  0.25954  0.68829  1.0000
  Fe  Fe139     1.0  0.36337  0.30570  0.67577  1.0000
  H   H1016     1.0  0.49659  0.24387  0.72078  1.0000
  S   S269      1.0  0.38813  0.28026  0.71242  1.0000
  S   S270      1.0  0.63064  0.29461  0.73089  1.0000
  H   H1017     1.0  0.63959  0.32433  0.73832  1.0000
  Fe  Fe140     1.0  0.63429  0.26588  0.73500  1.0000
  C   C642      1.0  0.59131  0.28734  0.66550  1.0000
  S   S271      1.0  0.63450  0.41098  0.69726  1.0000
  C   C643      1.0  0.63820  0.46945  0.72019  1.0000
  Fe  Fe141     1.0  0.62011  0.39702  0.68693  1.0000
  S   S272      1.0  0.61260  0.37966  0.71236  1.0000
  C   C644      1.0  0.33880  0.33972  0.71164  1.0000
  Fe  Fe142     1.0  0.60893  0.42916  0.70254  1.0000
  H   H1018     1.0  0.60264  0.32413  0.66764  1.0000
  S   S273      1.0  0.60585  0.45827  0.69565  1.0000
  H   H1019     1.0  0.60156  0.28106  0.75535  1.0000
  Fe  Fe143     1.0  0.58884  0.40004  0.71639  1.0000
  S   S274      1.0  0.56537  0.38863  0.72981  1.0000
  C   C645      1.0  0.57479  0.29236  0.75460  1.0000
  S   S275      1.0  0.59515  0.41638  0.68994  1.0000
  C   C646      1.0  0.61882  0.46885  0.70218  1.0000
  C   C647      1.0  0.34920  0.34991  0.73179  1.0000
  H   H1020     1.0  0.34325  0.37352  0.66093  1.0000
  C   C648      1.0  0.34612  0.33631  0.72619  1.0000
  C   C649      1.0  0.64004  0.35008  0.74017  1.0000
  H   H1021     1.0  0.59697  0.28205  0.69806  1.0000
  C   C650      1.0  0.64843  0.28337  0.65688  1.0000
  C   C651      1.0  0.54160  0.36789  0.69609  1.0000
  C   C652      1.0  0.54147  0.35992  0.71340  1.0000
  C   C653      1.0  0.54854  0.36658  0.72365  1.0000
  C   C654      1.0  0.55634  0.38094  0.71654  1.0000
  C   C655      1.0  0.55701  0.38867  0.69905  1.0000
  C   C656      1.0  0.54946  0.38225  0.68887  1.0000
  H   H1022     1.0  0.53583  0.34864  0.71904  1.0000
  S   S276      1.0  0.37173  0.24259  0.70260  1.0000
  H   H1023     1.0  0.56301  0.39980  0.69348  1.0000
  H   H1024     1.0  0.54975  0.38840  0.67543  1.0000
  H   H1025     1.0  0.58834  0.33123  0.78913  1.0000
  S   S277      1.0  0.61171  0.25566  0.73350  1.0000
  C   C657      1.0  0.57747  0.26904  0.73364  1.0000
  H   H1026     1.0  0.60356  0.33866  0.74149  1.0000
  H   H1027     1.0  0.63892  0.35559  0.72699  1.0000
  H   H1028     1.0  0.59735  0.39732  0.66363  1.0000
  C   C658      1.0  0.45276  0.31482  0.71194  1.0000
  C   C659      1.0  0.43627  0.31072  0.71837  1.0000
  C   C660      1.0  0.42767  0.30650  0.70753  1.0000
  C   C661      1.0  0.43551  0.30643  0.69016  1.0000
  C   C662      1.0  0.45171  0.31111  0.68360  1.0000
  C   C663      1.0  0.46033  0.31527  0.69444  1.0000
  H   H1029     1.0  0.43028  0.31045  0.73187  1.0000
  H   H1030     1.0  0.41512  0.30304  0.71269  1.0000
  H   H1031     1.0  0.34867  0.37731  0.72626  1.0000
  H   H1032     1.0  0.47283  0.31874  0.68927  1.0000
  H   H1033     1.0  0.33005  0.27071  0.78313  1.0000
  S   S278      1.0  0.54103  0.30702  0.75297  1.0000
  C   C664      1.0  0.54211  0.28360  0.66594  1.0000
  C   C665      1.0  0.54241  0.27457  0.65335  1.0000
  H   H1034     1.0  0.58352  0.36521  0.68234  1.0000
  H   H1035     1.0  0.58870  0.35815  0.70341  1.0000
  C   C666      1.0  0.59194  0.26945  0.73967  1.0000
  H   H1036     1.0  0.50278  0.27308  0.67794  1.0000
  C   C667      1.0  0.60894  0.48386  0.75907  1.0000
  H   H1037     1.0  0.60597  0.35683  0.76073  1.0000
  H   H1038     1.0  0.54791  0.36052  0.73712  1.0000
  N   N66       1.0  0.59675  0.27071  0.67695  1.0000
  H   H1039     1.0  0.64573  0.46281  0.72995  1.0000
  S   S279      1.0  0.60034  0.41436  0.72937  1.0000
  H   H1040     1.0  0.65896  0.27805  0.67972  1.0000
  H   H1041     1.0  0.46715  0.26170  0.72583  1.0000
  H   H1042     1.0  0.47551  0.28123  0.71994  1.0000
  C   C668      1.0  0.60866  0.25861  0.66635  1.0000
  H   H1043     1.0  0.58797  0.36254  0.77758  1.0000
  H   H1044     1.0  0.65346  0.34087  0.70280  1.0000
  C   C669      1.0  0.65321  0.28799  0.67018  1.0000
  H   H1045     1.0  0.58963  0.34543  0.66276  1.0000
  H   H1046     1.0  0.54655  0.30678  0.67072  1.0000
  C   C670      1.0  0.60570  0.27350  0.68936  1.0000
  H   H1047     1.0  0.60545  0.36168  0.68456  1.0000
  H   H1048     1.0  0.45769  0.31134  0.67010  1.0000
  S   S280      1.0  0.42596  0.29961  0.67658  1.0000
  H   H1049     1.0  0.56887  0.33934  0.69004  1.0000
  C   C671      1.0  0.65550  0.35218  0.69211  1.0000
  H   H1050     1.0  0.35088  0.35062  0.66660  1.0000
  C   C672      1.0  0.57978  0.33189  0.69645  1.0000
  C   C673      1.0  0.60019  0.33763  0.66953  1.0000
  C   C674      1.0  0.59326  0.35664  0.68972  1.0000
  H   H1051     1.0  0.61202  0.34288  0.66282  1.0000
  H   H1052     1.0  0.60719  0.32808  0.71052  1.0000
  N   N67       1.0  0.59584  0.33849  0.68807  1.0000
  H   H1053     1.0  0.58140  0.31808  0.69593  1.0000
  H   H1054     1.0  0.35121  0.25777  0.75028  1.0000
  H   H1055     1.0  0.55065  0.28015  0.73307  1.0000
  N   N68       1.0  0.48574  0.26426  0.70172  1.0000
  C   C675      1.0  0.34539  0.27172  0.74979  1.0000
  C   C676      1.0  0.56180  0.28057  0.73772  1.0000
  H   H1056     1.0  0.53870  0.26209  0.65715  1.0000
  S   S281      1.0  0.35317  0.31488  0.73591  1.0000
  Fe  Fe144     1.0  0.37360  0.27058  0.69794  1.0000
  S   S282      1.0  0.38600  0.28386  0.67178  1.0000
  C   C677      1.0  0.60273  0.38884  0.65451  1.0000
  C   C678      1.0  0.59141  0.32921  0.77560  1.0000
  H   H1057     1.0  0.62945  0.44662  0.71973  1.0000
  H   H1058     1.0  0.48104  0.28536  0.68050  1.0000
  H   H1059     1.0  0.57837  0.25980  0.72584  1.0000
  C   C679      1.0  0.62896  0.46026  0.71446  1.0000
  C   C680      1.0  0.33863  0.37022  0.70757  1.0000
  H   H1060     1.0  0.57566  0.33294  0.71032  1.0000
  H   H1061     1.0  0.46005  0.27875  0.70898  1.0000
  C   C681      1.0  0.56044  0.29225  0.74820  1.0000
  H   H1062     1.0  0.34810  0.27837  0.73605  1.0000
  H   H1063     1.0  0.62168  0.48373  0.74996  1.0000
  H   H1064     1.0  0.49560  0.28773  0.69258  1.0000
  C   C682      1.0  0.65123  0.30539  0.67066  1.0000
  S   S283      1.0  0.64135  0.38261  0.74274  1.0000
  H   H1065     1.0  0.64544  0.36350  0.69535  1.0000
  H   H1066     1.0  0.55934  0.33849  0.76789  1.0000
  C   C683      1.0  0.61015  0.32792  0.69648  1.0000
  H   H1067     1.0  0.61287  0.31420  0.69512  1.0000
  Fe  Fe145     1.0  0.62481  0.39515  0.72305  1.0000
  H   H1068     1.0  0.57437  0.26088  0.67759  1.0000
  H   H1069     1.0  0.62237  0.33282  0.69060  1.0000
  H   H1070     1.0  0.65324  0.34935  0.68028  1.0000
  H   H1071     1.0  0.51147  0.24888  0.70058  1.0000
  C   C684      1.0  0.50039  0.25455  0.71004  1.0000
  C   C685      1.0  0.34565  0.36686  0.72233  1.0000
  H   H1072     1.0  0.64400  0.33028  0.78779  1.0000
  H   H1073     1.0  0.60264  0.29325  0.65813  1.0000
  H   H1074     1.0  0.61718  0.27939  0.68264  1.0000
  H   H1075     1.0  0.37986  0.35607  0.66473  1.0000
  H   H1076     1.0  0.64430  0.36140  0.77601  1.0000
  H   H1077     1.0  0.55972  0.36115  0.76085  1.0000
  C   C686      1.0  0.49152  0.27822  0.68756  1.0000
  C   C687      1.0  0.54684  0.29974  0.66103  1.0000
  C   C688      1.0  0.59058  0.28108  0.75021  1.0000
  H   H1078     1.0  0.60574  0.32554  0.77176  1.0000
  C   C689      1.0  0.47152  0.27179  0.71469  1.0000
  H   H1079     1.0  0.56116  0.35072  0.78267  1.0000
  Fe  Fe146     1.0  0.64667  0.28890  0.75091  1.0000
  C   C690      1.0  0.64178  0.32526  0.76382  1.0000
  H   H1080     1.0  0.57363  0.30114  0.76295  1.0000
  C   C691      1.0  0.64315  0.35333  0.76782  1.0000
  S   S284      1.0  0.64141  0.30337  0.77229  1.0000
  C   C692      1.0  0.58925  0.34167  0.74591  1.0000
  C   C693      1.0  0.56533  0.34894  0.76904  1.0000
  C   C694      1.0  0.59161  0.35955  0.76440  1.0000
  H   H1081     1.0  0.58400  0.33065  0.74497  1.0000
  C   C695      1.0  0.64299  0.33575  0.77446  1.0000
  C   C696      1.0  0.64151  0.36055  0.75071  1.0000
  C   C697      1.0  0.33613  0.25026  0.70934  1.0000
  H   H1082     1.0  0.58603  0.31792  0.77566  1.0000
  C   C698      1.0  0.63736  0.48724  0.71368  1.0000
  H   H1083     1.0  0.35518  0.34724  0.74285  1.0000
  H   H1084     1.0  0.33714  0.26251  0.71117  1.0000
  C   C699      1.0  0.64045  0.33239  0.74662  1.0000
  N   N69       1.0  0.58440  0.34484  0.76374  1.0000
  H   H1085     1.0  0.58407  0.35324  0.73670  1.0000
  H   H1086     1.0  0.48991  0.24670  0.68465  1.0000
  S   S285      1.0  0.63359  0.38363  0.66470  1.0000
  H   H1087     1.0  0.60232  0.25615  0.65687  1.0000
  Fe  Fe147     1.0  0.65585  0.29121  0.71197  1.0000
  H   H1088     1.0  0.61042  0.26108  0.69784  1.0000
  H   H1089     1.0  0.51460  0.36074  0.65490  1.0000
  H   H1090     1.0  0.57193  0.27228  0.69446  1.0000
  H   H1091     1.0  0.35239  0.27701  0.75672  1.0000
  C   C700      1.0  0.58137  0.26336  0.68653  1.0000
  H   H1092     1.0  0.32896  0.26184  0.67422  1.0000
  H   H1093     1.0  0.58474  0.28557  0.65582  1.0000
  S   S286      1.0  0.64813  0.26027  0.75699  1.0000
  H   H1094     1.0  0.58495  0.25091  0.69550  1.0000
  H   H1095     1.0  0.61157  0.48054  0.77236  1.0000
  C   C701      1.0  0.47954  0.25252  0.69458  1.0000
  H   H1096     1.0  0.37196  0.37884  0.65876  1.0000
  S   S287      1.0  0.65708  0.31134  0.68732  1.0000
  C   C702      1.0  0.61838  0.48651  0.69535  1.0000
  H   H1097     1.0  0.65041  0.26987  0.65639  1.0000
  H   H1098     1.0  0.50532  0.26314  0.71551  1.0000
  H   H1099     1.0  0.62034  0.26386  0.65882  1.0000
  H   H1100     1.0  0.60350  0.47334  0.75730  1.0000
  S   S288      1.0  0.65861  0.26269  0.71468  1.0000
  H   H1101     1.0  0.33646  0.32923  0.70721  1.0000
  H   H1102     1.0  0.58207  0.29672  0.67298  1.0000
  H   H1103     1.0  0.61318  0.24594  0.67456  1.0000
  H   H1104     1.0  0.54454  0.34425  0.65329  1.0000
  C   C703      1.0  0.34939  0.36168  0.65552  1.0000
  S   S289      1.0  0.34533  0.32062  0.65801  1.0000
  H   H1105     1.0  0.65564  0.26947  0.79151  1.0000
  C   C704      1.0  0.33487  0.35668  0.70249  1.0000
  H   H1106     1.0  0.64318  0.33169  0.65788  1.0000
  H   H1107     1.0  0.47508  0.24180  0.70490  1.0000
  C   C705      1.0  0.62023  0.38086  0.65223  1.0000
  S   S290      1.0  0.33473  0.39134  0.69557  1.0000
  H   H1108     1.0  0.33735  0.46507  0.65417  1.0000
  C   C706      1.0  0.33379  0.25961  0.66076  1.0000
  H   H1109     1.0  0.34336  0.24717  0.66135  1.0000
  C   C707      1.0  0.37770  0.36683  0.65349  1.0000
  H   H1110     1.0  0.32941  0.35909  0.69124  1.0000
  H   H1111     1.0  0.32868  0.25154  0.77686  1.0000
  H   H1112     1.0  0.34089  0.27005  0.65327  1.0000
  C   C708      1.0  0.65041  0.57869  0.30753  1.0000
  C   C709      1.0  0.59582  0.62887  0.30152  1.0000
  C   C710      1.0  0.33475  0.65252  0.29591  1.0000
  H   H1113     1.0  0.57662  0.66052  0.29246  1.0000
  C   C711      1.0  0.32819  0.65441  0.26338  1.0000
  C   C712      1.0  0.64749  0.60776  0.31205  1.0000
  S   S291      1.0  0.64285  0.67458  0.30616  1.0000
  H   H1114     1.0  0.35592  0.64967  0.25474  1.0000
  H   H1115     1.0  0.32857  0.60183  0.27106  1.0000
  H   H1116     1.0  0.60850  0.65790  0.28749  1.0000
  S   S292      1.0  0.37024  0.64643  0.28406  1.0000
  H   H1117     1.0  0.35272  0.69030  0.30102  1.0000
  H   H1118     1.0  0.59653  0.63281  0.28731  1.0000
  H   H1119     1.0  0.33247  0.71885  0.29702  1.0000
  H   H1120     1.0  0.33282  0.58349  0.29983  1.0000
  C   C713      1.0  0.32855  0.71715  0.31136  1.0000
  H   H1121     1.0  0.63731  0.50697  0.31176  1.0000
  H   H1122     1.0  0.58504  0.62168  0.30703  1.0000
  C   C714      1.0  0.34861  0.65027  0.28191  1.0000
  H   H1123     1.0  0.64479  0.52656  0.30046  1.0000
  H   H1124     1.0  0.36343  0.57076  0.31033  1.0000
  C   C715      1.0  0.64629  0.51536  0.31144  1.0000
  C   C716      1.0  0.34525  0.65133  0.26563  1.0000
  Fe  Fe148     1.0  0.37680  0.63973  0.31048  1.0000
  H   H1125     1.0  0.33722  0.65188  0.30842  1.0000
  C   C717      1.0  0.60752  0.65324  0.30168  1.0000
  H   H1126     1.0  0.60808  0.61966  0.30364  1.0000
  H   H1127     1.0  0.32923  0.60234  0.30878  1.0000
  H   H1128     1.0  0.62019  0.64475  0.30362  1.0000
  S   S293      1.0  0.64809  0.55706  0.31498  1.0000
  C   C718      1.0  0.57656  0.65576  0.30650  1.0000
  H   H1129     1.0  0.58261  0.70101  0.31266  1.0000
  C   C719      1.0  0.65590  0.61268  0.29486  1.0000
  H   H1130     1.0  0.57393  0.66728  0.31246  1.0000
  N   N70       1.0  0.59304  0.64401  0.30949  1.0000
  C   C720      1.0  0.34822  0.68962  0.31521  1.0000
  H   H1131     1.0  0.60586  0.66471  0.30742  1.0000
  H   H1132     1.0  0.56535  0.64918  0.31221  1.0000
  C   C721      1.0  0.65841  0.58381  0.29029  1.0000
  S   S294      1.0  0.39197  0.65516  0.31805  1.0000
  H   H1133     1.0  0.33697  0.72333  0.31574  1.0000
  S   S295      1.0  0.66004  0.63360  0.28640  1.0000
  C   C722      1.0  0.64471  0.59075  0.31838  1.0000
  Fe  Fe149     1.0  0.52539  0.65088  0.37654  1.0000
  S   S296      1.0  0.51116  0.67701  0.36562  1.0000
  S   S297      1.0  0.52915  0.64155  0.40408  1.0000
  Fe  Fe150     1.0  0.53359  0.63867  0.34238  1.0000
  S   S298      1.0  0.51981  0.66362  0.32854  1.0000
  S   S299      1.0  0.55146  0.61787  0.32933  1.0000
  Fe  Fe151     1.0  0.53263  0.67589  0.34224  1.0000
  Fe  Fe152     1.0  0.49939  0.66233  0.35307  1.0000
  S   S300      1.0  0.47037  0.66910  0.35553  1.0000
  S   S301      1.0  0.54790  0.65092  0.35428  1.0000
  S   S302      1.0  0.51211  0.63619  0.36576  1.0000
  Fe  Fe153     1.0  0.37321  0.61511  0.34506  1.0000
  S   S303      1.0  0.36007  0.59369  0.36159  1.0000
  H   H1134     1.0  0.60975  0.68797  0.32349  1.0000
  H   H1135     1.0  0.64758  0.65088  0.39882  1.0000
  C   C723      1.0  0.65008  0.58007  0.41178  1.0000
  Fe  Fe154     1.0  0.37244  0.65283  0.34292  1.0000
  S   S304      1.0  0.38742  0.62845  0.35624  1.0000
  H   H1136     1.0  0.47762  0.72592  0.64934  1.0000
  Fe  Fe155     1.0  0.61004  0.54756  0.37513  1.0000
  S   S305      1.0  0.62631  0.52779  0.39199  1.0000
  S   S306      1.0  0.58342  0.56026  0.38648  1.0000
  Fe  Fe156     1.0  0.63888  0.54816  0.34347  1.0000
  H   H1137     1.0  0.60266  0.67698  0.38907  1.0000
  Fe  Fe157     1.0  0.63577  0.51469  0.36920  1.0000
  C   C724      1.0  0.34923  0.67039  0.40727  1.0000
  Fe  Fe158     1.0  0.64650  0.54381  0.37897  1.0000
  H   H1138     1.0  0.33482  0.67664  0.44861  1.0000
  S   S307      1.0  0.61752  0.53316  0.35341  1.0000
  S   S308      1.0  0.62953  0.56442  0.36357  1.0000
  H   H1139     1.0  0.34047  0.60196  0.41305  1.0000
  H   H1140     1.0  0.37376  0.61656  0.40343  1.0000
  Fe  Fe159     1.0  0.63967  0.66587  0.33490  1.0000
  H   H1141     1.0  0.35446  0.58140  0.43524  1.0000
  Fe  Fe160     1.0  0.59819  0.65805  0.44036  1.0000
  S   S309      1.0  0.61794  0.64044  0.42464  1.0000
  S   S310      1.0  0.57931  0.67718  0.42554  1.0000
  S   S311      1.0  0.63255  0.62216  0.46018  1.0000
  Fe  Fe161     1.0  0.63646  0.64476  0.43845  1.0000
  H   H1142     1.0  0.35844  0.68928  0.38530  1.0000
  Fe  Fe162     1.0  0.61200  0.61988  0.44779  1.0000
  S   S312      1.0  0.60626  0.59515  0.44584  1.0000
  S   S313      1.0  0.61731  0.66425  0.45252  1.0000
  S   S314      1.0  0.59094  0.63706  0.46279  1.0000
  H   H1143     1.0  0.36120  0.61093  0.42478  1.0000
  C   C725      1.0  0.59748  0.68631  0.33189  1.0000
  H   H1144     1.0  0.59939  0.55764  0.50302  1.0000
  H   H1145     1.0  0.60112  0.70514  0.40861  1.0000
  H   H1146     1.0  0.34797  0.58701  0.39878  1.0000
  C   C726      1.0  0.57891  0.62460  0.37927  1.0000
  H   H1147     1.0  0.59827  0.62125  0.64077  1.0000
  S   S315      1.0  0.33804  0.64614  0.43489  1.0000
  Fe  Fe163     1.0  0.61204  0.64120  0.47355  1.0000
  C   C727      1.0  0.64614  0.56635  0.40701  1.0000
  C   C728      1.0  0.62997  0.56189  0.41406  1.0000
  C   C729      1.0  0.61790  0.57074  0.42605  1.0000
  C   C730      1.0  0.62177  0.58442  0.43079  1.0000
  C   C731      1.0  0.63781  0.58924  0.42355  1.0000
  C   C732      1.0  0.34813  0.65216  0.38288  1.0000
  C   C733      1.0  0.60018  0.70877  0.39473  1.0000
  C   C734      1.0  0.38180  0.58493  0.39586  1.0000
  H   H1148     1.0  0.64085  0.59987  0.42714  1.0000
  C   C735      1.0  0.34271  0.64574  0.40056  1.0000
  S   S316      1.0  0.61566  0.66422  0.35545  1.0000
  H   H1149     1.0  0.43732  0.64381  0.63910  1.0000
  H   H1150     1.0  0.33281  0.70282  0.34384  1.0000
  H   H1151     1.0  0.62253  0.50056  0.34426  1.0000
  H   H1152     1.0  0.34801  0.64498  0.37345  1.0000
  C   C736      1.0  0.61477  0.68019  0.39024  1.0000
  H   H1153     1.0  0.34985  0.67574  0.32149  1.0000
  H   H1154     1.0  0.65004  0.66985  0.47683  1.0000
  H   H1155     1.0  0.45839  0.64770  0.63736  1.0000
  C   C737      1.0  0.56019  0.60148  0.34503  1.0000
  C   C738      1.0  0.57593  0.59035  0.34035  1.0000
  C   C739      1.0  0.58317  0.57764  0.35307  1.0000
  C   C740      1.0  0.57447  0.57584  0.37040  1.0000
  C   C741      1.0  0.55874  0.58690  0.37504  1.0000
  C   C742      1.0  0.55172  0.59982  0.36240  1.0000
  H   H1156     1.0  0.58252  0.59156  0.32693  1.0000
  H   H1157     1.0  0.59536  0.56913  0.34942  1.0000
  H   H1158     1.0  0.55196  0.58551  0.38842  1.0000
  H   H1159     1.0  0.53958  0.60826  0.36610  1.0000
  C   C743      1.0  0.54262  0.65188  0.41018  1.0000
  C   C744      1.0  0.55039  0.64361  0.42436  1.0000
  C   C745      1.0  0.56174  0.65125  0.42900  1.0000
  C   C746      1.0  0.56509  0.66743  0.41978  1.0000
  C   C747      1.0  0.55699  0.67589  0.40583  1.0000
  C   C748      1.0  0.54588  0.66807  0.40098  1.0000
  H   H1160     1.0  0.54772  0.63121  0.43172  1.0000
  H   H1161     1.0  0.56769  0.64468  0.43989  1.0000
  H   H1162     1.0  0.55935  0.68846  0.39868  1.0000
  H   H1163     1.0  0.53951  0.67473  0.39037  1.0000
  H   H1164     1.0  0.48120  0.61839  0.41847  1.0000
  C   C749      1.0  0.56561  0.68256  0.35370  1.0000
  C   C750      1.0  0.58089  0.67475  0.35966  1.0000
  S   S317      1.0  0.35614  0.63944  0.33454  1.0000
  H   H1165     1.0  0.58659  0.63367  0.40538  1.0000
  H   H1166     1.0  0.55343  0.64609  0.63449  1.0000
  H   H1167     1.0  0.55326  0.68123  0.36211  1.0000
  H   H1168     1.0  0.58031  0.66721  0.37269  1.0000
  H   H1169     1.0  0.62680  0.55134  0.41060  1.0000
  C   C751      1.0  0.46067  0.65604  0.34812  1.0000
  C   C752      1.0  0.47051  0.64151  0.34160  1.0000
  C   C753      1.0  0.46241  0.63116  0.33603  1.0000
  C   C754      1.0  0.44447  0.63527  0.33693  1.0000
  C   C755      1.0  0.43461  0.64972  0.34360  1.0000
  C   C756      1.0  0.44271  0.66005  0.34921  1.0000
  H   H1170     1.0  0.48437  0.63831  0.34068  1.0000
  H   H1171     1.0  0.34272  0.66070  0.50053  1.0000
  H   H1172     1.0  0.42078  0.65300  0.34432  1.0000
  H   H1173     1.0  0.43503  0.67128  0.35423  1.0000
  C   C757      1.0  0.35499  0.58061  0.35021  1.0000
  H   H1174     1.0  0.35714  0.69510  0.31968  1.0000
  C   C758      1.0  0.34857  0.66529  0.48667  1.0000
  N   N71       1.0  0.45671  0.62083  0.64356  1.0000
  C   C759      1.0  0.34349  0.65473  0.41276  1.0000
  H   H1175     1.0  0.35548  0.66449  0.45246  1.0000
  H   H1176     1.0  0.38387  0.59534  0.38419  1.0000
  H   H1177     1.0  0.57337  0.61673  0.37353  1.0000
  H   H1178     1.0  0.60455  0.62954  0.33105  1.0000
  H   H1179     1.0  0.47751  0.66604  0.40758  1.0000
  H   H1180     1.0  0.56759  0.61178  0.41249  1.0000
  H   H1181     1.0  0.58972  0.64932  0.33474  1.0000
  H   H1182     1.0  0.58644  0.59536  0.41575  1.0000
  C   C760      1.0  0.35368  0.66791  0.37740  1.0000
  H   H1183     1.0  0.36164  0.56617  0.42128  1.0000
  C   C761      1.0  0.33092  0.65140  0.47700  1.0000
  S   S318      1.0  0.63790  0.69222  0.62320  1.0000
  H   H1184     1.0  0.35268  0.60837  0.39160  1.0000
  H   H1185     1.0  0.38386  0.60144  0.41989  1.0000
  Fe  Fe164     1.0  0.40600  0.62958  0.33063  1.0000
  H   H1186     1.0  0.37711  0.57184  0.43009  1.0000
  H   H1187     1.0  0.48802  0.63630  0.42221  1.0000
  H   H1188     1.0  0.37883  0.57429  0.39150  1.0000
  H   H1189     1.0  0.49571  0.62984  0.40186  1.0000
  C   C762      1.0  0.57891  0.60331  0.40586  1.0000
  S   S319      1.0  0.33877  0.54834  0.32111  1.0000
  C   C763      1.0  0.46476  0.63671  0.39278  1.0000
  H   H1190     1.0  0.32863  0.56603  0.60228  1.0000
  N   N72       1.0  0.46922  0.64347  0.40597  1.0000
  C   C764      1.0  0.58213  0.69392  0.32586  1.0000
  C   C765      1.0  0.63132  0.70227  0.38532  1.0000
  C   C766      1.0  0.60389  0.60170  0.38249  1.0000
  H   H1191     1.0  0.63325  0.69834  0.39890  1.0000
  H   H1192     1.0  0.57383  0.59429  0.40110  1.0000
  N   N73       1.0  0.61479  0.69882  0.38401  1.0000
  H   H1193     1.0  0.60507  0.61662  0.40796  1.0000
  C   C767      1.0  0.59683  0.67612  0.34854  1.0000
  C   C768      1.0  0.36519  0.57704  0.42472  1.0000
  N   N74       1.0  0.58967  0.61354  0.39153  1.0000
  H   H1194     1.0  0.60521  0.63245  0.38807  1.0000
  S   S320      1.0  0.66010  0.66156  0.58724  1.0000
  C   C769      1.0  0.48412  0.63144  0.41246  1.0000
  C   C770      1.0  0.59699  0.62454  0.39853  1.0000
  N   N75       1.0  0.36761  0.59127  0.40956  1.0000
  H   H1195     1.0  0.59878  0.59318  0.37710  1.0000
  C   C771      1.0  0.56623  0.69144  0.33661  1.0000
  C   C772      1.0  0.35760  0.57066  0.32384  1.0000
  H   H1196     1.0  0.61216  0.59307  0.39146  1.0000
  H   H1197     1.0  0.58650  0.63284  0.36853  1.0000
  H   H1198     1.0  0.47574  0.63538  0.38152  1.0000
  H   H1199     1.0  0.56782  0.63343  0.38580  1.0000
  C   C773      1.0  0.33792  0.56022  0.34988  1.0000
  H   H1200     1.0  0.46126  0.62381  0.39810  1.0000
  H   H1201     1.0  0.34985  0.60949  0.61622  1.0000
  H   H1202     1.0  0.44933  0.62332  0.61944  1.0000
  H   H1203     1.0  0.34859  0.68645  0.45561  1.0000
  C   C774      1.0  0.47381  0.66056  0.39817  1.0000
  H   H1204     1.0  0.47055  0.62721  0.61733  1.0000
  H   H1205     1.0  0.48495  0.65964  0.38709  1.0000
  C   C775      1.0  0.45418  0.64526  0.42047  1.0000
  H   H1206     1.0  0.45708  0.65042  0.43060  1.0000
  H   H1207     1.0  0.45034  0.63260  0.42667  1.0000
  C   C776      1.0  0.37182  0.60565  0.41467  1.0000
  H   H1208     1.0  0.61233  0.60893  0.37162  1.0000
  H   H1209     1.0  0.33610  0.50343  0.64643  1.0000
  S   S321      1.0  0.36086  0.67566  0.35540  1.0000
  C   C777      1.0  0.34296  0.57011  0.35881  1.0000
  H   H1210     1.0  0.60553  0.56695  0.43160  1.0000
  H   H1211     1.0  0.45370  0.64561  0.38746  1.0000
  H   H1212     1.0  0.46295  0.67001  0.39300  1.0000
  H   H1213     1.0  0.44277  0.65429  0.41592  1.0000
  S   S322      1.0  0.64040  0.67430  0.54299  1.0000
  H   H1214     1.0  0.39423  0.58001  0.40036  1.0000
  C   C778      1.0  0.35401  0.67715  0.38957  1.0000
  C   C779      1.0  0.35147  0.59749  0.40293  1.0000
  H   H1215     1.0  0.58162  0.63084  0.33446  1.0000
  C   C780      1.0  0.65526  0.59874  0.62515  1.0000
  H   H1216     1.0  0.58829  0.59672  0.50144  1.0000
  S   S323      1.0  0.65782  0.52877  0.35775  1.0000
  H   H1217     1.0  0.34990  0.67737  0.41665  1.0000
  Fe  Fe165     1.0  0.65132  0.63683  0.60140  1.0000
  H   H1218     1.0  0.36779  0.56273  0.63085  1.0000
  H   H1219     1.0  0.32795  0.55484  0.40048  1.0000
  H   H1220     1.0  0.63600  0.56298  0.48504  1.0000
  H   H1221     1.0  0.46669  0.60548  0.62393  1.0000
  C   C781      1.0  0.59223  0.63815  0.32830  1.0000
  H   H1222     1.0  0.47848  0.60148  0.65045  1.0000
  C   C782      1.0  0.36219  0.58103  0.33265  1.0000
  C   C783      1.0  0.59769  0.59159  0.49049  1.0000
  H   H1223     1.0  0.60052  0.70158  0.36434  1.0000
  N   N76       1.0  0.35640  0.58801  0.63647  1.0000
  H   H1224     1.0  0.61269  0.59249  0.51574  1.0000
  H   H1225     1.0  0.33151  0.62557  0.36859  1.0000
  H   H1226     1.0  0.56689  0.49111  0.35389  1.0000
  S   S324      1.0  0.36871  0.61971  0.58083  1.0000
  H   H1227     1.0  0.61705  0.67008  0.49461  1.0000
  Fe  Fe166     1.0  0.63966  0.66438  0.57183  1.0000
  S   S325      1.0  0.63286  0.63859  0.58461  1.0000
  Fe  Fe167     1.0  0.63851  0.67332  0.60686  1.0000
  S   S326      1.0  0.63105  0.64838  0.62181  1.0000
  C   C784      1.0  0.62464  0.57267  0.48121  1.0000
  Fe  Fe168     1.0  0.34204  0.63554  0.57996  1.0000
  Fe  Fe169     1.0  0.61343  0.65285  0.60357  1.0000
  S   S327      1.0  0.58657  0.64753  0.61209  1.0000
  H   H1228     1.0  0.61716  0.55431  0.51353  1.0000
  S   S328      1.0  0.61899  0.67888  0.59002  1.0000
  S   S329      1.0  0.61072  0.63484  0.50247  1.0000
  S   S330      1.0  0.41096  0.63738  0.62699  1.0000
  H   H1229     1.0  0.63472  0.63908  0.54995  1.0000
  H   H1230     1.0  0.63275  0.57809  0.50926  1.0000
  H   H1231     1.0  0.36029  0.65545  0.48304  1.0000
  H   H1232     1.0  0.61817  0.56654  0.47450  1.0000
  H   H1233     1.0  0.37150  0.58908  0.32589  1.0000
  C   C785      1.0  0.35770  0.56907  0.64060  1.0000
  H   H1234     1.0  0.62960  0.58347  0.47139  1.0000
  H   H1235     1.0  0.32854  0.55221  0.35658  1.0000
  C   C786      1.0  0.57339  0.66117  0.62581  1.0000
  C   C787      1.0  0.55756  0.65731  0.63561  1.0000
  H   H1236     1.0  0.61299  0.71794  0.36057  1.0000
  H   H1237     1.0  0.64255  0.69491  0.37729  1.0000
  H   H1238     1.0  0.58757  0.70614  0.39415  1.0000
  C   C788      1.0  0.57874  0.67563  0.62734  1.0000
  C   C789      1.0  0.33766  0.49684  0.63556  1.0000
  H   H1239     1.0  0.33820  0.59246  0.62000  1.0000
  H   H1240     1.0  0.59105  0.67857  0.62004  1.0000
  C   C790      1.0  0.63844  0.60058  0.62283  1.0000
  C   C791      1.0  0.62717  0.59061  0.63457  1.0000
  H   H1241     1.0  0.63411  0.60957  0.61190  1.0000
  H   H1242     1.0  0.61428  0.59188  0.63252  1.0000
  H   H1243     1.0  0.62915  0.68501  0.51057  1.0000
  H   H1244     1.0  0.58562  0.70367  0.55007  1.0000
  C   C792      1.0  0.63251  0.66316  0.53157  1.0000
  C   C793      1.0  0.62780  0.67171  0.51570  1.0000
  C   C794      1.0  0.62101  0.66327  0.50662  1.0000
  C   C795      1.0  0.61912  0.64612  0.51325  1.0000
  C   C796      1.0  0.62391  0.63758  0.52903  1.0000
  C   C797      1.0  0.63072  0.64600  0.53805  1.0000
  H   H1245     1.0  0.34527  0.56558  0.64079  1.0000
  H   H1246     1.0  0.62252  0.62431  0.53426  1.0000
  H   H1247     1.0  0.59710  0.56843  0.52041  1.0000
  H   H1248     1.0  0.33750  0.56962  0.37238  1.0000
  H   H1249     1.0  0.65493  0.65988  0.45848  1.0000
  H   H1250     1.0  0.62648  0.59842  0.49533  1.0000
  C   C798      1.0  0.37341  0.59198  0.63542  1.0000
  C   C799      1.0  0.37982  0.62507  0.59396  1.0000
  C   C800      1.0  0.37159  0.63647  0.60526  1.0000
  C   C801      1.0  0.38086  0.64002  0.61594  1.0000
  C   C802      1.0  0.39844  0.63252  0.61491  1.0000
  C   C803      1.0  0.40658  0.62121  0.60358  1.0000
  C   C804      1.0  0.39725  0.61732  0.59333  1.0000
  H   H1251     1.0  0.37457  0.64899  0.62450  1.0000
  H   H1252     1.0  0.42017  0.61546  0.60267  1.0000
  H   H1253     1.0  0.40365  0.60853  0.58461  1.0000
  H   H1254     1.0  0.59066  0.58587  0.48397  1.0000
  S   S331      1.0  0.39289  0.61416  0.32038  1.0000
  N   N77       1.0  0.61255  0.57891  0.49629  1.0000
  H   H1255     1.0  0.60204  0.60281  0.48097  1.0000
  C   C805      1.0  0.62154  0.58728  0.50454  1.0000
  C   C806      1.0  0.34537  0.56034  0.33244  1.0000
  N   N78       1.0  0.33608  0.66796  0.47545  1.0000
  C   C807      1.0  0.61289  0.70398  0.36577  1.0000
  H   H1256     1.0  0.37277  0.60617  0.63282  1.0000
  H   H1257     1.0  0.63810  0.58703  0.33156  1.0000
  H   H1258     1.0  0.66011  0.64696  0.36862  1.0000
  H   H1259     1.0  0.33842  0.63365  0.40476  1.0000
  S   S332      1.0  0.33625  0.66279  0.56522  1.0000
  C   C808      1.0  0.56817  0.68633  0.63857  1.0000
  C   C809      1.0  0.65378  0.65716  0.47273  1.0000
  H   H1260     1.0  0.47009  0.62001  0.33085  1.0000
  H   H1261     1.0  0.59962  0.72292  0.39039  1.0000
  H   H1262     1.0  0.62357  0.69654  0.35732  1.0000
  H   H1263     1.0  0.61568  0.67605  0.40409  1.0000
  H   H1264     1.0  0.35276  0.67749  0.48589  1.0000
  N   N79       1.0  0.58093  0.67836  0.56333  1.0000
  C   C810      1.0  0.59089  0.66045  0.56637  1.0000
  C   C811      1.0  0.57322  0.68379  0.58010  1.0000
  C   C812      1.0  0.56704  0.67916  0.55436  1.0000
  C   C813      1.0  0.59258  0.68998  0.55247  1.0000
  H   H1265     1.0  0.59631  0.65568  0.55408  1.0000
  H   H1266     1.0  0.58275  0.65139  0.57521  1.0000
  H   H1267     1.0  0.60190  0.65952  0.57247  1.0000
  H   H1268     1.0  0.56452  0.67515  0.58872  1.0000
  H   H1269     1.0  0.58334  0.68324  0.58724  1.0000
  H   H1270     1.0  0.56560  0.69725  0.57838  1.0000
  H   H1271     1.0  0.55922  0.69250  0.55187  1.0000
  H   H1272     1.0  0.55810  0.67043  0.56219  1.0000
  H   H1273     1.0  0.57246  0.67515  0.54165  1.0000
  H   H1274     1.0  0.59854  0.68630  0.53970  1.0000
  H   H1275     1.0  0.60345  0.68945  0.55867  1.0000
  H   H1276     1.0  0.35818  0.64270  0.60568  1.0000
  C   C814      1.0  0.46109  0.61911  0.62526  1.0000
  H   H1277     1.0  0.63183  0.71622  0.38079  1.0000
  H   H1278     1.0  0.64295  0.65014  0.47862  1.0000
  H   H1279     1.0  0.62585  0.67221  0.38275  1.0000
  S   S333      1.0  0.43476  0.62204  0.32974  1.0000
  C   C815      1.0  0.34414  0.67420  0.45726  1.0000
  C   C816      1.0  0.60628  0.56417  0.50889  1.0000
  H   H1280     1.0  0.66011  0.62922  0.64121  1.0000
  H   H1281     1.0  0.36049  0.58979  0.60899  1.0000
  C   C817      1.0  0.65048  0.68642  0.63928  1.0000
  C   C818      1.0  0.35097  0.59522  0.61972  1.0000
  S   S334      1.0  0.54752  0.69674  0.32817  1.0000
  N   N80       1.0  0.33006  0.69869  0.31969  1.0000
  H   H1282     1.0  0.38338  0.58689  0.62477  1.0000
  H   H1283     1.0  0.64187  0.52070  0.32346  1.0000
  H   H1284     1.0  0.65771  0.63826  0.50410  1.0000
  H   H1285     1.0  0.32955  0.60999  0.34748  1.0000
  H   H1286     1.0  0.34196  0.64173  0.47168  1.0000
  H   H1287     1.0  0.64292  0.61708  0.32035  1.0000
  H   H1288     1.0  0.57239  0.69746  0.63982  1.0000
  H   H1289     1.0  0.33750  0.50709  0.62361  1.0000
  H   H1290     1.0  0.65506  0.60021  0.34837  1.0000
  H   H1291     1.0  0.48229  0.62321  0.64387  1.0000
  H   H1292     1.0  0.34228  0.61012  0.64740  1.0000
  C   C819      1.0  0.44918  0.63910  0.64462  1.0000
  H   H1293     1.0  0.65899  0.58843  0.36921  1.0000
  S   S335      1.0  0.65601  0.63975  0.33352  1.0000
  C   C820      1.0  0.54726  0.66770  0.64723  1.0000
  C   C821      1.0  0.55253  0.68226  0.64866  1.0000
  H   H1294     1.0  0.37807  0.58633  0.64774  1.0000
  H   H1295     1.0  0.43208  0.61363  0.64816  1.0000
  C   C822      1.0  0.63237  0.57938  0.64917  1.0000
  C   C823      1.0  0.34349  0.59583  0.65015  1.0000
  C   C824      1.0  0.47245  0.61523  0.65097  1.0000
  H   H1296     1.0  0.33053  0.59303  0.65137  1.0000
  H   H1297     1.0  0.59805  0.64778  0.65067  1.0000
  C   C825      1.0  0.64926  0.57737  0.65139  1.0000
  N   N81       1.0  0.62001  0.73673  0.75886  1.0000
  C   C826      1.0  0.57200  0.57329  0.72178  1.0000
  H   H1298     1.0  0.48599  0.63049  0.73583  1.0000
  Fe  Fe170     1.0  0.53149  0.63973  0.70590  1.0000
  Fe  Fe171     1.0  0.53288  0.67684  0.68868  1.0000
  S   S336      1.0  0.51901  0.68675  0.71281  1.0000
  S   S337      1.0  0.54001  0.69483  0.66367  1.0000
  S   S338      1.0  0.55171  0.65545  0.70130  1.0000
  S   S339      1.0  0.51454  0.66006  0.69039  1.0000
  S   S340      1.0  0.65830  0.70585  0.71483  1.0000
  S   S341      1.0  0.40085  0.62151  0.67520  1.0000
  Fe  Fe172     1.0  0.40996  0.63934  0.68639  1.0000
  Fe  Fe173     1.0  0.37403  0.63318  0.68733  1.0000
  S   S342      1.0  0.43583  0.62902  0.69451  1.0000
  S   S343      1.0  0.64687  0.49901  0.72298  1.0000
  H   H1299     1.0  0.66034  0.61622  0.67980  1.0000
  H   H1300     1.0  0.42228  0.66122  0.70742  1.0000
  S   S344      1.0  0.61290  0.54022  0.71155  1.0000
  H   H1301     1.0  0.48558  0.64494  0.70472  1.0000
  Fe  Fe174     1.0  0.61263  0.55775  0.72875  1.0000
  S   S345      1.0  0.47242  0.67528  0.72014  1.0000
  H   H1302     1.0  0.62884  0.69394  0.65927  1.0000
  H   H1303     1.0  0.48380  0.68566  0.68241  1.0000
  C   C827      1.0  0.36906  0.58970  0.69119  1.0000
  Fe  Fe175     1.0  0.53645  0.66398  0.72581  1.0000
  C   C828      1.0  0.55095  0.59949  0.71525  1.0000
  H   H1304     1.0  0.48242  0.60412  0.71549  1.0000
  H   H1305     1.0  0.59273  0.60259  0.65645  1.0000
  C   C829      1.0  0.55275  0.60490  0.72957  1.0000
  C   C830      1.0  0.56935  0.68756  0.72475  1.0000
  H   H1306     1.0  0.34176  0.67939  0.68030  1.0000
  H   H1307     1.0  0.33725  0.66848  0.72017  1.0000
  C   C831      1.0  0.61341  0.61705  0.66740  1.0000
  H   H1308     1.0  0.46934  0.61646  0.66480  1.0000
  C   C832      1.0  0.37020  0.57280  0.68932  1.0000
  S   S346      1.0  0.65436  0.63397  0.75788  1.0000
  S   S347      1.0  0.51732  0.64655  0.73136  1.0000
  S   S348      1.0  0.64571  0.66944  0.71966  1.0000
  H   H1309     1.0  0.43686  0.67889  0.71782  1.0000
  H   H1310     1.0  0.58627  0.64564  0.72842  1.0000
  C   C833      1.0  0.34684  0.70069  0.68808  1.0000
  H   H1311     1.0  0.57950  0.56118  0.71859  1.0000
  C   C834      1.0  0.58212  0.69763  0.72071  1.0000
  H   H1312     1.0  0.55912  0.57942  0.70036  1.0000
  C   C835      1.0  0.59316  0.63207  0.72801  1.0000
  H   H1313     1.0  0.64433  0.73857  0.76344  1.0000
  H   H1314     1.0  0.58369  0.70684  0.70857  1.0000
  H   H1315     1.0  0.61737  0.62221  0.67686  1.0000
  H   H1316     1.0  0.46725  0.62179  0.73805  1.0000
  C   C836      1.0  0.43613  0.65776  0.70666  1.0000
  H   H1317     1.0  0.38267  0.56503  0.68490  1.0000
  H   H1318     1.0  0.59665  0.72935  0.75814  1.0000
  H   H1319     1.0  0.57419  0.49077  0.76793  1.0000
  C   C837      1.0  0.33914  0.57592  0.69898  1.0000
  C   C838      1.0  0.50744  0.60037  0.74426  1.0000
  S   S349      1.0  0.35126  0.62049  0.70039  1.0000
  H   H1320     1.0  0.64999  0.57976  0.74477  1.0000
  C   C839      1.0  0.35299  0.59961  0.69724  1.0000
  H   H1321     1.0  0.46956  0.58989  0.74445  1.0000
  C   C840      1.0  0.59077  0.64239  0.66363  1.0000
  H   H1322     1.0  0.64164  0.71703  0.76565  1.0000
  Fe  Fe176     1.0  0.38077  0.66906  0.67706  1.0000
  Fe  Fe177     1.0  0.62600  0.55893  0.69036  1.0000
  H   H1323     1.0  0.61387  0.71168  0.76269  1.0000
  H   H1324     1.0  0.38064  0.59486  0.68839  1.0000
  C   C841      1.0  0.48976  0.71460  0.68816  1.0000
  C   C842      1.0  0.56039  0.58359  0.71149  1.0000
  H   H1325     1.0  0.60171  0.59838  0.74135  1.0000
  C   C843      1.0  0.44571  0.64299  0.70039  1.0000
  C   C844      1.0  0.35526  0.56590  0.69326  1.0000
  N   N82       1.0  0.48062  0.71326  0.67521  1.0000
  H   H1326     1.0  0.59409  0.64770  0.67339  1.0000
  S   S350      1.0  0.53725  0.61269  0.70174  1.0000
  Fe  Fe178     1.0  0.33102  0.54095  0.68925  1.0000
  H   H1327     1.0  0.64548  0.60055  0.76404  1.0000
  H   H1328     1.0  0.58455  0.51691  0.73555  1.0000
  H   H1329     1.0  0.47110  0.62742  0.69434  1.0000
  H   H1330     1.0  0.34760  0.72315  0.69696  1.0000
  H   H1331     1.0  0.62729  0.50923  0.69552  1.0000
  C   C845      1.0  0.58823  0.62416  0.75917  1.0000
  C   C846      1.0  0.46361  0.63863  0.69948  1.0000
  C   C847      1.0  0.47187  0.64866  0.70521  1.0000
  Fe  Fe179     1.0  0.50160  0.66827  0.71545  1.0000
  S   S351      1.0  0.38328  0.64874  0.70104  1.0000
  C   C848      1.0  0.46228  0.66310  0.71203  1.0000
  S   S352      1.0  0.62294  0.57782  0.70711  1.0000
  N   N83       1.0  0.59725  0.50088  0.75587  1.0000
  H   H1332     1.0  0.57039  0.62102  0.68454  1.0000
  Fe  Fe180     1.0  0.63531  0.69408  0.72931  1.0000
  S   S353      1.0  0.37001  0.65411  0.66411  1.0000
  H   H1333     1.0  0.61071  0.49319  0.68572  1.0000
  C   C849      1.0  0.65218  0.60347  0.75071  1.0000
  C   C850      1.0  0.33946  0.71497  0.69592  1.0000
  H   H1334     1.0  0.48038  0.69454  0.66085  1.0000
  S   S354      1.0  0.63832  0.54461  0.73547  1.0000
  C   C851      1.0  0.33803  0.59272  0.70110  1.0000
  C   C852      1.0  0.47966  0.61929  0.74248  1.0000
  H   H1335     1.0  0.63311  0.72495  0.73717  1.0000
  H   H1336     1.0  0.54562  0.61724  0.73248  1.0000
  H   H1337     1.0  0.58308  0.49816  0.78218  1.0000
  H   H1338     1.0  0.57181  0.51356  0.76674  1.0000
  S   S355      1.0  0.35679  0.54498  0.69039  1.0000
  H   H1339     1.0  0.60217  0.72374  0.77917  1.0000
  C   C853      1.0  0.44440  0.66773  0.71258  1.0000
  H   H1340     1.0  0.49844  0.72478  0.65377  1.0000
  C   C854      1.0  0.56696  0.67598  0.74063  1.0000
  H   H1341     1.0  0.51627  0.58804  0.74168  1.0000
  S   S356      1.0  0.61713  0.56927  0.66520  1.0000
  Fe  Fe181     1.0  0.63952  0.52820  0.71643  1.0000
  N   N84       1.0  0.59478  0.62328  0.66728  1.0000
  H   H1342     1.0  0.61815  0.51467  0.74781  1.0000
  H   H1343     1.0  0.65349  0.56858  0.66245  1.0000
  S   S357      1.0  0.36937  0.69630  0.68038  1.0000
  H   H1344     1.0  0.50535  0.60029  0.75830  1.0000
  C   C855      1.0  0.59038  0.61697  0.65378  1.0000
  H   H1345     1.0  0.59733  0.52759  0.75456  1.0000
  H   H1346     1.0  0.56121  0.68898  0.71568  1.0000
  S   S358      1.0  0.65285  0.54563  0.69379  1.0000
  H   H1347     1.0  0.48570  0.72759  0.69161  1.0000
  H   H1348     1.0  0.58733  0.62109  0.69489  1.0000
  H   H1349     1.0  0.58063  0.63736  0.76018  1.0000
  C   C856      1.0  0.48216  0.58834  0.74822  1.0000
  C   C857      1.0  0.33619  0.69023  0.68666  1.0000
  H   H1350     1.0  0.51450  0.61089  0.73707  1.0000
  H   H1351     1.0  0.49023  0.57573  0.74551  1.0000
  C   C858      1.0  0.57371  0.57860  0.73618  1.0000
  H   H1352     1.0  0.60772  0.64844  0.74332  1.0000
  C   C859      1.0  0.60762  0.72489  0.76506  1.0000
  H   H1353     1.0  0.60568  0.50510  0.72835  1.0000
  H   H1354     1.0  0.57885  0.61609  0.75980  1.0000
  H   H1355     1.0  0.50379  0.59145  0.71649  1.0000
  C   C860      1.0  0.65467  0.59173  0.73981  1.0000
  H   H1356     1.0  0.60284  0.63229  0.71562  1.0000
  H   H1357     1.0  0.58339  0.62476  0.72781  1.0000
  H   H1358     1.0  0.50031  0.61450  0.71236  1.0000
  H   H1359     1.0  0.47945  0.58753  0.76245  1.0000
  C   C861      1.0  0.59294  0.69572  0.73226  1.0000
  S   S359      1.0  0.60835  0.70893  0.72751  1.0000
  N   N85       1.0  0.49093  0.60281  0.73874  1.0000
  H   H1360     1.0  0.53516  0.66453  0.65495  1.0000
  H   H1361     1.0  0.36107  0.56323  0.65352  1.0000
  C   C862      1.0  0.33544  0.65531  0.72047  1.0000
  H   H1362     1.0  0.59884  0.68254  0.75707  1.0000
  H   H1363     1.0  0.59413  0.61891  0.77079  1.0000
  H   H1364     1.0  0.56503  0.59829  0.75147  1.0000
  S   S360      1.0  0.40824  0.66108  0.66351  1.0000
  C   C863      1.0  0.57757  0.67434  0.75229  1.0000
  H   H1365     1.0  0.62471  0.63462  0.73140  1.0000
  C   C864      1.0  0.56382  0.59424  0.74028  1.0000
  S   S361      1.0  0.58921  0.56641  0.74816  1.0000
  H   H1366     1.0  0.47644  0.61936  0.75657  1.0000
  H   H1367     1.0  0.57556  0.66574  0.76476  1.0000
  C   C865      1.0  0.61404  0.63472  0.74306  1.0000
  H   H1368     1.0  0.44548  0.64089  0.65825  1.0000
  H   H1369     1.0  0.58718  0.60221  0.68737  1.0000
  S   S362      1.0  0.55123  0.66297  0.74613  1.0000
  C   C866      1.0  0.59074  0.68391  0.74798  1.0000
  C   C867      1.0  0.58449  0.61663  0.68430  1.0000
  H   H1370     1.0  0.62155  0.62087  0.65440  1.0000
  Fe  Fe182     1.0  0.64890  0.56341  0.71223  1.0000
  S   S363      1.0  0.64511  0.68467  0.75400  1.0000
  H   H1371     1.0  0.61663  0.60271  0.67099  1.0000
  H   H1372     1.0  0.62012  0.62966  0.75458  1.0000
  Fe  Fe183     1.0  0.39771  0.64383  0.65302  1.0000
  C   C868      1.0  0.65263  0.68605  0.66873  1.0000
  C   C869      1.0  0.49447  0.60322  0.71996  1.0000
  H   H1373     1.0  0.57677  0.64750  0.66369  1.0000
  H   H1374     1.0  0.64642  0.68834  0.68157  1.0000
  H   H1375     1.0  0.61670  0.60006  0.75324  1.0000
  C   C870      1.0  0.61068  0.60646  0.74184  1.0000
  H   H1376     1.0  0.62119  0.60607  0.73007  1.0000
  N   N86       1.0  0.60154  0.62436  0.74301  1.0000
  H   H1377     1.0  0.48702  0.70497  0.70036  1.0000
  C   C871      1.0  0.58083  0.50083  0.76877  1.0000
  H   H1378     1.0  0.34776  0.64609  0.72222  1.0000
  C   C872      1.0  0.65831  0.61897  0.74438  1.0000
  H   H1379     1.0  0.57654  0.62186  0.65295  1.0000
  H   H1380     1.0  0.50101  0.69331  0.66579  1.0000
  C   C873      1.0  0.48674  0.69593  0.67084  1.0000
  H   H1381     1.0  0.44937  0.59601  0.65311  1.0000
  H   H1382     1.0  0.44018  0.61109  0.66729  1.0000
  C   C874      1.0  0.59365  0.50437  0.73833  1.0000
  C   C875      1.0  0.46180  0.71589  0.68245  1.0000
  H   H1383     1.0  0.33604  0.64138  0.75385  1.0000
  S   S364      1.0  0.33012  0.51883  0.67807  1.0000
  C   C876      1.0  0.62777  0.49563  0.70091  1.0000
  H   H1384     1.0  0.50405  0.71230  0.68328  1.0000
  H   H1385     1.0  0.60840  0.51243  0.77034  1.0000
  H   H1386     1.0  0.33104  0.62318  0.73580  1.0000
  H   H1387     1.0  0.34723  0.59071  0.66295  1.0000
  C   C877      1.0  0.44407  0.60990  0.65346  1.0000
  C   C878      1.0  0.48428  0.72654  0.65944  1.0000
  C   C879      1.0  0.64266  0.68915  0.65608  1.0000
  C   C880      1.0  0.62666  0.73788  0.74007  1.0000
  H   H1388     1.0  0.32757  0.57060  0.70209  1.0000
  H   H1389     1.0  0.65584  0.64343  0.65618  1.0000
  H   H1390     1.0  0.45670  0.72881  0.68599  1.0000
  H   H1391     1.0  0.45446  0.71485  0.67309  1.0000
  C   C881      1.0  0.60560  0.51449  0.75725  1.0000
  H   H1392     1.0  0.45871  0.70601  0.69441  1.0000
  H   H1393     1.0  0.58810  0.49398  0.73641  1.0000
  C   C882      1.0  0.63460  0.73007  0.76798  1.0000
  H   H1394     1.0  0.33344  0.65523  0.70749  1.0000
  H   H1395     1.0  0.63013  0.72901  0.78221  1.0000
  Fe  Fe184     1.0  0.65760  0.66065  0.74304  1.0000
  H   H1396     1.0  0.60595  0.75370  0.77631  1.0000
  H   H1397     1.0  0.60009  0.75945  0.75550  1.0000
  H   H1398     1.0  0.62013  0.76333  0.75764  1.0000
  C   C883      1.0  0.61115  0.75408  0.76224  1.0000
  H   H1399     1.0  0.63630  0.74642  0.73487  1.0000
  H   H1400     1.0  0.61604  0.74281  0.73271  1.0000
  H   H1401     1.0  0.47991  0.73979  0.66227  1.0000
  Fe  Fe185     1.0  0.80101  0.14670  0.06472  1.0000
  S   S365      1.0  0.77597  0.14189  0.08240  1.0000
  S   S366      1.0  0.80472  0.15419  0.03569  1.0000
  Fe  Fe186     1.0  0.82113  0.13447  0.09358  1.0000
  S   S367      1.0  0.79803  0.12826  0.11374  1.0000
  S   S368      1.0  0.84688  0.12666  0.10146  1.0000
  Fe  Fe187     1.0  0.79185  0.11740  0.09403  1.0000
  S   S369      1.0  0.78070  0.09357  0.10280  1.0000
  Fe  Fe188     1.0  0.78396  0.15331  0.10067  1.0000
  S   S370      1.0  0.78998  0.17502  0.18159  1.0000
  S   S371      1.0  0.81638  0.12093  0.07494  1.0000
  S   S372      1.0  0.80768  0.16079  0.08193  1.0000
  S   S373      1.0  0.75942  0.12437  0.00225  1.0000
  Fe  Fe189     1.0  0.79356  0.02099  0.21105  1.0000
  S   S374      1.0  0.78462  0.03445  0.18641  1.0000
  H   H1402     1.0  0.66385  0.18697  0.24176  1.0000
  Fe  Fe190     1.0  0.80592  0.05249  0.21362  1.0000
  S   S375      1.0  0.79822  0.06817  0.18905  1.0000
  H   H1403     1.0  0.82693  0.17565  0.17443  1.0000
  Fe  Fe191     1.0  0.77418  0.05737  0.19914  1.0000
  C   C884      1.0  0.84361  0.08370  0.22012  1.0000
  Fe  Fe192     1.0  0.80952  0.04383  0.17892  1.0000
  S   S376      1.0  0.82711  0.04423  0.15298  1.0000
  H   H1404     1.0  0.69980  0.18283  0.27331  1.0000
  S   S377      1.0  0.81938  0.02895  0.20258  1.0000
  H   H1405     1.0  0.96106  0.09790  0.20595  1.0000
  Fe  Fe193     1.0  0.87638  0.15093  0.16922  1.0000
  S   S378      1.0  0.86386  0.13257  0.19125  1.0000
  S   S379      1.0  0.86179  0.16884  0.14954  1.0000
  Fe  Fe194     1.0  0.91086  0.14084  0.18059  1.0000
  S   S380      1.0  0.90178  0.12099  0.20360  1.0000
  S   S381      1.0  0.93709  0.14790  0.16920  1.0000
  Fe  Fe195     1.0  0.88880  0.11381  0.18590  1.0000
  S   S382      1.0  0.88737  0.08744  0.18342  1.0000
  Fe  Fe196     1.0  0.87740  0.14124  0.20728  1.0000
  C   C885      1.0  0.91959  0.18728  0.10892  1.0000
  S   S383      1.0  0.90038  0.13150  0.16247  1.0000
  S   S384      1.0  0.88750  0.16165  0.18573  1.0000
  Fe  Fe197     1.0  0.77037  0.17379  0.20657  1.0000
  S   S385      1.0  0.74145  0.18109  0.21063  1.0000
  H   H1406     1.0  0.70903  0.18860  0.24135  1.0000
  C   C886      1.0  0.77402  0.99037  0.20010  1.0000
  C   C887      1.0  0.83251  0.14682  0.23101  1.0000
  C   C888      1.0  0.74855  0.11434  0.21659  1.0000
  H   H1407     1.0  0.83760  0.14671  0.21750  1.0000
  H   H1408     1.0  0.83312  0.20114  0.21170  1.0000
  N   N87       1.0  0.82800  0.10617  0.15927  1.0000
  H   H1409     1.0  0.74506  0.17775  0.15044  1.0000
  C   C889      1.0  0.72433  0.09856  0.21088  1.0000
  S   S386      1.0  0.77069  0.14753  0.22346  1.0000
  H   H1410     1.0  0.69175  0.20698  0.23962  1.0000
  C   C890      1.0  0.71877  0.11301  0.21866  1.0000
  C   C891      1.0  0.96824  0.15883  0.20327  1.0000
  C   C892      1.0  0.97357  0.16196  0.18526  1.0000
  C   C893      1.0  0.96353  0.15920  0.17494  1.0000
  C   C894      1.0  0.94799  0.15343  0.18250  1.0000
  C   C895      1.0  0.94213  0.15115  0.20046  1.0000
  C   C896      1.0  0.95225  0.15388  0.21082  1.0000
  H   H1411     1.0  0.85592  0.19120  0.17848  1.0000
  H   H1412     1.0  0.96802  0.16124  0.16104  1.0000
  H   H1413     1.0  0.93006  0.14683  0.20641  1.0000
  H   H1414     1.0  0.85460  0.10704  0.15753  1.0000
  C   C897      1.0  0.83729  0.07114  0.21591  1.0000
  H   H1415     1.0  0.90796  0.19751  0.10679  1.0000
  C   C898      1.0  0.85906  0.08863  0.21027  1.0000
  C   C899      1.0  0.86837  0.08089  0.19629  1.0000
  C   C900      1.0  0.86228  0.06803  0.19233  1.0000
  C   C901      1.0  0.84673  0.06322  0.20207  1.0000
  H   H1416     1.0  0.79466  0.13018  0.99076  1.0000
  H   H1417     1.0  0.86391  0.09823  0.21371  1.0000
  H   H1418     1.0  0.86952  0.06191  0.18160  1.0000
  H   H1419     1.0  0.84202  0.05346  0.19878  1.0000
  H   H1420     1.0  0.84261  0.16572  0.18760  1.0000
  H   H1421     1.0  0.94790  0.15166  0.22474  1.0000
  S   S387      1.0  0.98188  0.15999  0.21649  1.0000
  C   C902      1.0  0.68617  0.18731  0.27159  1.0000
  H   H1422     1.0  0.98552  0.16641  0.17925  1.0000
  C   C903      1.0  0.77063  0.17000  0.13571  1.0000
  H   H1423     1.0  0.76902  0.00403  0.19958  1.0000
  S   S388      1.0  0.81722  0.06612  0.22754  1.0000
  C   C904      1.0  0.85120  0.13926  0.11383  1.0000
  C   C905      1.0  0.84106  0.15558  0.11559  1.0000
  C   C906      1.0  0.84443  0.16481  0.12641  1.0000
  C   C907      1.0  0.85752  0.15746  0.13591  1.0000
  C   C908      1.0  0.86734  0.14104  0.13432  1.0000
  C   C909      1.0  0.86452  0.13220  0.12298  1.0000
  H   H1424     1.0  0.83070  0.16111  0.10858  1.0000
  H   H1425     1.0  0.83670  0.17750  0.12762  1.0000
  H   H1426     1.0  0.87724  0.13508  0.14171  1.0000
  H   H1427     1.0  0.87242  0.11961  0.12163  1.0000
  C   C910      1.0  0.79420  0.07862  0.11545  1.0000
  C   C911      1.0  0.81121  0.08047  0.11362  1.0000
  C   C912      1.0  0.82169  0.06920  0.12458  1.0000
  C   C913      1.0  0.81494  0.05652  0.13774  1.0000
  C   C914      1.0  0.79800  0.05456  0.13942  1.0000
  C   C915      1.0  0.78771  0.06544  0.12808  1.0000
  H   H1428     1.0  0.81631  0.09065  0.10388  1.0000
  H   H1429     1.0  0.83479  0.07076  0.12329  1.0000
  H   H1430     1.0  0.79280  0.04463  0.14943  1.0000
  H   H1431     1.0  0.77456  0.06398  0.12949  1.0000
  H   H1432     1.0  0.93997  0.16419  0.12911  1.0000
  C   C916      1.0  0.78839  0.16647  0.13539  1.0000
  C   C917      1.0  0.79428  0.16817  0.14950  1.0000
  S   S389      1.0  0.72600  0.21763  0.23625  1.0000
  H   H1433     1.0  0.84286  0.21225  0.18030  1.0000
  C   C918      1.0  0.81274  0.99955  0.17096  1.0000
  H   H1434     1.0  0.79759  0.16282  0.12413  1.0000
  H   H1435     1.0  0.80802  0.16580  0.14909  1.0000
  H   H1436     1.0  0.91543  0.18370  0.14347  1.0000
  C   C919      1.0  0.82973  0.17427  0.18744  1.0000
  C   C920      1.0  0.77227  0.13239  0.01147  1.0000
  S   S390      1.0  0.86538  0.14794  0.23331  1.0000
  C   C921      1.0  0.79901  0.14095  0.01048  1.0000
  C   C922      1.0  0.79222  0.14558  0.02666  1.0000
  C   C923      1.0  0.77543  0.14360  0.03522  1.0000
  C   C924      1.0  0.76544  0.13714  0.02757  1.0000
  C   C925      1.0  0.83282  0.18870  0.20861  1.0000
  C   C926      1.0  0.75879  0.17492  0.15021  1.0000
  H   H1437     1.0  0.76997  0.14748  0.04752  1.0000
  H   H1438     1.0  0.75236  0.13587  0.03414  1.0000
  N   N88       1.0  0.75117  0.11741  0.14921  1.0000
  C   C927      1.0  0.75740  0.12905  0.15646  1.0000
  C   C928      1.0  0.73431  0.11409  0.15993  1.0000
  C   C929      1.0  0.76379  0.10087  0.14915  1.0000
  C   C930      1.0  0.74909  0.12563  0.13131  1.0000
  H   H1439     1.0  0.77005  0.13197  0.14861  1.0000
  H   H1440     1.0  0.75900  0.12331  0.17001  1.0000
  H   H1441     1.0  0.74819  0.14168  0.15659  1.0000
  H   H1442     1.0  0.72928  0.10520  0.15495  1.0000
  H   H1443     1.0  0.73541  0.10791  0.17350  1.0000
  H   H1444     1.0  0.72444  0.12627  0.16030  1.0000
  H   H1445     1.0  0.77664  0.10282  0.14104  1.0000
  H   H1446     1.0  0.75943  0.09178  0.14380  1.0000
  H   H1447     1.0  0.76561  0.09426  0.16247  1.0000
  H   H1448     1.0  0.74455  0.11716  0.12535  1.0000
  H   H1449     1.0  0.76151  0.12841  0.12287  1.0000
  H   H1450     1.0  0.73975  0.13823  0.13083  1.0000
  N   N89       1.0  0.79607  0.08834  0.05186  1.0000
  C   C931      1.0  0.80686  0.09931  0.03843  1.0000
  C   C932      1.0  0.79187  0.07581  0.04402  1.0000
  C   C933      1.0  0.80564  0.07896  0.06570  1.0000
  H   H1451     1.0  0.77176  0.09160  0.07002  1.0000
  H   H1452     1.0  0.80025  0.10599  0.02752  1.0000
  C   C934      1.0  0.90654  0.17828  0.13890  1.0000
  H   H1453     1.0  0.80378  0.06734  0.03824  1.0000
  H   H1454     1.0  0.78461  0.08253  0.03352  1.0000
  H   H1455     1.0  0.78367  0.06737  0.05381  1.0000
  H   H1456     1.0  0.81790  0.07045  0.06066  1.0000
  H   H1457     1.0  0.79776  0.07077  0.07622  1.0000
  H   H1458     1.0  0.80902  0.08806  0.07184  1.0000
  H   H1459     1.0  0.80178  0.19645  0.19974  1.0000
  H   H1460     1.0  0.81995  0.16756  0.19711  1.0000
  H   H1461     1.0  0.81948  0.09159  0.03297  1.0000
  H   H1462     1.0  0.80910  0.20427  0.17722  1.0000
  H   H1463     1.0  0.75794  0.12047  0.21856  1.0000
  H   H1464     1.0  0.92872  0.19322  0.11255  1.0000
  H   H1465     1.0  0.70507  0.11808  0.22239  1.0000
  N   N90       1.0  0.91485  0.17242  0.12245  1.0000
  H   H1466     1.0  0.83169  0.10811  0.18387  1.0000
  C   C935      1.0  0.82387  0.10222  0.17838  1.0000
  H   H1467     1.0  0.82211  0.08282  0.15655  1.0000
  H   H1468     1.0  0.82100  0.10011  0.13810  1.0000
  H   H1469     1.0  0.82499  0.12832  0.13868  1.0000
  H   H1470     1.0  0.82668  0.08808  0.18344  1.0000
  H   H1471     1.0  0.80964  0.10949  0.04365  1.0000
  C   C936      1.0  0.74198  0.09167  0.20629  1.0000
  C   C937      1.0  0.81832  0.09712  0.15252  1.0000
  H   H1472     1.0  0.84547  0.17983  0.20994  1.0000
  C   C938      1.0  0.77987  0.09932  0.05925  1.0000
  H   H1473     1.0  0.80996  0.10703  0.18360  1.0000
  S   S391      1.0  0.77205  0.18653  0.22733  1.0000
  H   H1474     1.0  0.80413  0.10087  0.15720  1.0000
  H   H1475     1.0  0.89907  0.15357  0.12697  1.0000
  H   H1476     1.0  0.89034  0.17449  0.11585  1.0000
  C   C939      1.0  0.76467  0.17623  0.16445  1.0000
  H   H1477     1.0  0.81204  0.14239  0.00385  1.0000
  C   C940      1.0  0.78241  0.17298  0.16407  1.0000
  H   H1478     1.0  0.77195  0.10595  0.04934  1.0000
  H   H1479     1.0  0.78254  0.10946  0.06459  1.0000
  C   C941      1.0  0.82308  0.12501  0.15302  1.0000
  H   H1480     1.0  0.90277  0.16738  0.14929  1.0000
  H   H1481     1.0  0.71490  0.09258  0.20857  1.0000
  H   H1482     1.0  0.92595  0.18332  0.09633  1.0000
  H   H1483     1.0  0.80921  0.13005  0.15822  1.0000
  H   H1484     1.0  0.84069  0.20106  0.16475  1.0000
  C   C942      1.0  0.90264  0.16501  0.11719  1.0000
  H   H1485     1.0  0.83093  0.13224  0.15688  1.0000
  H   H1486     1.0  0.81134  0.21529  0.19289  1.0000
  C   C943      1.0  0.93058  0.15912  0.12486  1.0000
  C   C944      1.0  0.78911  0.13421  0.00297  1.0000
  H   H1487     1.0  0.68260  0.20142  0.27155  1.0000
  C   C945      1.0  0.84675  0.10025  0.15310  1.0000
  H   H1488     1.0  0.85092  0.08615  0.15801  1.0000
  H   H1489     1.0  0.68113  0.15742  0.26704  1.0000
  C   C946      1.0  0.69518  0.19273  0.24046  1.0000
  H   H1490     1.0  0.89453  0.18823  0.13769  1.0000
  S   S392      1.0  0.78085  0.04322  0.22473  1.0000
  Fe  Fe198     1.0  0.74299  0.19165  0.23299  1.0000
  H   H1491     1.0  0.85022  0.10253  0.13871  1.0000
  H   H1492     1.0  0.92745  0.14773  0.13504  1.0000
  H   H1493     1.0  0.90826  0.16075  0.10464  1.0000
  C   C947      1.0  0.81218  0.20237  0.19020  1.0000
  C   C948      1.0  0.75414  0.09951  0.20922  1.0000
  H   H1494     1.0  0.99129  0.15538  0.25707  1.0000
  S   S393      1.0  0.74838  0.07407  0.19580  1.0000
  H   H1495     1.0  0.76780  0.09433  0.20555  1.0000
  N   N91       1.0  0.82938  0.19120  0.19111  1.0000
  H   H1496     1.0  0.75547  0.18021  0.17549  1.0000
  H   H1497     1.0  0.93725  0.15437  0.11273  1.0000
  H   H1498     1.0  0.82266  0.18293  0.21874  1.0000
  S   S394      1.0  0.76299  0.16781  0.11833  1.0000
  S   S395      1.0  0.72312  0.13910  0.23137  1.0000
  C   C949      1.0  0.84280  0.19935  0.17811  1.0000
  H   H1499     1.0  0.69414  0.19012  0.22805  1.0000
  H   H1500     1.0  0.80622  0.14793  0.22943  1.0000
  C   C950      1.0  0.69014  0.23474  0.27597  1.0000
  H   H1501     1.0  0.75189  0.16733  0.99935  1.0000
  C   C951      1.0  0.73082  0.12102  0.22147  1.0000
  H   H1502     1.0  0.83658  0.08971  0.23095  1.0000
  H   H1503     1.0  0.78057  0.09247  0.28603  1.0000
  H   H1504     1.0  0.83911  0.99788  0.18574  1.0000
  H   H1505     1.0  0.99148  0.12865  0.19203  1.0000
  S   S396      1.0  0.68292  0.22417  0.31148  1.0000
  H   H1506     1.0  0.98253  0.09869  0.16916  1.0000
  H   H1507     1.0  0.96001  0.11614  0.18828  1.0000
  Fe  Fe199     1.0  0.74194  0.15575  0.22934  1.0000
  H   H1508     1.0  0.98928  0.08380  0.21448  1.0000
  C   C952      1.0  0.84270  0.99576  0.17220  1.0000
  S   S397      1.0  0.79453  0.99237  0.22140  1.0000
  H   H1509     1.0  0.79116  0.11020  0.27486  1.0000
  H   H1510     1.0  0.80864  0.00189  0.18439  1.0000
  H   H1511     1.0  0.73011  0.19738  0.27015  1.0000
  H   H1512     1.0  0.98610  0.12720  0.17245  1.0000
  Fe  Fe200     1.0  0.76984  0.16075  0.24459  1.0000
  H   H1513     1.0  0.84529  0.14678  0.26757  1.0000
  H   H1514     1.0  0.80174  0.08858  0.27243  1.0000
  C   C953      1.0  0.71893  0.20774  0.27168  1.0000
  H   H1515     1.0  0.71277  0.20005  0.29947  1.0000
  H   H1516     1.0  0.81422  0.14665  0.27984  1.0000
  C   C954      1.0  0.81926  0.14674  0.26621  1.0000
  C   C955      1.0  0.80815  0.14736  0.25546  1.0000
  H   H1517     1.0  0.67790  0.18078  0.28322  1.0000
  H   H1518     1.0  0.75513  0.10727  0.27283  1.0000
  H   H1519     1.0  0.79068  0.07311  0.25657  1.0000
  C   C956      1.0  0.78895  0.09762  0.27370  1.0000
  C   C957      1.0  0.70914  0.20930  0.28827  1.0000
  C   C958      1.0  0.81475  0.14747  0.23781  1.0000
  C   C959      1.0  0.71429  0.21961  0.25718  1.0000
  C   C960      1.0  0.76419  0.11192  0.26080  1.0000
  S   S398      1.0  0.78607  0.14803  0.26435  1.0000
  C   C961      1.0  0.83683  0.14679  0.25927  1.0000
  H   H1520     1.0  0.70300  0.15986  0.25745  1.0000
  N   N92       1.0  0.78102  0.09971  0.25870  1.0000
  N   N93       1.0  0.98575  0.10426  0.19240  1.0000
  S   S399      1.0  0.74091  0.16681  0.25220  1.0000
  C   C962      1.0  0.68930  0.16478  0.25602  1.0000
  H   H1521     1.0  0.66158  0.20374  0.25336  1.0000
  H   H1522     1.0  0.96419  0.11822  0.20813  1.0000
  H   H1523     1.0  0.76915  0.07748  0.26918  1.0000
  N   N94       1.0  0.68411  0.18359  0.25547  1.0000
  H   H1524     1.0  0.77303  0.08379  0.24597  1.0000
  C   C963      1.0  0.69474  0.22278  0.29045  1.0000
  C   C964      1.0  0.79270  0.10652  0.24273  1.0000
  C   C965      1.0  0.77831  0.08280  0.25758  1.0000
  H   H1525     1.0  0.75777  0.11376  0.24977  1.0000
  C   C966      1.0  0.96694  0.10932  0.19898  1.0000
  H   H1526     1.0  0.76578  0.12486  0.26158  1.0000
  H   H1527     1.0  0.78729  0.10815  0.23107  1.0000
  H   H1528     1.0  0.68832  0.16148  0.24389  1.0000
  H   H1529     1.0  0.84363  0.00858  0.16351  1.0000
  C   C967      1.0  0.84351  0.14683  0.24168  1.0000
  H   H1530     1.0  0.79507  0.11925  0.24318  1.0000
  H   H1531     1.0  0.80551  0.09762  0.24086  1.0000
  H   H1532     1.0  0.98369  0.08049  0.18692  1.0000
  C   C968      1.0  0.69994  0.23316  0.25935  1.0000
  H   H1533     1.0  0.75173  0.19721  0.00123  1.0000
  H   H1534     1.0  0.80257  0.99397  0.16865  1.0000
  C   C969      1.0  0.66584  0.18957  0.25381  1.0000
  H   H1535     1.0  0.83582  0.99790  0.14116  1.0000
  H   H1536     1.0  0.81289  0.01235  0.16204  1.0000
  H   H1537     1.0  0.77892  0.17511  0.00088  1.0000
  C   C970      1.0  0.98887  0.09241  0.18039  1.0000
  C   C971      1.0  0.78168  0.17904  0.98650  1.0000
  C   C972      1.0  0.75516  0.20039  0.98682  1.0000
  C   C973      1.0  0.99283  0.11984  0.18314  1.0000
  H   H1538     1.0  0.99247  0.10430  0.21621  1.0000
  Fe  Fe201     1.0  0.79845  0.11631  0.94462  1.0000
  S   S400      1.0  0.78068  0.09982  0.96308  1.0000
  S   S401      1.0  0.82679  0.10652  0.93715  1.0000
  Fe  Fe202     1.0  0.76985  0.14734  0.93835  1.0000
  S   S402      1.0  0.74952  0.13370  0.95628  1.0000
  S   S403      1.0  0.76232  0.17550  0.92707  1.0000
  H   H1539     1.0  0.92926  0.07356  0.85881  1.0000
  Fe  Fe203     1.0  0.76355  0.11115  0.94376  1.0000
  S   S404      1.0  0.74935  0.09717  0.93318  1.0000
  S   S405      1.0  0.78785  0.13946  0.95682  1.0000
  S   S406      1.0  0.78243  0.12566  0.92432  1.0000
  S   S407      1.0  0.97737  0.15545  0.85939  1.0000
  Fe  Fe204     1.0  0.87360  0.13950  0.85385  1.0000
  S   S408      1.0  0.89095  0.11426  0.86194  1.0000
  S   S409      1.0  0.85703  0.15741  0.87111  1.0000
  Fe  Fe205     1.0  0.87806  0.13425  0.81779  1.0000
  S   S410      1.0  0.89602  0.10861  0.82226  1.0000
  S   S411      1.0  0.87117  0.14596  0.79184  1.0000
  Fe  Fe206     1.0  0.87758  0.10352  0.84753  1.0000
  S   S412      1.0  0.87025  0.07784  0.85988  1.0000
  Fe  Fe207     1.0  0.90839  0.12110  0.83630  1.0000
  S   S413      1.0  0.93701  0.11128  0.83548  1.0000
  S   S414      1.0  0.85843  0.12800  0.84196  1.0000
  S   S415      1.0  0.89217  0.14755  0.82926  1.0000
  Fe  Fe208     1.0  0.73650  0.18219  0.81617  1.0000
  S   S416      1.0  0.74900  0.15498  0.81277  1.0000
  S   S417      1.0  0.70978  0.19498  0.81094  1.0000
  Fe  Fe209     1.0  0.76467  0.18499  0.83302  1.0000
  S   S418      1.0  0.77954  0.15842  0.83094  1.0000
  S   S419      1.0  0.77427  0.20092  0.84588  1.0000
  Fe  Fe210     1.0  0.77377  0.16489  0.80448  1.0000
  S   S420      1.0  0.79437  0.15672  0.78229  1.0000
  Fe  Fe211     1.0  0.75374  0.15083  0.83951  1.0000
  S   S421      1.0  0.75295  0.12748  0.86087  1.0000
  S   S422      1.0  0.76102  0.19255  0.80555  1.0000
  S   S423      1.0  0.73917  0.17698  0.84394  1.0000
  Fe  Fe212     1.0  0.79433  0.03317  0.87548  1.0000
  S   S424      1.0  0.81456  0.01553  0.86017  1.0000
  S   S425      1.0  0.79972  0.03585  0.90025  1.0000
  Fe  Fe213     1.0  0.77181  0.04327  0.84862  1.0000
  S   S426      1.0  0.79019  0.02656  0.83114  1.0000
  S   S427      1.0  0.74801  0.06011  0.84025  1.0000
  Fe  Fe214     1.0  0.79209  0.00700  0.85589  1.0000
  Fe  Fe215     1.0  0.81054  0.03695  0.83731  1.0000
  S   S428      1.0  0.83047  0.05060  0.81831  1.0000
  S   S429      1.0  0.77206  0.02319  0.87297  1.0000
  S   S430      1.0  0.79192  0.05510  0.85299  1.0000
  H   H1540     1.0  0.74419  0.02238  0.85323  1.0000
  C   C974      1.0  0.74904  0.10934  0.85592  1.0000
  C   C975      1.0  0.75341  0.09327  0.86652  1.0000
  C   C976      1.0  0.75196  0.07827  0.86215  1.0000
  C   C977      1.0  0.74618  0.07925  0.84718  1.0000
  C   C978      1.0  0.74096  0.09539  0.83696  1.0000
  C   C979      1.0  0.74240  0.11050  0.84136  1.0000
  H   H1541     1.0  0.75840  0.09237  0.87786  1.0000
  H   H1542     1.0  0.75564  0.06584  0.87021  1.0000
  H   H1543     1.0  0.73642  0.09620  0.82537  1.0000
  H   H1544     1.0  0.73860  0.12296  0.83338  1.0000
  H   H1545     1.0  0.75141  0.13299  0.91220  1.0000
  N   N95       1.0  0.72698  0.14455  0.90504  1.0000
  H   H1546     1.0  0.84925  0.16589  0.81764  1.0000
  C   C980      1.0  0.70703  0.20693  0.79022  1.0000
  C   C981      1.0  0.72111  0.21108  0.77718  1.0000
  H   H1547     1.0  0.81052  0.20042  0.84575  1.0000
  H   H1548     1.0  0.93997  0.12369  0.88330  1.0000
  C   C982      1.0  0.72898  0.03039  0.82608  1.0000
  H   H1549     1.0  0.73412  0.20630  0.77945  1.0000
  H   H1550     1.0  0.92743  0.03670  0.85800  1.0000
  C   C983      1.0  0.85935  0.07060  0.84798  1.0000
  C   C984      1.0  0.85007  0.05751  0.85635  1.0000
  C   C985      1.0  0.84101  0.05162  0.84728  1.0000
  C   C986      1.0  0.84163  0.05836  0.82964  1.0000
  C   C987      1.0  0.85093  0.07149  0.82122  1.0000
  C   C988      1.0  0.85959  0.07780  0.83045  1.0000
  H   H1551     1.0  0.84981  0.05193  0.86991  1.0000
  H   H1552     1.0  0.83384  0.04158  0.85392  1.0000
  H   H1553     1.0  0.85145  0.07678  0.80758  1.0000
  H   H1554     1.0  0.86666  0.08801  0.82393  1.0000
  C   C989      1.0  0.84981  0.14812  0.78958  1.0000
  C   C990      1.0  0.84548  0.15608  0.77353  1.0000
  C   C991      1.0  0.82847  0.15850  0.77138  1.0000
  C   C992      1.0  0.81559  0.15336  0.78537  1.0000
  C   C993      1.0  0.81990  0.14520  0.80144  1.0000
  C   C994      1.0  0.83704  0.14240  0.80347  1.0000
  H   H1555     1.0  0.85531  0.16041  0.76270  1.0000
  H   H1556     1.0  0.82525  0.16465  0.75889  1.0000
  H   H1557     1.0  0.81018  0.14065  0.81214  1.0000
  H   H1558     1.0  0.84035  0.13578  0.81571  1.0000
  C   C995      1.0  0.96682  0.14367  0.85125  1.0000
  C   C996      1.0  0.94956  0.15030  0.84957  1.0000
  C   C997      1.0  0.94028  0.14052  0.84469  1.0000
  C   C998      1.0  0.94832  0.12414  0.84118  1.0000
  C   C999      1.0  0.96566  0.11764  0.84251  1.0000
  C   C1000     1.0  0.97487  0.12736  0.84753  1.0000
  H   H1559     1.0  0.94324  0.16294  0.85235  1.0000
  H   H1560     1.0  0.92694  0.14569  0.84361  1.0000
  H   H1561     1.0  0.97200  0.10504  0.83968  1.0000
  H   H1562     1.0  0.94133  0.06360  0.81475  1.0000
  C   C1001     1.0  0.83565  0.12182  0.92025  1.0000
  C   C1002     1.0  0.82530  0.13765  0.91429  1.0000
  C   C1003     1.0  0.83207  0.14902  0.89955  1.0000
  C   C1004     1.0  0.84919  0.14456  0.89086  1.0000
  C   C1005     1.0  0.85969  0.12915  0.89734  1.0000
  C   C1006     1.0  0.85292  0.11772  0.91194  1.0000
  H   H1563     1.0  0.81203  0.14107  0.92085  1.0000
  H   H1564     1.0  0.82393  0.16102  0.89468  1.0000
  H   H1565     1.0  0.87311  0.12609  0.89122  1.0000
  H   H1566     1.0  0.86100  0.10561  0.91664  1.0000
  C   C1007     1.0  0.76310  0.07970  0.92456  1.0000
  C   C1008     1.0  0.77922  0.07260  0.92906  1.0000
  C   C1009     1.0  0.79028  0.05893  0.92176  1.0000
  C   C1010     1.0  0.78544  0.05257  0.90965  1.0000
  C   C1011     1.0  0.76932  0.05958  0.90519  1.0000
  C   C1012     1.0  0.75809  0.07303  0.91277  1.0000
  H   H1567     1.0  0.78315  0.07759  0.93823  1.0000
  H   H1568     1.0  0.80269  0.05341  0.92538  1.0000
  H   H1569     1.0  0.76544  0.05451  0.89606  1.0000
  H   H1570     1.0  0.74559  0.07841  0.90931  1.0000
  C   C1013     1.0  0.76673  0.18184  0.90441  1.0000
  C   C1014     1.0  0.76642  0.19933  0.89706  1.0000
  C   C1015     1.0  0.76915  0.20498  0.87907  1.0000
  C   C1016     1.0  0.77157  0.19328  0.86833  1.0000
  C   C1017     1.0  0.77186  0.17572  0.87563  1.0000
  C   C1018     1.0  0.76981  0.16996  0.89367  1.0000
  H   H1571     1.0  0.76407  0.20856  0.90529  1.0000
  H   H1572     1.0  0.76894  0.21853  0.87348  1.0000
  H   H1573     1.0  0.77381  0.16661  0.86738  1.0000
  H   H1574     1.0  0.77027  0.15644  0.89928  1.0000
  N   N96       1.0  0.81514  0.09695  0.88328  1.0000
  C   C1019     1.0  0.82344  0.07971  0.89174  1.0000
  C   C1020     1.0  0.82020  0.11040  0.88911  1.0000
  C   C1021     1.0  0.79612  0.09870  0.88801  1.0000
  C   C1022     1.0  0.82088  0.09899  0.86430  1.0000
  H   H1575     1.0  0.83782  0.07788  0.88818  1.0000
  H   H1576     1.0  0.81970  0.06914  0.88797  1.0000
  H   H1577     1.0  0.81968  0.07793  0.90610  1.0000
  H   H1578     1.0  0.81632  0.10900  0.90342  1.0000
  H   H1579     1.0  0.83450  0.10949  0.88571  1.0000
  H   H1580     1.0  0.81408  0.12364  0.88326  1.0000
  H   H1581     1.0  0.78938  0.11137  0.88153  1.0000
  H   H1582     1.0  0.79135  0.09775  0.90219  1.0000
  H   H1583     1.0  0.79190  0.08835  0.88438  1.0000
  H   H1584     1.0  0.83507  0.09846  0.86029  1.0000
  H   H1585     1.0  0.81442  0.11162  0.85751  1.0000
  H   H1586     1.0  0.81805  0.08850  0.85959  1.0000
  C   C1023     1.0  0.71867  0.14638  0.89038  1.0000
  C   C1024     1.0  0.72706  0.16186  0.90758  1.0000
  H   H1587     1.0  0.72568  0.15353  0.87819  1.0000
  H   H1588     1.0  0.70503  0.15350  0.89276  1.0000
  H   H1589     1.0  0.71875  0.13353  0.88790  1.0000
  H   H1590     1.0  0.73398  0.16950  0.89568  1.0000
  H   H1591     1.0  0.73371  0.16095  0.91824  1.0000
  H   H1592     1.0  0.74545  0.12184  0.89904  1.0000
  N   N97       1.0  0.73177  0.01337  0.83785  1.0000
  Fe  Fe216     1.0  0.76858  0.12388  0.97383  1.0000
  H   H1593     1.0  0.90213  0.07101  0.82951  1.0000
  H   H1594     1.0  0.94661  0.04577  0.85127  1.0000
  H   H1595     1.0  0.98816  0.12216  0.84860  1.0000
  C   C1025     1.0  0.94278  0.12974  0.89284  1.0000
  H   H1596     1.0  0.75860  0.01290  0.83598  1.0000
  H   H1597     1.0  0.72340  0.13330  0.93222  1.0000
  C   C1026     1.0  0.97115  0.11127  0.89072  1.0000
  H   H1598     1.0  0.90987  0.06455  0.86543  1.0000
  C   C1027     1.0  0.93535  0.04421  0.84683  1.0000
  C   C1028     1.0  0.74496  0.13491  0.90126  1.0000
  H   H1599     1.0  0.96832  0.10445  0.88185  1.0000
  C   C1029     1.0  0.74651  0.01189  0.84592  1.0000
  C   C1030     1.0  0.95977  0.12692  0.91401  1.0000
  H   H1600     1.0  0.71370  0.16942  0.91082  1.0000
  H   H1601     1.0  0.75271  0.14184  0.88949  1.0000
  C   C1031     1.0  0.76992  0.18988  0.96065  1.0000
  H   H1602     1.0  0.70369  0.14170  0.92420  1.0000
  C   C1032     1.0  0.71738  0.13496  0.92093  1.0000
  H   H1603     1.0  0.81017  0.10329  0.78296  1.0000
  H   H1604     1.0  0.67927  0.20986  0.79706  1.0000
  N   N98       1.0  0.92504  0.06116  0.84024  1.0000
  H   H1605     1.0  0.71744  0.12171  0.91947  1.0000
  C   C1033     1.0  0.93605  0.07074  0.82553  1.0000
  H   H1606     1.0  0.92870  0.08362  0.82023  1.0000
  H   H1607     1.0  0.72566  0.04117  0.83322  1.0000
  C   C1034     1.0  0.91026  0.05850  0.83450  1.0000
  H   H1608     1.0  0.74338  0.17523  0.97988  1.0000
  H   H1609     1.0  0.90155  0.05151  0.84536  1.0000
  H   H1610     1.0  0.91463  0.05098  0.82399  1.0000
  H   H1611     1.0  0.94713  0.07328  0.82951  1.0000
  H   H1612     1.0  0.94047  0.03629  0.83665  1.0000
  H   H1613     1.0  0.91083  0.08402  0.84956  1.0000
  C   C1035     1.0  0.91851  0.07117  0.85419  1.0000
  C   C1036     1.0  0.71604  0.01174  0.85150  1.0000
  H   H1614     1.0  0.70462  0.01292  0.84586  1.0000
  H   H1615     1.0  0.78955  0.18923  0.98296  1.0000
  H   H1616     1.0  0.72465  0.00004  0.82183  1.0000
  C   C1037     1.0  0.94760  0.10294  0.91351  1.0000
  H   H1617     1.0  0.98093  0.10215  0.89774  1.0000
  H   H1618     1.0  0.96967  0.11844  0.92128  1.0000
  H   H1619     1.0  0.79803  0.07286  0.80988  1.0000
  H   H1620     1.0  0.93567  0.10727  0.92287  1.0000
  H   H1621     1.0  0.71289  0.02200  0.85926  1.0000
  H   H1622     1.0  0.94403  0.09584  0.90535  1.0000
  C   C1038     1.0  0.78281  0.11619  0.80565  1.0000
  N   N99       1.0  0.95531  0.11772  0.90277  1.0000
  H   H1623     1.0  0.67445  0.22834  0.76876  1.0000
  C   C1039     1.0  0.70147  0.22822  0.75821  1.0000
  H   H1624     1.0  0.94786  0.14153  0.88543  1.0000
  H   H1625     1.0  0.77637  0.08390  0.81712  1.0000
  H   H1626     1.0  0.79958  0.00048  0.89405  1.0000
  C   C1040     1.0  0.69020  0.21318  0.78708  1.0000
  H   H1627     1.0  0.76300  0.15944  0.98011  1.0000
  H   H1628     1.0  0.72925  0.22499  0.75123  1.0000
  H   H1629     1.0  0.78710  0.12731  0.80767  1.0000
  H   H1630     1.0  0.77783  0.17866  0.95489  1.0000
  H   H1631     1.0  0.77748  0.20037  0.95614  1.0000
  H   H1632     1.0  0.76997  0.11551  0.81433  1.0000
  H   H1633     1.0  0.81750  0.11192  0.79729  1.0000
  H   H1634     1.0  0.80356  0.10797  0.82842  1.0000
  H   H1635     1.0  0.78095  0.11936  0.79206  1.0000
  N   N100      1.0  0.79548  0.09992  0.80911  1.0000
  H   H1636     1.0  0.78628  0.09618  0.83666  1.0000
  H   H1637     1.0  0.80809  0.08499  0.82977  1.0000
  C   C1041     1.0  0.81197  0.10104  0.79648  1.0000
  H   H1638     1.0  0.82182  0.08891  0.79868  1.0000
  H   H1639     1.0  0.82232  0.15661  0.83565  1.0000
  C   C1042     1.0  0.79849  0.09713  0.82681  1.0000
  H   H1640     1.0  0.78600  0.08713  0.79443  1.0000
  C   C1043     1.0  0.78866  0.08532  0.80756  1.0000
  H   H1641     1.0  0.96521  0.13842  0.90623  1.0000
  H   H1642     1.0  0.93030  0.13416  0.90144  1.0000
  C   C1044     1.0  0.81905  0.18851  0.81613  1.0000
  H   H1643     1.0  0.85226  0.18728  0.81597  1.0000
  H   H1644     1.0  0.85340  0.17171  0.83578  1.0000
  C   C1045     1.0  0.82047  0.16725  0.84261  1.0000
  C   C1046     1.0  0.71832  0.22168  0.76122  1.0000
  H   H1645     1.0  0.82398  0.19983  0.80729  1.0000
  H   H1646     1.0  0.74083  0.03234  0.81600  1.0000
  H   H1647     1.0  0.82683  0.16197  0.85394  1.0000
  H   H1648     1.0  0.83089  0.19133  0.85229  1.0000
  C   C1047     1.0  0.82461  0.19591  0.84086  1.0000
  C   C1048     1.0  0.84645  0.17649  0.82487  1.0000
  H   H1649     1.0  0.82986  0.20731  0.83266  1.0000
  N   N101      1.0  0.82764  0.18204  0.83110  1.0000
  H   H1650     1.0  0.82127  0.17841  0.80838  1.0000
  H   H1651     1.0  0.81088  0.99673  0.91113  1.0000
  H   H1652     1.0  0.94821  0.13164  0.92354  1.0000
  H   H1653     1.0  0.80481  0.19262  0.82033  1.0000
  C   C1049     1.0  0.68743  0.22374  0.77111  1.0000
  H   H1654     1.0  0.80633  0.17115  0.84769  1.0000
  H   H1655     1.0  0.71825  0.03186  0.81937  1.0000
  H   H1656     1.0  0.74727  0.00041  0.81745  1.0000
  H   H1657     1.0  0.97737  0.12206  0.88251  1.0000
  H   H1658     1.0  0.95684  0.09359  0.92106  1.0000
  H   H1659     1.0  0.78993  0.16766  0.98123  1.0000
  H   H1660     1.0  0.71770  0.99900  0.86057  1.0000
  C   C1050     1.0  0.77663  0.00352  0.92360  1.0000
  C   C1051     1.0  0.73556  0.99947  0.82796  1.0000
  N   N102      1.0  0.76556  0.18514  0.97974  1.0000
  H   H1661     1.0  0.76459  0.00130  0.93322  1.0000
  H   H1662     1.0  0.74899  0.99926  0.85502  1.0000
  H   H1663     1.0  0.75810  0.19435  0.95502  1.0000
  C   C1052     1.0  0.80289  0.99100  0.90569  1.0000
  H   H1664     1.0  0.77280  0.01334  0.91229  1.0000
  H   H1665     1.0  0.76236  0.21115  0.98308  1.0000
  H   H1666     1.0  0.78404  0.00953  0.92943  1.0000
  C   C1053     1.0  0.75549  0.17124  0.98501  1.0000
  H   H1667     1.0  0.74288  0.20529  0.98200  1.0000
  N   N103      1.0  0.71726  0.26697  0.28823  1.0000
  H   H1668     1.0  0.72557  0.27065  0.26052  1.0000
  C   C1054     1.0  0.70790  0.28502  0.28813  1.0000
  C   C1055     1.0  0.70793  0.25532  0.30239  1.0000
  S   S431      1.0  0.67041  0.31052  0.30695  1.0000
  C   C1056     1.0  0.71819  0.26246  0.27151  1.0000
  H   H1669     1.0  0.69453  0.28690  0.28602  1.0000
  H   H1670     1.0  0.73462  0.26833  0.30349  1.0000
  H   H1671     1.0  0.70504  0.26428  0.26889  1.0000
  H   H1672     1.0  0.74226  0.25152  0.29113  1.0000
  H   H1673     1.0  0.71439  0.24150  0.30282  1.0000
  Fe  Fe217     1.0  0.66400  0.24853  0.31731  1.0000
  H   H1674     1.0  0.69629  0.24236  0.24813  1.0000
  H   H1675     1.0  0.69450  0.25656  0.30080  1.0000
  H   H1676     1.0  0.74237  0.27368  0.28050  1.0000
  H   H1677     1.0  0.67895  0.24507  0.27756  1.0000
  H   H1678     1.0  0.70701  0.25823  0.31525  1.0000
  H   H1679     1.0  0.71457  0.29431  0.27775  1.0000
  H   H1680     1.0  0.70658  0.28880  0.30070  1.0000
  C   C1057     1.0  0.73493  0.26505  0.29094  1.0000
  H   H1681     1.0  0.66394  0.34772  0.30032  1.0000
  H   H1682     1.0  0.72455  0.24869  0.27135  1.0000
  S   S432      1.0  0.66998  0.26219  0.33524  1.0000
  H   H1683     1.0  0.67746  0.26993  0.55476  1.0000
  C   C1058     1.0  0.67577  0.28329  0.55682  1.0000
  H   H1684     1.0  0.68573  0.28325  0.56397  1.0000
  H   H1685     1.0  0.67858  0.29181  0.54384  1.0000
  H   H1686     1.0  0.67941  0.48429  0.32465  1.0000
  H   H1687     1.0  0.66583  0.30772  0.57627  1.0000
  C   C1059     1.0  0.66110  0.32532  0.32069  1.0000
  H   H1688     1.0  0.66414  0.27768  0.59147  1.0000
  H   H1689     1.0  0.68431  0.33708  0.67296  1.0000
  H   H1690     1.0  0.67650  0.28358  0.76739  1.0000
  C   C1060     1.0  0.67503  0.37076  0.67492  1.0000
  H   H1691     1.0  0.69914  0.27821  0.76787  1.0000
  H   H1692     1.0  0.69937  0.34247  0.68257  1.0000
  C   C1061     1.0  0.67534  0.35955  0.70523  1.0000
  C   C1062     1.0  0.68595  0.34037  0.68485  1.0000
  H   H1693     1.0  0.66844  0.29221  0.79550  1.0000
  H   H1694     1.0  0.68456  0.32876  0.69537  1.0000
  C   C1063     1.0  0.67946  0.28201  0.79950  1.0000
  Fe  Fe218     1.0  0.67232  0.25984  0.73626  1.0000
  N   N104      1.0  0.68262  0.26718  0.79099  1.0000
  N   N105      1.0  0.67299  0.35572  0.68928  1.0000
  H   H1695     1.0  0.68815  0.37376  0.67219  1.0000
  H   H1696     1.0  0.69101  0.28807  0.79605  1.0000
  S   S433      1.0  0.67170  0.28835  0.73163  1.0000
  C   C1064     1.0  0.68695  0.27313  0.77203  1.0000
  H   H1697     1.0  0.68834  0.36251  0.70352  1.0000
  C   C1065     1.0  0.66686  0.25978  0.79570  1.0000
  H   H1698     1.0  0.67396  0.34845  0.71632  1.0000
  H   H1699     1.0  0.67287  0.36848  0.66279  1.0000
  H   H1700     1.0  0.70918  0.25912  0.79380  1.0000
  S   S434      1.0  0.69838  0.24248  0.73853  1.0000
  H   H1701     1.0  0.66872  0.24863  0.78945  1.0000
  H   H1702     1.0  0.68874  0.26244  0.76515  1.0000
  H   H1703     1.0  0.67625  0.27798  0.81384  1.0000
  C   C1066     1.0  0.69719  0.25387  0.79667  1.0000
  H   H1704     1.0  0.69416  0.24843  0.81079  1.0000
  H   H1705     1.0  0.70032  0.24288  0.78989  1.0000
  H   H1706     1.0  0.66321  0.25508  0.80991  1.0000
  H   H1707     1.0  0.66542  0.38255  0.67793  1.0000
  H   H1708     1.0  0.66555  0.37093  0.70906  1.0000
  C   C1067     1.0  0.73966  0.72100  0.20986  1.0000
  H   H1709     1.0  0.68958  0.51092  0.30760  1.0000
  H   H1710     1.0  0.74785  0.72602  0.23779  1.0000
  H   H1711     1.0  0.76186  0.70701  0.23135  1.0000
  H   H1712     1.0  0.70813  0.71796  0.22954  1.0000
  H   H1713     1.0  0.73389  0.68521  0.24107  1.0000
  C   C1068     1.0  0.72206  0.72642  0.27747  1.0000
  Fe  Fe219     1.0  0.66599  0.68415  0.30761  1.0000
  H   H1714     1.0  0.74994  0.68692  0.22131  1.0000
  Fe  Fe220     1.0  0.66112  0.64925  0.30498  1.0000
  H   H1715     1.0  0.66862  0.50908  0.28224  1.0000
  C   C1069     1.0  0.70792  0.73756  0.27127  1.0000
  H   H1716     1.0  0.84342  0.73273  0.04942  1.0000
  N   N106      1.0  0.73572  0.71121  0.22781  1.0000
  C   C1070     1.0  0.74836  0.71238  0.23741  1.0000
  H   H1717     1.0  0.73049  0.72033  0.20212  1.0000
  C   C1071     1.0  0.68974  0.71637  0.28622  1.0000
  N   N107      1.0  0.66438  0.50575  0.30987  1.0000
  S   S435      1.0  0.68468  0.65923  0.30417  1.0000
  H   H1718     1.0  0.70243  0.69280  0.30055  1.0000
  C   C1072     1.0  0.71999  0.71029  0.28804  1.0000
  H   H1719     1.0  0.73087  0.70167  0.29297  1.0000
  C   C1073     1.0  0.70391  0.70523  0.29235  1.0000
  H   H1720     1.0  0.75301  0.71603  0.20308  1.0000
  S   S436      1.0  0.66935  0.71050  0.29140  1.0000
  H   H1721     1.0  0.84273  0.73416  0.20768  1.0000
  C   C1074     1.0  0.69179  0.73254  0.27566  1.0000
  C   C1075     1.0  0.71807  0.71858  0.23638  1.0000
  H   H1722     1.0  0.66268  0.57463  0.28178  1.0000
  H   H1723     1.0  0.68316  0.49123  0.29234  1.0000
  H   H1724     1.0  0.66740  0.60456  0.27062  1.0000
  H   H1725     1.0  0.74571  0.70532  0.25110  1.0000
  C   C1076     1.0  0.73678  0.69289  0.22766  1.0000
  H   H1726     1.0  0.67464  0.52881  0.29802  1.0000
  C   C1077     1.0  0.67577  0.51759  0.30906  1.0000
  H   H1727     1.0  0.72735  0.69151  0.22060  1.0000
  C   C1078     1.0  0.66108  0.60075  0.28397  1.0000
  H   H1728     1.0  0.71469  0.71150  0.24999  1.0000
  H   H1729     1.0  0.66116  0.48966  0.29416  1.0000
  S   S437      1.0  0.74258  0.73200  0.27216  1.0000
  H   H1730     1.0  0.73885  0.73491  0.20953  1.0000
  C   C1079     1.0  0.66959  0.49862  0.29393  1.0000
  H   H1731     1.0  0.71684  0.73237  0.23684  1.0000
  H   H1732     1.0  0.69237  0.67416  0.64421  1.0000
  H   H1733     1.0  0.67224  0.52304  0.32100  1.0000
  H   H1734     1.0  0.68902  0.61311  0.33533  1.0000
  C   C1080     1.0  0.68647  0.63996  0.37219  1.0000
  H   H1735     1.0  0.68832  0.60824  0.63749  1.0000
  C   C1081     1.0  0.69014  0.63973  0.40086  1.0000
  H   H1736     1.0  0.67948  0.60361  0.32341  1.0000
  N   N108      1.0  0.67009  0.64696  0.47775  1.0000
  C   C1082     1.0  0.68815  0.60061  0.33278  1.0000
  C   C1083     1.0  0.66627  0.63607  0.64747  1.0000
  H   H1737     1.0  0.69448  0.59777  0.36421  1.0000
  H   H1738     1.0  0.70690  0.57931  0.35536  1.0000
  H   H1739     1.0  0.67496  0.63074  0.45922  1.0000
  H   H1740     1.0  0.67212  0.57459  0.33589  1.0000
  H   H1741     1.0  0.66557  0.65778  0.50044  1.0000
  H   H1742     1.0  0.67628  0.56331  0.35675  1.0000
  H   H1743     1.0  0.71109  0.63346  0.37976  1.0000
  H   H1744     1.0  0.69859  0.63789  0.40973  1.0000
  C   C1084     1.0  0.69722  0.63719  0.38391  1.0000
  S   S438      1.0  0.69573  0.63738  0.35083  1.0000
  C   C1085     1.0  0.67223  0.64458  0.40633  1.0000
  S   S439      1.0  0.66871  0.61250  0.61148  1.0000
  N   N109      1.0  0.68176  0.58893  0.34895  1.0000
  S   S440      1.0  0.66112  0.55503  0.39198  1.0000
  C   C1086     1.0  0.67369  0.62971  0.47335  1.0000
  C   C1087     1.0  0.66584  0.49147  0.32506  1.0000
  C   C1088     1.0  0.66843  0.64500  0.49660  1.0000
  C   C1089     1.0  0.68101  0.57249  0.34488  1.0000
  H   H1745     1.0  0.66255  0.58366  0.40630  1.0000
  C   C1090     1.0  0.69358  0.58553  0.36101  1.0000
  H   H1746     1.0  0.70131  0.59487  0.32626  1.0000
  Fe  Fe221     1.0  0.67764  0.65203  0.33319  1.0000
  C   C1091     1.0  0.67845  0.67800  0.64769  1.0000
  H   H1747     1.0  0.68901  0.57685  0.37341  1.0000
  H   H1748     1.0  0.69397  0.56598  0.33869  1.0000
  C   C1092     1.0  0.66842  0.68073  0.63516  1.0000
  H   H1749     1.0  0.66307  0.62260  0.48020  1.0000
  C   C1093     1.0  0.66851  0.64486  0.37760  1.0000
  H   H1750     1.0  0.68593  0.62164  0.47690  1.0000
  C   C1094     1.0  0.66430  0.59709  0.35717  1.0000
  H   H1751     1.0  0.67464  0.67912  0.62210  1.0000
  C   C1095     1.0  0.69326  0.61541  0.64454  1.0000
  H   H1752     1.0  0.66457  0.60929  0.36084  1.0000
  H   H1753     1.0  0.68050  0.63741  0.50089  1.0000
  H   H1754     1.0  0.68200  0.66912  0.47114  1.0000
  H   H1755     1.0  0.67244  0.64564  0.63698  1.0000
  H   H1756     1.0  0.66138  0.49633  0.33740  1.0000
  H   H1757     1.0  0.67395  0.58488  0.64082  1.0000
  H   H1758     1.0  0.68597  0.65754  0.45397  1.0000
  H   H1759     1.0  0.69988  0.62506  0.63458  1.0000
  C   C1096     1.0  0.66138  0.64701  0.39473  1.0000
  S   S441      1.0  0.66387  0.64798  0.42758  1.0000
  S   S442      1.0  0.66092  0.67776  0.33675  1.0000
  H   H1760     1.0  0.69694  0.64870  0.47173  1.0000
  C   C1097     1.0  0.68440  0.65598  0.46825  1.0000
  C   C1098     1.0  0.66084  0.58671  0.63915  1.0000
  H   H1761     1.0  0.70313  0.60600  0.65120  1.0000
  H   H1762     1.0  0.72540  0.72427  0.85428  1.0000
  C   C1099     1.0  0.67060  0.68061  0.66453  1.0000
  H   H1763     1.0  0.74345  0.70096  0.69073  1.0000
  H   H1764     1.0  0.73726  0.72060  0.69895  1.0000
  H   H1765     1.0  0.67216  0.63434  0.72229  1.0000
  N   N110      1.0  0.71631  0.70798  0.70142  1.0000
  S   S443      1.0  0.68359  0.67706  0.67999  1.0000
  H   H1766     1.0  0.69005  0.72078  0.70943  1.0000
  S   S444      1.0  0.72020  0.72779  0.79962  1.0000
  C   C1100     1.0  0.70296  0.72388  0.70286  1.0000
  C   C1101     1.0  0.71122  0.69750  0.69187  1.0000
  C   C1102     1.0  0.66719  0.62254  0.72722  1.0000
  H   H1767     1.0  0.82744  0.72794  0.85663  1.0000
  H   H1768     1.0  0.67756  0.61319  0.70350  1.0000
  S   S445      1.0  0.66788  0.58059  0.70882  1.0000
  C   C1103     1.0  0.71796  0.69788  0.71892  1.0000
  C   C1104     1.0  0.66377  0.59524  0.72271  1.0000
  H   H1769     1.0  0.69853  0.69390  0.69852  1.0000
  Fe  Fe222     1.0  0.66916  0.69491  0.73916  1.0000
  S   S446      1.0  0.68254  0.66984  0.73005  1.0000
  C   C1105     1.0  0.70421  0.73786  0.77077  1.0000
  S   S447      1.0  0.75563  0.73340  0.86083  1.0000
  C   C1106     1.0  0.73308  0.71267  0.69205  1.0000
  C   C1107     1.0  0.68619  0.63321  0.66594  1.0000
  H   H1770     1.0  0.85345  0.73609  0.90651  1.0000
  H   H1771     1.0  0.66454  0.60354  0.66356  1.0000
  C   C1108     1.0  0.67061  0.61052  0.66974  1.0000
  C   C1109     1.0  0.69529  0.73477  0.75937  1.0000
  H   H1772     1.0  0.74361  0.70678  0.82358  1.0000
  H   H1773     1.0  0.72121  0.70557  0.72675  1.0000
  H   H1774     1.0  0.81731  0.73305  0.83135  1.0000
  H   H1775     1.0  0.74088  0.69824  0.87096  1.0000
  H   H1776     1.0  0.69545  0.62424  0.67368  1.0000
  H   H1777     1.0  0.71760  0.69412  0.83115  1.0000
  H   H1778     1.0  0.70873  0.69809  0.79673  1.0000
  C   C1110     1.0  0.73396  0.69033  0.86671  1.0000
  H   H1779     1.0  0.75345  0.70846  0.84035  1.0000
  H   H1780     1.0  0.72876  0.67490  0.84327  1.0000
  H   H1781     1.0  0.77127  0.72786  0.89012  1.0000
  H   H1782     1.0  0.81692  0.73208  0.90223  1.0000
  C   C1111     1.0  0.82073  0.72648  0.87043  1.0000
  C   C1112     1.0  0.69116  0.71849  0.76128  1.0000
  C   C1113     1.0  0.76082  0.73899  0.89082  1.0000
  H   H1783     1.0  0.72199  0.68882  0.87672  1.0000
  C   C1114     1.0  0.72076  0.68800  0.84414  1.0000
  C   C1115     1.0  0.69619  0.70531  0.77485  1.0000
  H   H1784     1.0  0.75491  0.68772  0.83570  1.0000
  C   C1116     1.0  0.74620  0.70046  0.83673  1.0000
  C   C1117     1.0  0.70504  0.70843  0.78630  1.0000
  H   H1785     1.0  0.70597  0.73179  0.71063  1.0000
  N   N111      1.0  0.72993  0.69863  0.84950  1.0000
  C   C1118     1.0  0.71885  0.71588  0.85032  1.0000
  C   C1119     1.0  0.70915  0.72472  0.78442  1.0000
  H   H1786     1.0  0.69319  0.69271  0.77663  1.0000
  H   H1787     1.0  0.74240  0.67731  0.86660  1.0000
  H   H1788     1.0  0.70836  0.68640  0.85342  1.0000
  H   H1789     1.0  0.72811  0.68593  0.71839  1.0000
  H   H1790     1.0  0.83009  0.71750  0.87805  1.0000
  S   S448      1.0  0.67967  0.71556  0.74640  1.0000
  H   H1791     1.0  0.70644  0.71506  0.85981  1.0000
  H   H1792     1.0  0.71560  0.72254  0.83751  1.0000
  Fe  Fe223     1.0  0.66955  0.68023  0.70715  1.0000
  H   H1793     1.0  0.67580  0.64027  0.67497  1.0000
  H   H1794     1.0  0.72080  0.68525  0.69066  1.0000
  H   H1795     1.0  0.70982  0.70463  0.67858  1.0000
  C   C1120     1.0  0.67017  0.61057  0.71654  1.0000
  S   S449      1.0  0.75885  0.73795  0.81150  1.0000
  H   H1796     1.0  0.80966  0.72012  0.87209  1.0000
  H   H1797     1.0  0.68011  0.60062  0.67651  1.0000
  H   H1798     1.0  0.73232  0.72030  0.67877  1.0000
  H   H1799     1.0  0.69321  0.64292  0.65663  1.0000
  H   H1800     1.0  0.79600  0.73425  0.89777  1.0000
  N   N112      1.0  0.67907  0.62382  0.65693  1.0000
  H   H1801     1.0  0.70564  0.69385  0.72624  1.0000
  H   H1802     1.0  0.70166  0.73206  0.68993  1.0000
  H   H1803     1.0  0.81389  0.83803  0.15265  1.0000
  Fe  Fe224     1.0  0.89529  0.79769  0.14920  1.0000
  S   S450      1.0  0.87256  0.79534  0.17112  1.0000
  S   S451      1.0  0.88919  0.80943  0.12288  1.0000
  Fe  Fe225     1.0  0.92137  0.78333  0.17245  1.0000
  H   H1804     1.0  0.82043  0.82662  0.13497  1.0000
  H   H1805     1.0  0.82274  0.87236  0.13131  1.0000
  Fe  Fe226     1.0  0.88820  0.76951  0.18052  1.0000
  Fe  Fe227     1.0  0.88690  0.80534  0.18520  1.0000
  S   S452      1.0  0.87210  0.82321  0.20313  1.0000
  S   S453      1.0  0.91004  0.77085  0.15733  1.0000
  S   S454      1.0  0.90841  0.81041  0.16235  1.0000
  Fe  Fe228     1.0  0.77676  0.92503  0.17892  1.0000
  S   S455      1.0  0.79534  0.90730  0.19476  1.0000
  S   S456      1.0  0.76573  0.95306  0.18031  1.0000
  Fe  Fe229     1.0  0.77357  0.89614  0.16276  1.0000
  S   S457      1.0  0.79195  0.87614  0.17722  1.0000
  S   S458      1.0  0.75941  0.88708  0.14759  1.0000
  Fe  Fe230     1.0  0.77785  0.88845  0.19985  1.0000
  S   S459      1.0  0.76681  0.87473  0.22637  1.0000
  Fe  Fe231     1.0  0.80743  0.89699  0.17048  1.0000
  S   S460      1.0  0.83587  0.89166  0.15966  1.0000
  S   S461      1.0  0.75827  0.90695  0.18589  1.0000
  S   S462      1.0  0.79017  0.91612  0.15404  1.0000
  Fe  Fe232     1.0  0.76436  0.75939  0.21105  1.0000
  H   H1806     1.0  0.83547  0.79077  0.16658  1.0000
  H   H1807     1.0  0.76138  0.91781  0.23659  1.0000
  C   C1121     1.0  0.77866  0.76304  0.15365  1.0000
  S   S463      1.0  0.77097  0.78474  0.20997  1.0000
  Fe  Fe233     1.0  0.79779  0.80674  0.06452  1.0000
  S   S464      1.0  0.77982  0.82736  0.07810  1.0000
  S   S465      1.0  0.80127  0.80575  0.03620  1.0000
  Fe  Fe234     1.0  0.81722  0.79190  0.09417  1.0000
  S   S466      1.0  0.80094  0.81094  0.11017  1.0000
  S   S467      1.0  0.83864  0.77217  0.10480  1.0000
  Fe  Fe235     1.0  0.77879  0.80608  0.10182  1.0000
  S   S468      1.0  0.75475  0.80380  0.12242  1.0000
  Fe  Fe236     1.0  0.80344  0.83044  0.08540  1.0000
  S   S469      1.0  0.81008  0.85541  0.08580  1.0000
  S   S470      1.0  0.79484  0.78507  0.08778  1.0000
  S   S471      1.0  0.82166  0.81174  0.06993  1.0000
  H   H1808     1.0  0.76046  0.93975  0.22476  1.0000
  S   S472      1.0  0.76292  0.77038  0.99983  1.0000
  C   C1122     1.0  0.79083  0.79474  0.02711  1.0000
  C   C1123     1.0  0.77600  0.78826  0.03620  1.0000
  H   H1809     1.0  0.79218  0.83696  0.23061  1.0000
  C   C1124     1.0  0.77436  0.77884  0.01050  1.0000
  C   C1125     1.0  0.78951  0.78482  0.00173  1.0000
  C   C1126     1.0  0.79764  0.79277  0.00996  1.0000
  H   H1810     1.0  0.89726  0.79858  0.22399  1.0000
  N   N113      1.0  0.82986  0.98793  0.16851  1.0000
  C   C1127     1.0  0.78342  0.83838  0.26401  1.0000
  H   H1811     1.0  0.80923  0.79756  0.00290  1.0000
  C   C1128     1.0  0.76663  0.76236  0.16938  1.0000
  C   C1129     1.0  0.75072  0.77393  0.17040  1.0000
  C   C1130     1.0  0.74682  0.78608  0.15566  1.0000
  C   C1131     1.0  0.75918  0.78737  0.14018  1.0000
  C   C1132     1.0  0.77512  0.77581  0.13918  1.0000
  H   H1812     1.0  0.85236  0.76479  0.15698  1.0000
  H   H1813     1.0  0.74127  0.77323  0.18245  1.0000
  H   H1814     1.0  0.73427  0.79458  0.15626  1.0000
  C   C1133     1.0  0.76777  0.78037  0.02787  1.0000
  H   H1815     1.0  0.74663  0.81788  0.18970  1.0000
  C   C1134     1.0  0.77307  0.87917  0.12971  1.0000
  C   C1135     1.0  0.76880  0.86638  0.12381  1.0000
  C   C1136     1.0  0.78008  0.85916  0.11019  1.0000
  C   C1137     1.0  0.79529  0.86525  0.10194  1.0000
  C   C1138     1.0  0.79918  0.87861  0.10732  1.0000
  C   C1139     1.0  0.78828  0.88528  0.12148  1.0000
  H   H1816     1.0  0.75687  0.86191  0.12986  1.0000
  H   H1817     1.0  0.77690  0.84899  0.10596  1.0000
  H   H1818     1.0  0.81076  0.88360  0.10075  1.0000
  H   H1819     1.0  0.79147  0.89537  0.12582  1.0000
  C   C1140     1.0  0.75618  0.85892  0.22515  1.0000
  C   C1141     1.0  0.82366  0.76898  0.22652  1.0000
  C   C1142     1.0  0.84063  0.77623  0.03806  1.0000
  C   C1143     1.0  0.73973  0.83244  0.22503  1.0000
  C   C1144     1.0  0.75618  0.83351  0.21465  1.0000
  C   C1145     1.0  0.76414  0.84706  0.21430  1.0000
  H   H1820     1.0  0.80872  0.84849  0.13196  1.0000
  H   H1821     1.0  0.86114  0.83741  0.13803  1.0000
  H   H1822     1.0  0.76269  0.82408  0.20669  1.0000
  H   H1823     1.0  0.77670  0.84798  0.20605  1.0000
  H   H1824     1.0  0.76124  0.81528  0.00360  1.0000
  C   C1146     1.0  0.77413  0.96374  0.19162  1.0000
  C   C1147     1.0  0.78639  0.95484  0.20168  1.0000
  C   C1148     1.0  0.79217  0.96364  0.21121  1.0000
  H   H1825     1.0  0.79127  0.94117  0.20232  1.0000
  H   H1826     1.0  0.80153  0.95668  0.21910  1.0000
  C   C1149     1.0  0.86206  0.84231  0.19116  1.0000
  C   C1150     1.0  0.84630  0.85165  0.19876  1.0000
  C   C1151     1.0  0.83810  0.86681  0.18906  1.0000
  C   C1152     1.0  0.84599  0.87290  0.17198  1.0000
  C   C1153     1.0  0.86183  0.86363  0.16446  1.0000
  C   C1154     1.0  0.86971  0.84819  0.17396  1.0000
  H   H1827     1.0  0.84033  0.84706  0.21204  1.0000
  H   H1828     1.0  0.82583  0.87393  0.19487  1.0000
  H   H1829     1.0  0.86793  0.86832  0.15125  1.0000
  H   H1830     1.0  0.88189  0.84106  0.16805  1.0000
  C   C1155     1.0  0.87637  0.79834  0.11697  1.0000
  C   C1156     1.0  0.86698  0.80684  0.10404  1.0000
  C   C1157     1.0  0.85531  0.79892  0.10030  1.0000
  C   C1158     1.0  0.85378  0.78202  0.10873  1.0000
  C   C1159     1.0  0.86396  0.77311  0.12092  1.0000
  C   C1160     1.0  0.87486  0.78142  0.12542  1.0000
  H   H1831     1.0  0.86854  0.81971  0.09710  1.0000
  H   H1832     1.0  0.84772  0.80584  0.09070  1.0000
  C   C1161     1.0  0.75468  0.81984  0.99239  1.0000
  H   H1833     1.0  0.81346  0.74837  0.05856  1.0000
  H   H1834     1.0  0.94289  0.81274  0.16795  1.0000
  S   S473      1.0  0.94909  0.77515  0.17591  1.0000
  H   H1835     1.0  0.74753  0.83213  0.14293  1.0000
  C   C1162     1.0  0.84848  0.83317  0.14193  1.0000
  H   H1836     1.0  0.99048  0.79623  0.13138  1.0000
  H   H1837     1.0  0.88229  0.77466  0.13523  1.0000
  C   C1163     1.0  0.79951  0.82633  0.23907  1.0000
  H   H1838     1.0  0.79856  0.76784  0.17942  1.0000
  S   S474      1.0  0.75533  0.77815  0.25225  1.0000
  H   H1839     1.0  0.76222  0.92281  0.21376  1.0000
  C   C1164     1.0  0.95868  0.79011  0.18040  1.0000
  H   H1840     1.0  0.77001  0.84335  0.99712  1.0000
  H   H1841     1.0  0.73378  0.86663  0.24430  1.0000
  S   S475      1.0  0.77171  0.74722  0.18774  1.0000
  Fe  Fe237     1.0  0.74528  0.78966  0.22786  1.0000
  H   H1842     1.0  0.92368  0.81577  0.24428  1.0000
  H   H1843     1.0  0.82966  0.77742  0.18731  1.0000
  S   S476      1.0  0.87364  0.74792  0.19156  1.0000
  N   N114      1.0  0.82473  0.76935  0.16621  1.0000
  S   S477      1.0  0.72887  0.81642  0.22473  1.0000
  C   C1165     1.0  0.84129  0.74627  0.21157  1.0000
  H   H1844     1.0  0.84475  0.86775  0.13380  1.0000
  H   H1845     1.0  0.81919  0.76734  0.14243  1.0000
  H   H1846     1.0  0.81136  0.81325  0.26852  1.0000
  C   C1166     1.0  0.85497  0.75520  0.20621  1.0000
  H   H1847     1.0  0.97653  0.77021  0.19352  1.0000
  C   C1167     1.0  0.97248  0.78397  0.18906  1.0000
  C   C1168     1.0  0.98113  0.79553  0.19196  1.0000
  C   C1169     1.0  0.74441  0.81810  0.17679  1.0000
  N   N115      1.0  0.91726  0.81246  0.22148  1.0000
  C   C1170     1.0  0.97619  0.81328  0.18599  1.0000
  N   N116      1.0  0.73569  0.83543  0.16903  1.0000
  C   C1171     1.0  0.82552  0.75330  0.22152  1.0000
  C   C1172     1.0  0.81888  0.83936  0.13845  1.0000
  H   H1848     1.0  0.84451  0.83175  0.15625  1.0000
  H   H1849     1.0  0.94394  0.80115  0.21295  1.0000
  N   N117      1.0  0.83535  0.84560  0.13304  1.0000
  H   H1850     1.0  0.92674  0.82779  0.19684  1.0000
  H   H1851     1.0  0.85091  0.82018  0.13872  1.0000
  H   H1852     1.0  0.83286  0.85795  0.10693  1.0000
  S   S478      1.0  0.73748  0.76534  0.22677  1.0000
  H   H1853     1.0  0.72820  0.84850  0.14483  1.0000
  C   C1173     1.0  0.84142  0.84732  0.11410  1.0000
  C   C1174     1.0  0.83260  0.86259  0.13769  1.0000
  H   H1854     1.0  0.84152  0.96190  0.17896  1.0000
  C   C1175     1.0  0.75611  0.92753  0.22597  1.0000
  C   C1176     1.0  0.74571  0.84839  0.16859  1.0000
  H   H1855     1.0  0.82802  0.86177  0.15188  1.0000
  H   H1856     1.0  0.73638  0.90417  0.24292  1.0000
  H   H1857     1.0  0.75906  0.84564  0.16078  1.0000
  H   H1858     1.0  0.80419  0.79690  0.26264  1.0000
  H   H1859     1.0  0.71015  0.83025  0.18023  1.0000
  H   H1860     1.0  0.85473  0.85006  0.10977  1.0000
  H   H1861     1.0  0.93303  0.78870  0.23211  1.0000
  H   H1862     1.0  0.73310  0.95059  0.24301  1.0000
  H   H1863     1.0  0.84149  0.83539  0.10983  1.0000
  N   N118      1.0  0.78907  0.82250  0.25678  1.0000
  H   H1864     1.0  0.76517  0.82627  0.24846  1.0000
  C   C1177     1.0  0.73450  0.83555  0.15120  1.0000
  H   H1865     1.0  0.74675  0.84884  0.18180  1.0000
  H   H1866     1.0  0.71866  0.83960  0.19315  1.0000
  H   H1867     1.0  0.77524  0.84872  0.25607  1.0000
  H   H1868     1.0  0.80904  0.77142  0.05588  1.0000
  C   C1178     1.0  0.71814  0.83973  0.17959  1.0000
  H   H1869     1.0  0.73943  0.86159  0.16278  1.0000
  H   H1870     1.0  0.71752  0.91515  0.23403  1.0000
  H   H1871     1.0  0.71122  0.85280  0.17420  1.0000
  H   H1872     1.0  0.85465  0.77609  0.03618  1.0000
  H   H1873     1.0  0.75715  0.81378  0.16850  1.0000
  H   H1874     1.0  0.91193  0.81498  0.19641  1.0000
  C   C1179     1.0  0.95338  0.80791  0.17485  1.0000
  H   H1875     1.0  0.84209  0.74818  0.15557  1.0000
  C   C1180     1.0  0.96213  0.81948  0.17766  1.0000
  H   H1876     1.0  0.72692  0.82603  0.15098  1.0000
  H   H1877     1.0  0.79216  0.80566  0.28121  1.0000
  N   N119      1.0  0.73706  0.93031  0.22909  1.0000
  H   H1878     1.0  0.95824  0.83322  0.17300  1.0000
  C   C1181     1.0  0.81750  0.76036  0.05026  1.0000
  C   C1182     1.0  0.85313  0.77069  0.21152  1.0000
  H   H1879     1.0  0.86315  0.75989  0.12713  1.0000
  H   H1880     1.0  0.83736  0.77866  0.02509  1.0000
  H   H1881     1.0  0.77064  0.78968  0.04946  1.0000
  S   S479      1.0  0.98769  0.82788  0.18831  1.0000
  C   C1183     1.0  0.78619  0.98148  0.21024  1.0000
  S   S480      1.0  0.90082  0.77930  0.19644  1.0000
  H   H1882     1.0  0.79467  0.84361  0.26433  1.0000
  H   H1883     1.0  0.73639  0.80831  0.17881  1.0000
  H   H1884     1.0  0.80675  0.78595  0.15088  1.0000
  H   H1885     1.0  0.78462  0.77655  0.12719  1.0000
  H   H1886     1.0  0.71889  0.84388  0.24348  1.0000
  H   H1887     1.0  0.73519  0.95485  0.21128  1.0000
  H   H1888     1.0  0.89003  0.81784  0.23258  1.0000
  S   S481      1.0  0.80398  0.77851  0.23823  1.0000
  H   H1889     1.0  0.83560  0.74624  0.07544  1.0000
  C   C1184     1.0  0.79965  0.80903  0.26780  1.0000
  C   C1185     1.0  0.90102  0.80667  0.23102  1.0000
  C   C1186     1.0  0.77370  0.81629  0.25624  1.0000
  H   H1890     1.0  0.86367  0.77755  0.20768  1.0000
  H   H1891     1.0  0.81489  0.74653  0.22543  1.0000
  H   H1892     1.0  0.83623  0.78956  0.22571  1.0000
  H   H1893     1.0  0.82510  0.97270  0.19424  1.0000
  H   H1894     1.0  0.92881  0.78925  0.21140  1.0000
  H   H1895     1.0  0.73397  0.92928  0.25627  1.0000
  N   N120      1.0  0.83598  0.75999  0.04909  1.0000
  C   C1187     1.0  0.73182  0.91358  0.23172  1.0000
  H   H1896     1.0  0.81157  0.83038  0.23904  1.0000
  C   C1188     1.0  0.83757  0.77749  0.22179  1.0000
  H   H1897     1.0  0.82921  0.78505  0.14065  1.0000
  Fe  Fe238     1.0  0.78063  0.77148  0.23424  1.0000
  H   H1898     1.0  0.77741  0.80466  0.25033  1.0000
  C   C1189     1.0  0.82573  0.78303  0.17466  1.0000
  H   H1899     1.0  0.93398  0.82775  0.22432  1.0000
  H   H1900     1.0  0.73747  0.90743  0.22027  1.0000
  C   C1190     1.0  0.91492  0.82280  0.20426  1.0000
  C   C1191     1.0  0.93136  0.79722  0.21942  1.0000
  C   C1192     1.0  0.81974  0.77731  0.14934  1.0000
  H   H1901     1.0  0.79079  0.75383  0.15266  1.0000
  H   H1902     1.0  0.75607  0.77574  0.03481  1.0000
  H   H1903     1.0  0.91140  0.83480  0.23296  1.0000
  C   C1193     1.0  0.73094  0.94229  0.21398  1.0000
  H   H1904     1.0  0.77562  0.83595  0.27741  1.0000
  H   H1905     1.0  0.83346  0.78758  0.04395  1.0000
  C   C1194     1.0  0.76299  0.84751  0.98622  1.0000
  H   H1906     1.0  0.71506  0.94011  0.24748  1.0000
  H   H1907     1.0  0.80339  0.81482  0.23291  1.0000
  H   H1908     1.0  0.81460  0.76182  0.03728  1.0000
  H   H1909     1.0  0.81474  0.75360  0.19039  1.0000
  C   C1195     1.0  0.73159  0.84464  0.23544  1.0000
  H   H1910     1.0  0.76579  0.81275  0.26941  1.0000
  C   C1196     1.0  0.72944  0.93790  0.24467  1.0000
  H   H1911     1.0  0.73626  0.93689  0.20200  1.0000
  S   S482      1.0  0.77658  0.74556  0.23367  1.0000
  C   C1197     1.0  0.73998  0.85756  0.23585  1.0000
  H   H1912     1.0  0.90398  0.83409  0.20528  1.0000
  H   H1913     1.0  0.71659  0.94502  0.21592  1.0000
  H   H1914     1.0  0.90222  0.79887  0.24412  1.0000
  Fe  Fe239     1.0  0.75009  0.75325  0.24965  1.0000
  C   C1198     1.0  0.92177  0.82317  0.23121  1.0000
  C   C1199     1.0  0.82888  0.97112  0.18050  1.0000
  C   C1200     1.0  0.84178  0.75758  0.16351  1.0000
  H   H1915     1.0  0.81084  0.74872  0.17168  1.0000
  H   H1916     1.0  0.70934  0.75009  0.26328  1.0000
  C   C1201     1.0  0.84668  0.74518  0.04145  1.0000
  C   C1202     1.0  0.81166  0.75946  0.17739  1.0000
  H   H1917     1.0  0.81906  0.96499  0.17829  1.0000
  H   H1918     1.0  0.84511  0.74994  0.17597  1.0000
  C   C1203     1.0  0.76793  0.98150  0.19092  1.0000
  C   C1204     1.0  0.83910  0.75822  0.06659  1.0000
  H   H1919     1.0  0.74089  0.82528  0.99739  1.0000
  H   H1920     1.0  0.81301  0.79196  0.17718  1.0000
  H   H1921     1.0  0.85288  0.75797  0.06630  1.0000
  H   H1922     1.0  0.79496  0.78344  0.98855  1.0000
  H   H1923     1.0  0.98426  0.78056  0.15036  1.0000
  H   H1924     1.0  0.75498  0.80823  0.98737  1.0000
  H   H1925     1.0  0.84788  0.97663  0.14812  1.0000
  H   H1926     1.0  0.74954  0.85389  0.99133  1.0000
  H   H1927     1.0  0.82549  0.97957  0.14729  1.0000
  C   C1205     1.0  0.83501  0.98538  0.15046  1.0000
  H   H1928     1.0  0.83128  0.76928  0.07263  1.0000
  H   H1929     1.0  0.86071  0.74442  0.04046  1.0000
  H   H1930     1.0  0.84465  0.74623  0.02819  1.0000
  H   H1931     1.0  0.98823  0.80053  0.15245  1.0000
  H   H1932     1.0  0.99173  0.79065  0.19868  1.0000
  H   H1933     1.0  0.68082  0.74124  0.27097  1.0000
  H   H1934     1.0  0.85582  0.98740  0.17045  1.0000
  H   H1935     1.0  0.75835  0.98845  0.18326  1.0000
  C   C1206     1.0  0.99275  0.79024  0.14466  1.0000
  Fe  Fe240     1.0  0.75843  0.77291  0.93730  1.0000
  S   S483      1.0  0.78248  0.78080  0.92013  1.0000
  H   H1936     1.0  0.81819  0.95028  0.82570  1.0000
  S   S484      1.0  0.79516  0.78008  0.95561  1.0000
  Fe  Fe241     1.0  0.77912  0.79881  0.93789  1.0000
  S   S485      1.0  0.78411  0.82569  0.92852  1.0000
  Fe  Fe242     1.0  0.79604  0.76124  0.93956  1.0000
  H   H1937     1.0  0.78902  0.83970  0.78700  1.0000
  S   S486      1.0  0.75388  0.79276  0.95372  1.0000
  H   H1938     1.0  0.81054  0.82956  0.77813  1.0000
  C   C1207     1.0  0.75378  0.83864  0.96445  1.0000
  H   H1939     1.0  0.76455  0.81581  0.86444  1.0000
  S   S487      1.0  0.96707  0.81905  0.82683  1.0000
  Fe  Fe243     1.0  0.87178  0.78403  0.84826  1.0000
  H   H1940     1.0  0.81721  0.79663  0.81736  1.0000
  Fe  Fe244     1.0  0.87054  0.79877  0.81057  1.0000
  S   S488      1.0  0.88384  0.77372  0.80226  1.0000
  S   S489      1.0  0.86103  0.82275  0.79230  1.0000
  Fe  Fe245     1.0  0.86614  0.76221  0.82596  1.0000
  H   H1941     1.0  0.79938  0.80231  0.78667  1.0000
  Fe  Fe246     1.0  0.90136  0.77185  0.82034  1.0000
  S   S490      1.0  0.93060  0.76441  0.81460  1.0000
  S   S491      1.0  0.85158  0.78750  0.83293  1.0000
  S   S492      1.0  0.88935  0.79787  0.82664  1.0000
  H   H1942     1.0  0.89548  0.80806  0.86082  1.0000
  Fe  Fe247     1.0  0.75114  0.88366  0.85456  1.0000
  S   S493      1.0  0.74103  0.89938  0.83101  1.0000
  S   S494      1.0  0.73468  0.87246  0.87932  1.0000
  Fe  Fe248     1.0  0.78851  0.88288  0.83672  1.0000
  S   S495      1.0  0.78181  0.89811  0.81166  1.0000
  S   S496      1.0  0.81569  0.87380  0.84073  1.0000
  Fe  Fe249     1.0  0.76147  0.91484  0.82810  1.0000
  S   S497      1.0  0.75974  0.94392  0.81969  1.0000
  Fe  Fe250     1.0  0.76229  0.88122  0.81701  1.0000
  S   S498      1.0  0.76117  0.86693  0.79708  1.0000
  S   S499      1.0  0.76961  0.90053  0.85293  1.0000
  S   S500      1.0  0.77094  0.86456  0.84074  1.0000
  Fe  Fe251     1.0  0.99327  0.81464  0.83365  1.0000
  S   S501      1.0  0.75631  0.77404  0.82361  1.0000
  S   S502      1.0  0.73935  0.77429  0.79037  1.0000
  Fe  Fe252     1.0  0.76485  0.76411  0.79903  1.0000
  Fe  Fe253     1.0  0.73053  0.78265  0.81613  1.0000
  S   S503      1.0  0.71629  0.80850  0.82268  1.0000
  S   S504      1.0  0.72142  0.75798  0.83022  1.0000
  S   S505      1.0  0.78989  0.97896  0.86360  1.0000
  H   H1943     1.0  0.80736  0.75710  0.85193  1.0000
  C   C1208     1.0  0.74794  0.85134  0.80392  1.0000
  C   C1209     1.0  0.73482  0.85144  0.81880  1.0000
  C   C1210     1.0  0.72467  0.83867  0.82402  1.0000
  C   C1211     1.0  0.72828  0.82514  0.81506  1.0000
  C   C1212     1.0  0.74151  0.82496  0.80030  1.0000
  C   C1213     1.0  0.75094  0.83832  0.79446  1.0000
  H   H1944     1.0  0.73220  0.86162  0.82600  1.0000
  H   H1945     1.0  0.71409  0.83913  0.83512  1.0000
  H   H1946     1.0  0.74418  0.81475  0.79312  1.0000
  H   H1947     1.0  0.76072  0.83842  0.78268  1.0000
  C   C1214     1.0  0.78063  0.97015  0.85136  1.0000
  H   H1948     1.0  0.89882  0.81692  0.79121  1.0000
  C   C1215     1.0  0.77365  0.96938  0.82436  1.0000
  C   C1216     1.0  0.76705  0.95430  0.83221  1.0000
  C   C1217     1.0  0.76686  0.94748  0.84976  1.0000
  C   C1218     1.0  0.77379  0.95526  0.85924  1.0000
  H   H1949     1.0  0.78584  0.98871  0.82769  1.0000
  H   H1950     1.0  0.76144  0.93612  0.85604  1.0000
  H   H1951     1.0  0.77387  0.94966  0.87274  1.0000
  C   C1219     1.0  0.84891  0.83766  0.80520  1.0000
  C   C1220     1.0  0.85094  0.83510  0.82222  1.0000
  C   C1221     1.0  0.84087  0.84643  0.83292  1.0000
  C   C1222     1.0  0.82823  0.86002  0.82689  1.0000
  C   C1223     1.0  0.82594  0.86254  0.80992  1.0000
  C   C1224     1.0  0.83655  0.85154  0.79895  1.0000
  H   H1952     1.0  0.86026  0.82439  0.82727  1.0000
  H   H1953     1.0  0.84260  0.84439  0.84607  1.0000
  H   H1954     1.0  0.81618  0.87306  0.80519  1.0000
  H   H1955     1.0  0.83494  0.85356  0.78578  1.0000
  H   H1956     1.0  0.74010  0.84491  0.96880  1.0000
  C   C1225     1.0  0.80185  0.75452  0.86609  1.0000
  C   C1226     1.0  0.91539  0.77606  0.86369  1.0000
  H   H1957     1.0  0.82639  0.76373  0.87780  1.0000
  C   C1227     1.0  0.95859  0.80360  0.82169  1.0000
  C   C1228     1.0  0.94262  0.80907  0.81662  1.0000
  C   C1229     1.0  0.93428  0.79713  0.81407  1.0000
  C   C1230     1.0  0.94179  0.77957  0.81653  1.0000
  C   C1231     1.0  0.95812  0.77408  0.82100  1.0000
  C   C1232     1.0  0.96651  0.78608  0.82365  1.0000
  H   H1958     1.0  0.93651  0.82262  0.81499  1.0000
  H   H1959     1.0  0.92207  0.80160  0.81013  1.0000
  H   H1960     1.0  0.96410  0.76050  0.82280  1.0000
  H   H1961     1.0  0.97887  0.78177  0.82756  1.0000
  C   C1233     1.0  0.77019  0.83856  0.91503  1.0000
  C   C1234     1.0  0.75276  0.83733  0.91864  1.0000
  C   C1235     1.0  0.74167  0.84826  0.90803  1.0000
  C   C1236     1.0  0.74816  0.85987  0.89343  1.0000
  C   C1237     1.0  0.76565  0.86081  0.88970  1.0000
  C   C1238     1.0  0.77656  0.85043  0.90067  1.0000
  H   H1962     1.0  0.74777  0.82816  0.92971  1.0000
  H   H1963     1.0  0.72814  0.84750  0.91097  1.0000
  H   H1964     1.0  0.77085  0.86956  0.87840  1.0000
  H   H1965     1.0  0.79006  0.85134  0.89779  1.0000
  C   C1239     1.0  0.83452  0.75731  0.91548  1.0000
  C   C1240     1.0  0.82970  0.77527  0.91357  1.0000
  C   C1241     1.0  0.83970  0.78593  0.90098  1.0000
  H   H1966     1.0  0.82981  0.94621  0.80470  1.0000
  H   H1967     1.0  0.81822  0.78106  0.92176  1.0000
  H   H1968     1.0  0.83582  0.79984  0.89952  1.0000
  H   H1969     1.0  0.83605  0.92318  0.83972  1.0000
  C   C1242     1.0  0.73289  0.76671  0.89356  1.0000
  C   C1243     1.0  0.73700  0.75861  0.87929  1.0000
  H   H1970     1.0  0.72160  0.77695  0.89496  1.0000
  Fe  Fe254     1.0  0.73231  0.74848  0.80499  1.0000
  H   H1971     1.0  0.82641  0.80480  0.79527  1.0000
  H   H1972     1.0  0.80660  0.94917  0.81018  1.0000
  N   N121      1.0  0.91721  0.79072  0.87026  1.0000
  C   C1244     1.0  0.75729  0.74773  0.90459  1.0000
  H   H1973     1.0  0.70718  0.75047  0.76905  1.0000
  H   H1974     1.0  0.91588  0.80850  0.84602  1.0000
  C   C1245     1.0  0.93575  0.79026  0.86883  1.0000
  H   H1975     1.0  0.89130  0.82113  0.75573  1.0000
  H   H1976     1.0  0.81108  0.97917  0.90125  1.0000
  H   H1977     1.0  0.93669  0.82297  0.75533  1.0000
  H   H1978     1.0  0.89410  0.78977  0.89006  1.0000
  H   H1979     1.0  0.91083  0.81851  0.86439  1.0000
  H   H1980     1.0  0.94201  0.77810  0.87654  1.0000
  C   C1246     1.0  0.90951  0.80717  0.85993  1.0000
  H   H1981     1.0  0.78452  0.96795  0.90593  1.0000
  H   H1982     1.0  0.90382  0.80056  0.75125  1.0000
  H   H1983     1.0  0.92187  0.77673  0.84985  1.0000
  H   H1984     1.0  0.77389  0.97468  0.81076  1.0000
  H   H1985     1.0  0.94294  0.79105  0.85519  1.0000
  H   H1986     1.0  0.73796  0.98642  0.83642  1.0000
  H   H1987     1.0  0.74103  0.81779  0.89925  1.0000
  H   H1988     1.0  0.91602  0.78843  0.78608  1.0000
  H   H1989     1.0  0.90156  0.77593  0.86470  1.0000
  H   H1990     1.0  0.93769  0.80132  0.87333  1.0000
  H   H1991     1.0  0.82393  0.77880  0.77860  1.0000
  C   C1247     1.0  0.82228  0.76914  0.79038  1.0000
  S   S506      1.0  0.79079  0.76964  0.78362  1.0000
  H   H1992     1.0  0.92892  0.78616  0.76515  1.0000
  H   H1993     1.0  0.91836  0.83307  0.74541  1.0000
  H   H1994     1.0  0.77299  0.98918  0.89876  1.0000
  H   H1995     1.0  0.72315  0.80124  0.86987  1.0000
  C   C1248     1.0  0.82988  0.75178  0.87235  1.0000
  S   S507      1.0  0.77217  0.75185  0.95579  1.0000
  H   H1996     1.0  0.72904  0.76282  0.86964  1.0000
  H   H1997     1.0  0.75163  0.83312  0.85174  1.0000
  H   H1998     1.0  0.89972  0.83565  0.77437  1.0000
  H   H1999     1.0  0.75425  0.83541  0.87216  1.0000
  H   H2000     1.0  0.84664  0.76930  0.79624  1.0000
  N   N122      1.0  0.81996  0.92461  0.82204  1.0000
  C   C1249     1.0  0.80487  0.92165  0.83612  1.0000
  C   C1250     1.0  0.82020  0.91611  0.80793  1.0000
  C   C1251     1.0  0.83598  0.91727  0.82883  1.0000
  C   C1252     1.0  0.81864  0.94340  0.81534  1.0000
  H   H2001     1.0  0.80327  0.92917  0.84626  1.0000
  H   H2002     1.0  0.80611  0.90786  0.84267  1.0000
  H   H2003     1.0  0.79275  0.92529  0.83108  1.0000
  H   H2004     1.0  0.82086  0.90196  0.81263  1.0000
  H   H2005     1.0  0.80831  0.92141  0.80245  1.0000
  H   H2006     1.0  0.83155  0.91786  0.79717  1.0000
  H   H2007     1.0  0.84768  0.91937  0.81863  1.0000
  H   H2008     1.0  0.83728  0.90304  0.83383  1.0000
  Fe  Fe255     1.0  0.77017  0.77259  0.97058  1.0000
  C   C1253     1.0  0.85432  0.77868  0.88994  1.0000
  H   H2009     1.0  0.79971  0.97992  0.93998  1.0000
  C   C1254     1.0  0.90816  0.78940  0.88857  1.0000
  H   H2010     1.0  0.80695  0.84269  0.79393  1.0000
  H   H2011     1.0  0.90924  0.80026  0.89395  1.0000
  C   C1255     1.0  0.84961  0.74999  0.90495  1.0000
  H   H2012     1.0  0.76501  0.74339  0.91444  1.0000
  C   C1256     1.0  0.79219  0.80588  0.79924  1.0000
  C   C1257     1.0  0.81775  0.80862  0.80724  1.0000
  C   C1258     1.0  0.78125  0.82461  0.97228  1.0000
  N   N123      1.0  0.80034  0.81767  0.80423  1.0000
  H   H2013     1.0  0.77872  0.81184  0.79771  1.0000
  C   C1259     1.0  0.74317  0.76153  0.90610  1.0000
  S   S508      1.0  0.73765  0.77225  0.92368  1.0000
  S   S509      1.0  0.88497  0.75766  0.84341  1.0000
  S   S510      1.0  0.86598  0.79228  0.87358  1.0000
  C   C1260     1.0  0.80182  0.83305  0.79019  1.0000
  H   H2014     1.0  0.79394  0.74379  0.81482  1.0000
  C   C1261     1.0  0.79195  0.97477  0.93373  1.0000
  C   C1262     1.0  0.85936  0.76070  0.89194  1.0000
  C   C1263     1.0  0.75260  0.82601  0.86515  1.0000
  H   H2015     1.0  0.92121  0.76343  0.87104  1.0000
  H   H2016     1.0  0.75367  0.82767  0.95870  1.0000
  C   C1264     1.0  0.78959  0.82314  0.82023  1.0000
  H   H2017     1.0  0.89066  0.80214  0.77228  1.0000
  S   S511      1.0  0.82106  0.74411  0.93014  1.0000
  H   H2018     1.0  0.82409  0.81697  0.81150  1.0000
  C   C1265     1.0  0.92406  0.79512  0.77438  1.0000
  H   H2019     1.0  0.79549  0.83194  0.82442  1.0000
  H   H2020     1.0  0.87079  0.75505  0.88354  1.0000
  H   H2021     1.0  0.77648  0.83031  0.81825  1.0000
  H   H2022     1.0  0.79162  0.79369  0.80907  1.0000
  H   H2023     1.0  0.83505  0.75549  0.85825  1.0000
  H   H2024     1.0  0.84069  0.74298  0.87804  1.0000
  C   C1266     1.0  0.80727  0.76210  0.79566  1.0000
  N   N124      1.0  0.91411  0.81183  0.76669  1.0000
  H   H2025     1.0  0.78797  0.81184  0.83102  1.0000
  H   H2026     1.0  0.93076  0.81233  0.74154  1.0000
  C   C1267     1.0  0.92548  0.82044  0.75156  1.0000
  H   H2027     1.0  0.70956  0.82757  0.88080  1.0000
  C   C1268     1.0  0.83515  0.76375  0.80034  1.0000
  H   H2028     1.0  0.72234  0.84161  0.88292  1.0000
  C   C1269     1.0  0.78039  0.97734  0.83392  1.0000
  Fe  Fe256     1.0  0.74817  0.74883  0.83564  1.0000
  H   H2029     1.0  0.73441  0.81285  0.85048  1.0000
  C   C1270     1.0  0.90750  0.82300  0.77965  1.0000
  C   C1271     1.0  0.72163  0.83268  0.87492  1.0000
  H   H2030     1.0  0.72033  0.84062  0.86190  1.0000
  H   H2031     1.0  0.78186  0.81304  0.96710  1.0000
  H   H2032     1.0  0.74624  0.79527  0.86369  1.0000
  C   C1272     1.0  0.73517  0.80647  0.86407  1.0000
  H   H2033     1.0  0.75010  0.79814  0.89146  1.0000
  H   H2034     1.0  0.72716  0.80407  0.89888  1.0000
  H   H2035     1.0  0.91821  0.82561  0.78416  1.0000
  C   C1273     1.0  0.77689  0.98000  0.91038  1.0000
  H   H2036     1.0  0.93548  0.79683  0.77843  1.0000
  C   C1274     1.0  0.89938  0.80878  0.76118  1.0000
  C   C1275     1.0  0.73893  0.80926  0.89160  1.0000
  N   N125      1.0  0.73708  0.81860  0.87393  1.0000
  H   H2037     1.0  0.91353  0.77708  0.89674  1.0000
  C   C1276     1.0  0.80540  0.74937  0.81071  1.0000
  H   H2038     1.0  0.79986  0.96240  0.93022  1.0000
  H   H2039     1.0  0.76005  0.84803  0.95376  1.0000
  H   H2040     1.0  0.79693  0.76716  0.87024  1.0000
  H   H2041     1.0  0.78787  0.83365  0.96150  1.0000
  C   C1277     1.0  0.83345  0.75070  0.81516  1.0000
  H   H2042     1.0  0.69153  0.74515  0.74900  1.0000
  H   H2043     1.0  0.79057  0.74838  0.86802  1.0000
  H   H2044     1.0  0.80301  0.75290  0.89931  1.0000
  H   H2045     1.0  0.76936  0.85738  0.97631  1.0000
  H   H2046     1.0  0.76490  0.97689  0.91957  1.0000
  N   N126      1.0  0.81493  0.74334  0.87585  1.0000
  H   H2047     1.0  0.78032  0.97170  0.94362  1.0000
  C   C1278     1.0  0.75087  0.74458  0.87798  1.0000
  N   N127      1.0  0.78707  0.98732  0.91837  1.0000
  S   S512      1.0  0.84967  0.74320  0.82753  1.0000
  C   C1279     1.0  0.81863  0.74339  0.82017  1.0000
  N   N128      1.0  0.76316  0.83266  0.97883  1.0000
  H   H2048     1.0  0.78891  0.82042  0.98261  1.0000
  C   C1280     1.0  0.80734  0.74053  0.89457  1.0000
