data_image0
_chemical_formula_structural       FeS2FeS2FeSFeS3FeS2FeS2FeSFeS3FeS2FeS2FeSFeS3FeS2FeS2FeSFeS3FeS2FeS2FeSFeS3FeS2FeS2FeSFeS3C6H4C6H4C6H4C6H4C6H4C6H4C6H4C6H4C6H4C6H4C6H4C6H4FeS2FeS2FeSFeS3FeS2FeS2FeSFeS3FeS2FeS2FeSFeS3FeS2FeS2FeSFeS3FeS2FeS2FeSFeS3FeS2FeS2FeSFeS3C6H4C6H4C6H4C6H4C6H4C6H4C6H4C6H4C6H4C6H4C6H4C6H4FeS2FeS2FeSFeS3FeS2FeS2FeSFeS3FeS2FeS2FeSFeS3FeS2FeS2FeSFeS3FeS2FeS2FeSFeS3FeS2FeS2FeSFeS3C6H4C6H4C6H4C6H4C6H4C6H4C6H4C6H4C6H4C6H4C6H4C6H4FeS2FeS2FeSFeS3FeS2FeS2FeSFeS3FeS2FeS2FeSFeS3FeS2FeS2FeSFeS3FeS2FeS2FeSFeS3FeS2FeS2FeSFeS3C6H4C6H4C6H4C6H4C6H4C6H4C6H4C6H4C6H4C6H4C6H4C6H4NC4H12NC4H12NC4H12NC4H12NC4H12NC4H12NC4H12NC4H12NC4H12NC4H12NC4H12NC4H12NC4H12NC4H12NC4H12NC4H12NC4H12NC4H12NC4H12NC4H12NC4H12NC4H12NC4H12NC4H12NC4H12NC4H12NC4H12NC4H12NC4H12NC4H12NC4H12NC4H12NC4H12NC4H12NC4H12NC4H12NC4H12NC4H12NC4H12NC4H12NC4H12NC4H12NC4H12NC4H12NC4H12NC4H12NC4H12NC4H12
_chemical_formula_sum              "Fe96 S192 C480 H768 N48"
_cell_length_a       36.57757778077181
_cell_length_b       38.156837973080336
_cell_length_c       32.67241683886451
_cell_angle_alpha    90.10964517068695
_cell_angle_beta     89.13176240722109
_cell_angle_gamma    90.45173591686296

_space_group_name_H-M_alt    "P 1"
_space_group_IT_number       1

loop_
  _space_group_symop_operation_xyz
  'x, y, z'

loop_
  _atom_site_type_symbol
  _atom_site_label
  _atom_site_symmetry_multiplicity
  _atom_site_fract_x
  _atom_site_fract_y
  _atom_site_fract_z
  _atom_site_occupancy
  Fe  Fe1       1.0  0.1403444806621339  0.1353988555609659  0.2118404337928977  1.0000
  S   S1        1.0  0.0974895582455173  0.6069163934899313  0.4426354972636854  1.0000
  S   S2        1.0  0.13957527626270563  0.18993498670992034  0.18687889151208342  1.0000
  Fe  Fe2       1.0  0.5148570539989139  0.10927699165329904  0.359306364668325  1.0000
  S   S3        1.0  0.6588458066275216  0.5761568441412762  0.3075856101289608  1.0000
  S   S4        1.0  0.46250965697398166  0.12282504532739727  0.3923539892437893  1.0000
  Fe  Fe3       1.0  0.07720313659034406  0.6121342795923661  0.5074866760390867  1.0000
  S   S5        1.0  0.1114667689924498  0.6032186667704325  0.5627249434432382  1.0000
  Fe  Fe4       1.0  0.6470914647715964  0.6045976149689662  0.2491573483586258  1.0000
  S   S6        1.0  0.6486990708283356  0.5826092607419271  0.18527321336819175  1.0000
  S   S7        1.0  0.12984623996996297  0.11950201433519536  0.27702965302306265  1.0000
  S   S8        1.0  0.5172238215761767  0.08742543058077723  0.29551692047660616  1.0000
  Fe  Fe5       1.0  0.22177839947571562  0.2749412278042008  0.965217553149327  1.0000
  S   S9        1.0  0.25334356308408473  0.26983813288247543  0.9061860296307465  1.0000
  S   S10       1.0  0.17837766368362418  0.3160112817285548  0.9713137663542675  1.0000
  Fe  Fe6       1.0  0.2668899119616343  0.22124443253767045  0.008300508253233252  1.0000
  S   S11       1.0  0.3028046595993361  0.21099164005118487  0.95339198141146  1.0000
  S   S12       1.0  0.2773882291580179  0.1953863985848019  0.06882566599571271  1.0000
  Fe  Fe7       1.0  0.3029396626758794  0.26917918597159113  0.9454293762580535  1.0000
  S   S13       1.0  0.35353719074344414  0.29814349273877383  0.9242688656985641  1.0000
  Fe  Fe8       1.0  0.2506961068092712  0.2121169127869212  0.9181073332609847  1.0000
  S   S14       1.0  0.2450096350944457  0.17470975029059652  0.8651041732182025  1.0000
  S   S15       1.0  0.27175224606742865  0.27970788316678363  0.0035915815857996414  1.0000
  S   S16       1.0  0.21435992168218954  0.21695995561904358  0.9739070158503457  1.0000
  Fe  Fe9       1.0  0.5567239105133934  0.41916472791015874  0.11135465008346847  1.0000
  S   S17       1.0  0.5041370782626141  0.43584036775793467  0.08349883587657381  1.0000
  S   S18       1.0  0.5760071068304011  0.432300062811896  0.17447562158777757  1.0000
  Fe  Fe10      1.0  0.5797073345707139  0.37611830764301857  0.03800236007984936  1.0000
  S   S19       1.0  0.5297250510275217  0.3890413181499971  0.0019027713781973876  1.0000
  S   S20       1.0  0.6261930222216399  0.3402411004327677  0.021630996258394264  1.0000
  Fe  Fe11      1.0  0.5383817544186292  0.4435901706644813  0.02646151987184253  1.0000
  S   S21       1.0  0.5313517916782003  0.49378826877952237  0.9919933461396881  1.0000
  Fe  Fe12      1.0  0.499174702003438  0.38031371548911624  0.061416621660754345  1.0000
  S   S22       1.0  0.44998629402026474  0.3457701478582194  0.07327573651438235  1.0000
  S   S23       1.0  0.5914940368509146  0.4316744378926289  0.05626589472478449  1.0000
  S   S24       1.0  0.5483781314300938  0.36274066265225  0.09514986443964643  1.0000
  Fe  Fe13      1.0  0.5448994927258378  0.15667931841563312  0.9328227140242623  1.0000
  S   S25       1.0  0.6105379422264208  0.5878553329500671  0.7779691667719757  1.0000
  S   S26       1.0  0.5054325970801153  0.1901576012927996  0.8991509822254143  1.0000
  Fe  Fe14      1.0  0.06925698180972462  0.10053529914491323  0.7770070877153682  1.0000
  S   S27       1.0  0.1801888478842257  0.6207733194731567  0.9267681716085358  1.0000
  S   S28       1.0  0.08017366298922801  0.13298432189674542  0.8329407775528442  1.0000
  Fe  Fe15      1.0  0.17245815202092385  0.5893197632294599  0.8696537535355203  1.0000
  S   S29       1.0  0.20394862189385762  0.5391228727398995  0.8642457114605402  1.0000
  Fe  Fe16      1.0  0.6370446837956331  0.5929623502738887  0.8389531443901801  1.0000
  S   S30       1.0  0.6548260979302705  0.5426315544911364  0.8681079227225476  1.0000
  S   S31       1.0  0.061798623828522636  0.12428301989705362  0.7150670256301487  1.0000
  S   S32       1.0  0.5311786969166398  0.1369510764098912  0.9955445347697944  1.0000
  Fe  Fe17      1.0  0.22374906786241147  0.44282351321400026  0.5997981140380028  1.0000
  S   S33       1.0  0.22448757778329326  0.47429277820183025  0.6574646519565178  1.0000
  S   S34       1.0  0.20033607919274618  0.4633077444314221  0.5413882562107194  1.0000
  Fe  Fe18      1.0  0.25281594723937295  0.37797313576211844  0.6421240956080961  1.0000
  S   S35       1.0  0.2560645326228693  0.4045494476653993  0.7035279443278889  1.0000
  S   S36       1.0  0.2624425832458971  0.3209509688914447  0.6286412677198049  1.0000
  Fe  Fe19      1.0  0.20129892203945723  0.4264993554450604  0.6874434075392252  1.0000
  S   S37       1.0  0.15129716802906137  0.4364860196052082  0.7259886156035966  1.0000
  Fe  Fe20      1.0  0.27891493076587104  0.44993581366588276  0.6670388279048024  1.0000
  S   S38       1.0  0.3232660777965215  0.4871882793562181  0.6865327116299522  1.0000
  S   S39       1.0  0.19630609157549678  0.39658660942760354  0.6290695520678029  1.0000
  S   S40       1.0  0.28025540539877275  0.42146438826232824  0.6067136010785623  1.0000
  Fe  Fe21      1.0  0.458278189275915  0.15723278106022096  0.6181669335654507  1.0000
  S   S41       1.0  0.43355455916890057  0.10572985398155703  0.6369317795129378  1.0000
  S   S42       1.0  0.5053797053356325  0.15961437853057964  0.5738636976211029  1.0000
  Fe  Fe22      1.0  0.4110855734059183  0.19911115554338896  0.6767359769821637  1.0000
  S   S43       1.0  0.3812903404723434  0.15163556180974155  0.7000673018599844  1.0000
  S   S44       1.0  0.4008949771429141  0.2518434197712757  0.704953755804924  1.0000
  Fe  Fe23      1.0  0.436538362657358  0.12714411144660664  0.7006533171295017  1.0000
  S   S45       1.0  0.45384417639029667  0.09490876668595857  0.75399601997318  1.0000
  Fe  Fe24      1.0  0.3808232918403095  0.1348999331392018  0.6342550221310863  1.0000
  S   S46       1.0  0.3298649475149469  0.10985809088492511  0.6106175385582994  1.0000
  S   S47       1.0  0.466804864912971  0.17588026106321392  0.6822506128370263  1.0000
  S   S48       1.0  0.4051082882228722  0.18521116738222249  0.6103492343637202  1.0000
  C   C1        1.0  0.29777912386820077  0.30098276816610464  0.6554276545158904  1.0000
  C   C2        1.0  0.32121866660465054  0.3207555577721413  0.6799638569222988  1.0000
  C   C3        1.0  0.3521727596528048  0.3050954126127322  0.6967239149630666  1.0000
  C   C4        1.0  0.3597855132293164  0.26981381487746864  0.6886334287925953  1.0000
  C   C5        1.0  0.3355961051954142  0.24971250989633853  0.6654231212006955  1.0000
  C   C6        1.0  0.3045519745209848  0.2652919713956619  0.6489388235296525  1.0000
  H   H1        1.0  0.3161285542738978  0.34832762279172275  0.6850106831557409  1.0000
  H   H2        1.0  0.37088608402800366  0.3206526948684157  0.7147334160490628  1.0000
  H   H3        1.0  0.3412839742840949  0.22240965884089606  0.6592699676405496  1.0000
  H   H4        1.0  0.2863837796581469  0.24995348085614255  0.6300106793126691  1.0000
  C   C7        1.0  0.3318730115467019  0.5182199219096566  0.6477972412606089  1.0000
  C   C8        1.0  0.31154972337067555  0.5174679828086165  0.6118959115646104  1.0000
  C   C9        1.0  0.3118020214039015  0.045414131224050136  0.5804176681863256  1.0000
  C   C10       1.0  0.33784274580464446  0.07245356697445082  0.5802996187204391  1.0000
  C   C11       1.0  0.3692073455472529  0.06964740273134917  0.555348791795172  1.0000
  C   C12       1.0  0.3581082036046824  0.5446956757680881  0.6533380599709563  1.0000
  H   H5        1.0  0.291157067912283  0.4973168198522358  0.6073187800529294  1.0000
  H   H6        1.0  0.28782868599841166  0.04703332330917109  0.6000985982330596  1.0000
  H   H7        1.0  0.3893977693719235  0.09050475265782887  0.5550800099180042  1.0000
  H   H8        1.0  0.3737711909265973  0.5455232312079921  0.6811563778332628  1.0000
  C   C13       1.0  0.18757062291573087  0.509485096691806  0.8278970044543915  1.0000
  C   C14       1.0  0.2107749344982284  0.48309415352907326  0.813553514553061  1.0000
  C   C15       1.0  0.19956602752008606  0.4607588608113543  0.7821161335633873  1.0000
  C   C16       1.0  0.1645488853865934  0.4638131760355228  0.7661134221559498  1.0000
  C   C17       1.0  0.14073713191010304  0.48937211351890797  0.7814401222793329  1.0000
  C   C18       1.0  0.1524711859498328  0.5126067955073154  0.8119763285630085  1.0000
  H   H9        1.0  0.23782365419352985  0.4803833887267187  0.8261052006528703  1.0000
  H   H10       1.0  0.21787628533178968  0.4407944252047309  0.7706958542077039  1.0000
  H   H11       1.0  0.11362231248257293  0.49179559471002665  0.7690120720727974  1.0000
  H   H12       1.0  0.13441052440622905  0.5329030490507062  0.8230559753861717  1.0000
  C   C19       1.0  0.48503611865946505  0.16396990871746242  0.8616361247313199  1.0000
  C   C20       1.0  0.4852301426297625  0.12748577110977263  0.8654558523887342  1.0000
  C   C21       1.0  0.4739125058878479  0.10625436105293408  0.8329523641161679  1.0000
  C   C22       1.0  0.4616963744081857  0.12149418456227441  0.7968397147451409  1.0000
  C   C23       1.0  0.45891704988770926  0.15800961197307864  0.7941596954877146  1.0000
  C   C24       1.0  0.47081623634516534  0.17927998971844644  0.8264839913130811  1.0000
  H   H13       1.0  0.49426448990847005  0.11553982894134769  0.8934185734350334  1.0000
  H   H14       1.0  0.4752690917399344  0.07802242441189744  0.8355440972963115  1.0000
  H   H15       1.0  0.44878703979956824  0.16996083845056562  0.7667218034461283  1.0000
  H   H16       1.0  0.47041402800438387  0.20750826440125655  0.8235437475529934  1.0000
  C   C25       1.0  0.5695969639916204  0.5068345218777613  0.9626928391564644  1.0000
  C   C26       1.0  0.575251131944261  0.5425360103848931  0.9552038230263766  1.0000
  C   C27       1.0  0.602614969214748  0.5536036797566395  0.9276389296390309  1.0000
  C   C28       1.0  0.6242139994642719  0.5290279866152725  0.9070093861821173  1.0000
  C   C29       1.0  0.6197610710564073  0.49329258311477275  0.9159014874913173  1.0000
  C   C30       1.0  0.5924344814286593  0.48216044549073817  0.9438242760500164  1.0000
  H   H17       1.0  0.5582244569923661  0.5617041165037971  0.9705834630293643  1.0000
  H   H18       1.0  0.6070338191084105  0.5811952674485735  0.92255280651951  1.0000
  H   H19       1.0  0.6366110481449311  0.4741631025893013  0.9002526889692047  1.0000
  H   H20       1.0  0.5881638127756394  0.45450376538038034  0.9496057582882491  1.0000
  C   C31       1.0  0.37980599250863156  0.3122302179089018  0.96570061129618  1.0000
  C   C32       1.0  0.37343448250038813  0.29825124634973893  0.004694958966082075  1.0000
  C   C33       1.0  0.394756210356713  0.3093024651080752  0.03763705708500198  1.0000
  C   C34       1.0  0.4225231961647372  0.3343352281768882  0.031733817369687944  1.0000
  C   C35       1.0  0.42893528498402883  0.3484048486556477  0.992748054165756  1.0000
  C   C36       1.0  0.40768764642175703  0.3371831085743274  0.9596768482547002  1.0000
  H   H21       1.0  0.3524414152693967  0.27851629807468675  0.009383910678545604  1.0000
  H   H22       1.0  0.389953185470534  0.29817335057317235  0.06769601815848869  1.0000
  H   H23       1.0  0.4501451491187158  0.36793836257190893  0.9880926717490666  1.0000
  H   H24       1.0  0.4125894163346698  0.34807661648836  0.9295213456460468  1.0000
  C   C37       1.0  0.15953966616112686  0.3210214257541878  0.02069326642891034  1.0000
  C   C38       1.0  0.15858880454676122  0.293318339273476  0.04873786645543743  1.0000
  C   C39       1.0  0.6916593903001846  0.32907825403281926  0.05979076048922183  1.0000
  C   C40       1.0  0.6571621524948152  0.3445678289015254  0.062063883586846114  1.0000
  C   C41       1.0  0.6475676413754695  0.3641566877269141  0.09680127482344814  1.0000
  C   C42       1.0  0.14592448499127894  0.3537320671565677  0.03234402376005274  1.0000
  H   H25       1.0  0.16849757104395663  0.26782462994504563  0.03959233303655507  1.0000
  H   H26       1.0  0.6996133847187952  0.31408869172117415  0.03323847052530504  1.0000
  H   H27       1.0  0.6212515308582371  0.37613009351329874  0.09948201567387316  1.0000
  H   H28       1.0  0.14635068075317914  0.37515304498363383  0.01082888407870164  1.0000
  C   C43       1.0  0.12604628209199398  0.14515715854213898  0.8402602351976778  1.0000
  C   C44       1.0  0.15425875200648975  0.1311922422327002  0.8159699895475204  1.0000
  C   C45       1.0  0.19081585967524542  0.14030835697906008  0.8237053289407775  1.0000
  C   C46       1.0  0.19916368754500166  0.16382868695042738  0.8552845897241923  1.0000
  C   C47       1.0  0.17087006752697392  0.17827314568585703  0.8789015418166357  1.0000
  C   C48       1.0  0.13445678912893258  0.16867789063152572  0.8716978030178332  1.0000
  H   H29       1.0  0.148007173244419  0.1132778619525148  0.79146486131071  1.0000
  H   H30       1.0  0.21263652500346317  0.12905366071590949  0.8054121654517465  1.0000
  H   H31       1.0  0.17689800498905064  0.1969749435734742  0.9026598960920131  1.0000
  H   H32       1.0  0.11273324058992398  0.17979296933094588  0.8903310364261925  1.0000
  C   C49       1.0  0.4734697422353608  0.13503907430467593  0.4425238143620384  1.0000
  C   C50       1.0  0.5096841945714545  0.14314984952242835  0.4521248456076212  1.0000
  C   C51       1.0  0.5189935908286843  0.15181295085877622  0.4922875346481181  1.0000
  C   C52       1.0  0.4922381361899349  0.15181797450190804  0.5232689220498594  1.0000
  C   C53       1.0  0.455916176239675  0.1436385122861715  0.5138856713811784  1.0000
  C   C54       1.0  0.4464836415531521  0.13547730907060157  0.4734136552852191  1.0000
  H   H33       1.0  0.5307046779931714  0.14274096756137733  0.428669980565451  1.0000
  H   H34       1.0  0.5471277028678435  0.15800687043290487  0.49939881291611365  1.0000
  H   H35       1.0  0.43516347700866587  0.14329549870558142  0.5377940199925284  1.0000
  H   H36       1.0  0.4184475292392813  0.1290803593173487  0.466219150069721  1.0000
  C   C55       1.0  0.13556057526509308  0.5640996818607029  0.5570828096260628  1.0000
  C   C56       1.0  0.1279452229321707  0.5411670243351132  0.5248125107878053  1.0000
  C   C57       1.0  0.1483087876920972  0.5104275446074907  0.5197928520510209  1.0000
  C   C58       1.0  0.17604332043557275  0.5024383093837987  0.5472287733915123  1.0000
  C   C59       1.0  0.18384002311077924  0.5256513926534021  0.5791310194698802  1.0000
  C   C60       1.0  0.1634512643014159  0.5563049460223114  0.5842872542764446  1.0000
  H   H37       1.0  0.10645157023101404  0.5470926272960074  0.5035915203684551  1.0000
  H   H38       1.0  0.14242761254414718  0.4927488418281734  0.4947256184339164  1.0000
  H   H39       1.0  0.2063685497101751  0.5206925228202106  0.5990111643485868  1.0000
  H   H40       1.0  0.16971708097968582  0.5742686093718645  0.6089224547857144  1.0000
  C   C61       1.0  0.6251254086132528  0.5423120368279098  0.1832842854972958  1.0000
  C   C62       1.0  0.6226189562631219  0.5208751677049022  0.21789894485614347  1.0000
  C   C63       1.0  0.6064969293827027  0.48748800052837754  0.2152936935395339  1.0000
  C   C64       1.0  0.5924050441394836  0.4755458002261499  0.17817219668728995  1.0000
  C   C65       1.0  0.5937252857299123  0.49744656298643714  0.14385115438979054  1.0000
  C   C66       1.0  0.6102620188725936  0.5307112044368788  0.14635352847310443  1.0000
  H   H41       1.0  0.6339745767088157  0.5295034616290654  0.24646800554662596  1.0000
  H   H42       1.0  0.605407078928336  0.4707001764047751  0.24194535006017726  1.0000
  H   H43       1.0  0.5822221834477123  0.48872286117770186  0.11529067613702107  1.0000
  H   H44       1.0  0.6116322063796332  0.5473603863595802  0.11959291562863786  1.0000
  C   C67       1.0  0.23944856859199556  0.1964945117496933  0.10225829729724235  1.0000
  C   C68       1.0  0.24327337090821446  0.18597142832785812  0.14294765607032764  1.0000
  C   C69       1.0  0.2127368023942046  0.18500101079248502  0.16938303860019963  1.0000
  C   C70       1.0  0.17831874149583352  0.19446912899700342  0.1551583151216081  1.0000
  C   C71       1.0  0.17466516566713894  0.20583901927226897  0.11480655120299381  1.0000
  C   C72       1.0  0.20523541067897702  0.20688956933030458  0.08843540465772226  1.0000
  H   H45       1.0  0.269764380504189  0.1783191889464201  0.15401145580295572  1.0000
  H   H46       1.0  0.215776735205184  0.17678873777110085  0.2008156829853176  1.0000
  H   H47       1.0  0.14806100292735136  0.2127910203481436  0.10348409569612932  1.0000
  H   H48       1.0  0.20204604471637896  0.2151116251020787  0.05725165431227475  1.0000
  Fe  Fe25      1.0  0.06813170649379718  0.6577257758789568  0.4335533306759627  1.0000
  S   S49       1.0  0.19070253077813143  0.10294371549749637  0.20321502719559917  1.0000
  S   S50       1.0  0.09443498480852686  0.702261272477437  0.39901850141884343  1.0000
  Fe  Fe26      1.0  0.6076146567642765  0.6013850735916225  0.3306917322146739  1.0000
  S   S51       1.0  0.545332912265461  0.06533797355039139  0.38784013354534275  1.0000
  S   S52       1.0  0.5648808311995511  0.5701757321618759  0.3645121877702576  1.0000
  Fe  Fe27      1.0  0.1770708461679729  0.08347437489505571  0.26632023215634526  1.0000
  S   S53       1.0  0.22028259077869677  0.07749730382339814  0.3137323298313793  1.0000
  Fe  Fe28      1.0  0.5510345413918437  0.04542848622162721  0.3236352735096753  1.0000
  S   S54       1.0  0.5381653706823776  0.988695999732618  0.3122258759126174  1.0000
  S   S55       1.0  0.05211507442953711  0.6648413592399026  0.4995327638083094  1.0000
  S   S56       1.0  0.5934950603123705  0.6260093988868762  0.2710226863851446  1.0000
  Fe  Fe29      1.0  0.10203114937055811  0.7674217883710593  0.11277724576656278  1.0000
  S   S57       1.0  0.15822819587198306  0.7910016366207451  0.11686551567496495  1.0000
  S   S58       1.0  0.06297152150625673  0.7861302636996822  0.06513950306340122  1.0000
  Fe  Fe30      1.0  0.11683832878609561  0.7124682707285631  0.17650315700871547  1.0000
  S   S59       1.0  0.17391236023423984  0.7313749312987622  0.18670266241588696  1.0000
  S   S60       1.0  0.09708337633876085  0.6648489788244617  0.21063410522592033  1.0000
  Fe  Fe31      1.0  0.14989358544609765  0.7849949918757526  0.18463489238853503  1.0000
  S   S61       1.0  0.17299139836984684  0.8250799207091642  0.22773837877126996  1.0000
  Fe  Fe32      1.0  0.17753610435937897  0.7356565663170709  0.11867694723909272  1.0000
  S   S62       1.0  0.23076569516082812  0.7191721718322206  0.09021908122484668  1.0000
  S   S63       1.0  0.0917731101532655  0.7659153236455649  0.18075587742736  1.0000
  S   S64       1.0  0.12224454826843037  0.7121068374606311  0.10812406193728119  1.0000
  Fe  Fe33      1.0  0.3679579855365374  0.9656345234401039  0.20286014343558376  1.0000
  S   S65       1.0  0.32862719727692874  0.994606090497401  0.16363183417889693  1.0000
  S   S66       1.0  0.3707492532800422  0.9719937197611366  0.270916964822273  1.0000
  Fe  Fe34      1.0  0.4007962045360873  0.9251884402672825  0.13163846319777872  1.0000
  S   S67       1.0  0.3641276190751007  0.9501669458417269  0.08605045715635007  1.0000
  S   S68       1.0  0.4391329206539236  0.8822017495470288  0.11259066724527123  1.0000
  Fe  Fe35      1.0  0.37612194741928834  0.9997660855156539  0.12007203169069824  1.0000
  S   S69       1.0  0.38619679999923245  0.049382591302113754  0.0851292152297698  1.0000
  Fe  Fe36      1.0  0.3200089213459528  0.9425202188348196  0.13340005036704583  1.0000
  S   S70       1.0  0.2639451443200126  0.9270931976844204  0.11289469797420536  1.0000
  S   S71       1.0  0.4166609537922533  0.9756199814052661  0.16226117758380143  1.0000
  S   S72       1.0  0.35542739057455686  0.9127892186285848  0.17624499418702877  1.0000
  Fe  Fe37      1.0  0.5731628152609608  0.6300458787836202  0.8009464553533329  1.0000
  S   S73       1.0  0.5685468593092129  0.10610739974831795  0.9097193293705333  1.0000
  S   S74       1.0  0.5136322629721899  0.6196587327358423  0.7897083263340536  1.0000
  Fe  Fe38      1.0  0.18638727629042692  0.6665370503998197  0.8847552437510497  1.0000
  S   S75       1.0  0.10653971167005082  0.05789010039886522  0.7551004448993802  1.0000
  S   S76       1.0  0.23109177124823424  0.7047339366880234  0.8981178901086155  1.0000
  Fe  Fe39      1.0  0.09462143561231717  0.07862432253414897  0.6926993168492144  1.0000
  S   S77       1.0  0.13566306950013707  0.08361697967830528  0.6415531447304201  1.0000
  Fe  Fe40      1.0  0.5589866906426891  0.08794695509810246  0.9743037389465937  1.0000
  S   S78       1.0  0.5374700876804506  0.03482230397900854  0.9916966229093297  1.0000
  S   S79       1.0  0.18433233254707404  0.6344024910835468  0.8274572673148298  1.0000
  S   S80       1.0  0.5967549504891744  0.6320261608641247  0.8638447458835224  1.0000
  Fe  Fe41      1.0  0.22592006100411277  0.9294169618881557  0.4593472342417145  1.0000
  S   S81       1.0  0.24492911915852275  0.9698310584304789  0.5039701830788355  1.0000
  S   S82       1.0  0.18445564015546098  0.9399749778661001  0.4114407126104001  1.0000
  Fe  Fe42      1.0  0.26745834015270337  0.8708973561553299  0.49817639332685937  1.0000
  S   S83       1.0  0.2908992995430645  0.9053471772541275  0.5471031707448021  1.0000
  S   S84       1.0  0.26973988004284666  0.8121452473303461  0.4957515683130782  1.0000
  Fe  Fe43      1.0  0.23474963988005554  0.92838540474509  0.5514677540596093  1.0000
  S   S85       1.0  0.2091965767573767  0.9366343757126179  0.613749580412814  1.0000
  Fe  Fe44      1.0  0.2997854221629126  0.9444993023725881  0.4965527996390653  1.0000
  S   S86       1.0  0.3506994576567972  0.9785525100811409  0.49400795088778593  1.0000
  S   S87       1.0  0.21043210670192242  0.8903402790717788  0.5073663511793333  1.0000
  S   S88       1.0  0.28164406385754465  0.9075577280769472  0.44658481489428176  1.0000
  Fe  Fe45      1.0  0.479781027904068  0.6490420066591045  0.547893190387474  1.0000
  S   S89       1.0  0.44305921880200116  0.6345927335593126  0.6007940238304531  1.0000
  S   S90       1.0  0.5374939539637485  0.6305828508085362  0.5408498975369743  1.0000
  Fe  Fe46      1.0  0.4283860922904322  0.7037470065415393  0.5155278113058473  1.0000
  S   S91       1.0  0.3868515212759965  0.694796984575724  0.5656616752093603  1.0000
  S   S92       1.0  0.4250552718340629  0.7460073100649459  0.4682221907858178  1.0000
  Fe  Fe47      1.0  0.4348279033345616  0.6925216638516785  0.6071841770822616  1.0000
  S   S93       1.0  0.4391256733408983  0.7227479286937825  0.6658631834768327  1.0000
  Fe  Fe48      1.0  0.39810185463414316  0.6377505035248783  0.5547444439565353  1.0000
  S   S94       1.0  0.3499525415822269  0.6010324250059205  0.548367145653813  1.0000
  S   S95       1.0  0.47534837249868367  0.7067226009119455  0.5581183687065737  1.0000
  S   S96       1.0  0.43593804688637666  0.6470236621820717  0.5007071295660755  1.0000
  C   C73       1.0  0.31234296983378596  0.794020905833701  0.48382665292371735  1.0000
  C   C74       1.0  0.34172652232371115  0.814941853642715  0.4704155628699016  1.0000
  C   C75       1.0  0.3761823574232349  0.7998276611730704  0.4635572740018709  1.0000
  C   C76       1.0  0.3811981332425162  0.7639943967823257  0.47065074246820504  1.0000
  C   C77       1.0  0.3515852122762707  0.7430919162668622  0.48318571117710957  1.0000
  C   C78       1.0  0.3171704110266435  0.7580519748509266  0.48956275099987184  1.0000
  H   H49       1.0  0.338028344462516  0.8427709439338149  0.46589517222895677  1.0000
  H   H50       1.0  0.39913850781638927  0.816076826881785  0.45402273611304284  1.0000
  H   H51       1.0  0.35520128056005296  0.7153122057589127  0.4879374593619772  1.0000
  H   H52       1.0  0.294401108923786  0.7418441486857115  0.4997366151007465  1.0000
  C   C79       1.0  0.34700527408156834  0.013706865832326942  0.5289583329478994  1.0000
  C   C80       1.0  0.3167370161067711  0.015894339721132855  0.5554423491378081  1.0000
  C   C81       1.0  0.31770830379451437  0.5427351862948004  0.5814668686616185  1.0000
  C   C82       1.0  0.34386606460881586  0.5692546028914746  0.5868897502166333  1.0000
  C   C83       1.0  0.36393988582485554  0.5703208911786248  0.6230171681060638  1.0000
  C   C84       1.0  0.37365648129377427  0.04038745481067996  0.5294687795132693  1.0000
  H   H53       1.0  0.2969812925450631  0.9948323217826832  0.556896569362264  1.0000
  H   H54       1.0  0.3024368517091276  0.5413708780466941  0.5534743493163784  1.0000
  H   H55       1.0  0.38380709722610956  0.590898105593977  0.6277679578398873  1.0000
  H   H56       1.0  0.3973783331124644  0.038763179230288936  0.5094518833318658  1.0000
  C   C85       1.0  0.1575724993665772  0.04354320969358261  0.6338597526583082  1.0000
  C   C86       1.0  0.1676038418946219  0.03303877882944706  0.5942818592756453  1.0000
  C   C87       1.0  0.18427836443915016  0.000494727979035714  0.5879090015852592  1.0000
  C   C88       1.0  0.19201804756480068  0.9789551468083726  0.6212127012734427  1.0000
  C   C89       1.0  0.18312636002184826  0.9901133783454882  0.6609084226035219  1.0000
  C   C90       1.0  0.16550584575393082  0.02215913705602457  0.6671984508933758  1.0000
  H   H57       1.0  0.16154658098379754  0.04958891973210333  0.5684284215908594  1.0000
  H   H58       1.0  0.1899914051877879  0.9917187242748828  0.5571441488625304  1.0000
  H   H59       1.0  0.18945029355088278  0.973729965754283  0.686814115215875  1.0000
  H   H60       1.0  0.15863698298059417  0.030493611476485993  0.697901234340775  1.0000
  C   C91       1.0  0.49154673045686403  0.6496146167764405  0.7579152751318833  1.0000
  C   C92       1.0  0.462156119724065  0.6379454460921135  0.7344186579610801  1.0000
  C   C93       1.0  0.44542139683398696  0.6606880245222683  0.7068826846854261  1.0000
  C   C94       1.0  0.45748085588158743  0.6954366032312873  0.703388899493388  1.0000
  C   C95       1.0  0.4861361061917275  0.7074904361803191  0.727852449216639  1.0000
  C   C96       1.0  0.5034899632765082  0.6844515503726516  0.7547599566166406  1.0000
  H   H61       1.0  0.4527808967977268  0.6110498182953175  0.7368109463446418  1.0000
  H   H62       1.0  0.42310652797623133  0.6513169131719684  0.6883579466828699  1.0000
  H   H63       1.0  0.4954983826411502  0.7343758720817947  0.7252551702492307  1.0000
  H   H64       1.0  0.5258086187887108  0.6937321898076858  0.7733308735440129  1.0000
  C   C97       1.0  0.42672870877814945  0.04430080485736099  0.05645461599300017  1.0000
  C   C98       1.0  0.4383365192987153  0.07032371203938736  0.029029966675195862  1.0000
  C   C99       1.0  0.471532046689586  0.06665102069486051  0.00741614885177877  1.0000
  C   C100      1.0  0.4937508205554966  0.037627228648906774  0.014268882104531144  1.0000
  C   C101      1.0  0.4815604448765594  0.01111576527395064  0.040682731141901796  1.0000
  C   C102      1.0  0.4479611647029423  0.014337571906788193  0.0614359734978811  1.0000
  H   H65       1.0  0.4215123059883016  0.09310374377609798  0.02417247511470988  1.0000
  H   H66       1.0  0.47943423313716715  0.08594307249773125  0.9848620920543245  1.0000
  H   H67       1.0  0.49820264016996657  0.9882684774882154  0.04550288409280623  1.0000
  H   H68       1.0  0.43851141268479354  0.9936456983030191  0.0813737308550162  1.0000
  C   C103      1.0  0.19799960506345918  0.854535181277539  0.1970846119668713  1.0000
  C   C104      1.0  0.18216339719124042  0.8689039461895354  0.16230803300208038  1.0000
  C   C105      1.0  0.2026797976937568  0.8910979664452663  0.1365400195665436  1.0000
  C   C106      1.0  0.23919380531675932  0.8987432599031487  0.1452645793299054  1.0000
  C   C107      1.0  0.2551203901770324  0.8842229020754899  0.17993501058835037  1.0000
  C   C108      1.0  0.2344296544349445  0.8623919449816775  0.20607849262369404  1.0000
  H   H69       1.0  0.1539250925116268  0.8630329483580365  0.1553629571157497  1.0000
  H   H70       1.0  0.19016107167524662  0.9023892248178992  0.10984726542268523  1.0000
  H   H71       1.0  0.2832666764214219  0.8897867201568429  0.186760494726264  1.0000
  H   H72       1.0  0.24687206094303865  0.8508805687993723  0.23266301972782744  1.0000
  C   C109      1.0  0.03505305964968586  0.8213426018856008  0.08022797677780802  1.0000
  C   C110      1.0  0.030955317520579007  0.830855906965549  0.12145063678749426  1.0000
  C   C111      1.0  0.5119950677376288  0.8708921263157746  0.0992821804274106  1.0000
  C   C112      1.0  0.4847775788903341  0.8958199374145578  0.10652388166947868  1.0000
  C   C113      1.0  0.4944039650358579  0.9312391051749704  0.10938213326650326  1.0000
  C   C114      1.0  0.016183290345343604  0.8398973897988596  0.05035789289502657  1.0000
  H   H73       1.0  0.04530323085600019  0.816702595646404  0.14470413584226746  1.0000
  H   H74       1.0  0.5046424093778346  0.8434567025018793  0.09649559505657596  1.0000
  H   H75       1.0  0.4735909628815253  0.9506216162593678  0.11399358374272373  1.0000
  H   H76       1.0  0.01944664348837777  0.833099297467894  0.01841585936893564  1.0000
  C   C115      1.0  0.230647305061072  0.7106081869756038  0.9512546821819762  1.0000
  C   C116      1.0  0.263619801244838  0.7122452644501026  0.9722632324034189  1.0000
  C   C117      1.0  0.2633665781129932  0.7143482136106052  0.015067726730771946  1.0000
  C   C118      1.0  0.23017988821785473  0.7162798531319486  0.03678964837325194  1.0000
  C   C119      1.0  0.19715188862949484  0.7155908096415204  0.015782383821337787  1.0000
  C   C120      1.0  0.19739000685354388  0.7120489070996381  0.9730259156834722  1.0000
  H   H77       1.0  0.28929008955373275  0.7106437884253324  0.955485320348198  1.0000
  H   H78       1.0  0.28892956653181034  0.7144669233882813  0.031280569831316773  1.0000
  H   H79       1.0  0.17145216883569048  0.7171912392926959  0.032405178217192354  1.0000
  H   H80       1.0  0.171877098235621  0.7107430642134644  0.9568152607139485  1.0000
  C   C121      1.0  0.5582173715302128  0.5847637562893491  0.41464581911752685  1.0000
  C   C122      1.0  0.5861356131566525  0.6025954794475612  0.43492394554906194  1.0000
  C   C123      1.0  0.5800479096593879  0.6154115580614241  0.4745518484140722  1.0000
  C   C124      1.0  0.5456522983493074  0.6113852832945572  0.4932615978823427  1.0000
  C   C125      1.0  0.5177985661987212  0.5933096368970138  0.47319466431919804  1.0000
  C   C126      1.0  0.5242689655056362  0.57956383707975  0.4340179021760992  1.0000
  H   H81       1.0  0.6125042496126752  0.6062482413284394  0.42029365294844884  1.0000
  H   H82       1.0  0.601596017845833  0.6293865536383554  0.49018943615861454  1.0000
  H   H83       1.0  0.4913729086834199  0.5896806555658137  0.48795540323808145  1.0000
  H   H84       1.0  0.5027116904496479  0.5655887944342723  0.4183598211683562  1.0000
  C   C127      1.0  0.20861888493960287  0.042979631694817  0.3467430204721522  1.0000
  C   C128      1.0  0.17330861721554994  0.028695871648410032  0.34646932830066623  1.0000
  C   C129      1.0  0.16559457169899028  0.9975231133403456  0.3675556805841184  1.0000
  C   C130      1.0  0.1929345542189438  0.9811873724018172  0.38989709764898617  1.0000
  C   C131      1.0  0.22763561350339667  0.996727286684846  0.3924640090530495  1.0000
  C   C132      1.0  0.23551801192401434  0.027596720275869124  0.37068846798060323  1.0000
  H   H85       1.0  0.1520810633411035  0.04124490512761181  0.3293625731409562  1.0000
  H   H86       1.0  0.1386281322995389  0.9857612745134956  0.36601008202669527  1.0000
  H   H87       1.0  0.24880250673531468  0.9842133329481406  0.409846742408704  1.0000
  H   H88       1.0  0.26270470780070326  0.03889940727345875  0.3713423662685792  1.0000
  C   C133      1.0  0.4914949722431129  0.9845890172031726  0.30132950991674523  1.0000
  C   C134      1.0  0.47615754020655404  0.004879171141760175  0.2704940627900272  1.0000
  C   C135      1.0  0.4390240011983771  0.0010673116384678494  0.26125101452217847  1.0000
  C   C136      1.0  0.4170607196108495  0.9771559057269652  0.28303710401468857  1.0000
  C   C137      1.0  0.4322671713382912  0.957198814793107  0.3142916151031238  1.0000
  C   C138      1.0  0.46957232736355026  0.9605982835812344  0.32308239603226135  1.0000
  H   H89       1.0  0.4930566164088909  0.02311142631390717  0.25325397928597887  1.0000
  H   H90       1.0  0.42725556508743295  0.01699123929398727  0.2375628162282103  1.0000
  H   H91       1.0  0.415399320845254  0.9385926523005387  0.33112150791771583  1.0000
  H   H92       1.0  0.48134629881507246  0.9448834356625802  0.34698596757720856  1.0000
  C   C139      1.0  0.09823435626666965  0.674663894341763  0.2631715352576332  1.0000
  C   C140      1.0  0.08979503551537293  0.6487899011134297  0.2922078594759611  1.0000
  C   C141      1.0  0.0887001216522072  0.6572148040340337  0.33400401664448376  1.0000
  C   C142      1.0  0.09671242603506469  0.6913677599315408  0.34691183221043365  1.0000
  C   C143      1.0  0.10626770003434194  0.7169718257225942  0.31802555432062607  1.0000
  C   C144      1.0  0.10694663616958085  0.7086445953057567  0.27621669864351145  1.0000
  H   H93       1.0  0.08422908859273925  0.6222301345259283  0.2826309838968332  1.0000
  H   H94       1.0  0.08176309818400518  0.6372406041667972  0.35623106542071986  1.0000
  H   H95       1.0  0.1124402203905914  0.7433889570402344  0.32781975759785087  1.0000
  H   H96       1.0  0.11387207250144243  0.7287115405898987  0.2541526030475078  1.0000
  Fe  Fe49      1.0  0.5705661478609758  0.11685833643420644  0.28934967007959234  1.0000
  S   S97       1.0  0.6792046854358879  0.6527441785718031  0.2657572882478647  1.0000
  S   S98       1.0  0.5910400077099122  0.14389682770202103  0.2319765450923772  1.0000
  Fe  Fe50      1.0  0.09682985818757772  0.07577386119405571  0.24978482331651924  1.0000
  S   S99       1.0  0.025219562732489154  0.5826613301058258  0.49701921828321055  1.0000
  S   S100      1.0  0.04401932222840377  0.056699024456138496  0.27758527883019196  1.0000
  Fe  Fe51      1.0  0.6858765760259996  0.6265097464939471  0.32663911762320513  1.0000
  S   S101      1.0  0.7364088001682553  0.6311564293909366  0.364656592611334  1.0000
  Fe  Fe52      1.0  0.04249556749493988  0.5824767594322606  0.4309259410809341  1.0000
  S   S102      1.0  0.027996399554691687  0.5336740114731693  0.39605124708211487  1.0000
  S   S103      1.0  0.5645636711333201  0.1434078767080948  0.35041987642850997  1.0000
  S   S104      1.0  0.10202945096236227  0.09546284130291241  0.18561581772293323  1.0000
  Fe  Fe53      1.0  0.7704497394116568  0.31168317948863017  0.1685680836079877  1.0000
  S   S105      1.0  0.8116759183090302  0.2936941917976105  0.12185006528130304  1.0000
  S   S106      1.0  0.7376451360672768  0.3606254713400528  0.16553882816432486  1.0000
  Fe  Fe54      1.0  0.7711817440911046  0.24373338109175074  0.21660347916269057  1.0000
  S   S107      1.0  0.8131980354809974  0.21951928345329053  0.17488830621512164  1.0000
  S   S108      1.0  0.7430301637288642  0.21722399586142255  0.270140240820809  1.0000
  Fe  Fe55      1.0  0.8406174896709586  0.27243536185396483  0.17639362358875088  1.0000
  S   S109      1.0  0.9016836040895269  0.27743147285809483  0.1806686210906573  1.0000
  Fe  Fe56      1.0  0.7807621068186597  0.24284828109062806  0.12416075559769468  1.0000
  S   S110      1.0  0.7652836843222652  0.21136850980769947  0.06895266585462778  1.0000
  S   S111      1.0  0.8016703242241223  0.2947388610853067  0.22336940390944693  1.0000
  S   S112      1.0  0.7367470654971814  0.26289610454743084  0.16590532409611258  1.0000
  Fe  Fe57      1.0  0.09060452511728645  0.4670920284694933  0.18913666840641705  1.0000
  S   S113      1.0  0.0486807474911668  0.4851740458418995  0.14478908276439428  1.0000
  S   S114      1.0  0.11485245093279262  0.5087298398037635  0.22977237533253697  1.0000
  Fe  Fe58      1.0  0.09143815901006258  0.39301268222959423  0.15403624150898487  1.0000
  S   S115      1.0  0.04863479640152191  0.40497523224225707  0.10794170528736702  1.0000
  S   S116      1.0  0.11683106281419464  0.33941951677956483  0.1510848530438802  1.0000
  Fe  Fe59      1.0  0.08056662004692972  0.45456982893117087  0.09824046440997525  1.0000
  S   S117      1.0  0.09850490478745266  0.46964146653263855  0.03489435405021579  1.0000
  Fe  Fe60      1.0  0.020935317743221216  0.43398264321969493  0.15918744188294576  1.0000
  S   S118      1.0  0.9601682876781297  0.433356499522635  0.16993418067150154  1.0000
  S   S119      1.0  0.1253089420793454  0.4409692173278087  0.14112016851347065  1.0000
  S   S120      1.0  0.06078222900470909  0.41747861678675735  0.20696306322405586  1.0000
  Fe  Fe61      1.0  0.014153241971544217  0.08723100274326355  0.7105692354211531  1.0000
  S   S121      1.0  0.11148491782974412  0.5955711333271685  0.868863269591952  1.0000
  S   S122      1.0  0.9613934188821285  0.10266532955353257  0.6816089873037723  1.0000
  Fe  Fe62      1.0  0.5871630787113813  0.15513139700544795  0.011154331343999013  1.0000
  S   S123      1.0  0.677527845098526  0.6333307218263458  0.8170655133844916  1.0000
  S   S124      1.0  0.5950755556365254  0.18843046457569673  0.06647811702543582  1.0000
  Fe  Fe63      1.0  0.6473386654200891  0.6319814625626873  0.7582170225542827  1.0000
  S   S125      1.0  0.6794681238521689  0.6384545780504528  0.6994808096340096  1.0000
  Fe  Fe64      1.0  0.12022670715550121  0.6308990408789711  0.9230395563920968  1.0000
  S   S126      1.0  0.08601402962350524  0.6273855453767068  0.9806851725426545  1.0000
  S   S127      1.0  0.5989207411030233  0.17942347716457702  0.9501893130405822  1.0000
  S   S128      1.0  0.01823330090194908  0.06740762005095725  0.7749885617185904  1.0000
  Fe  Fe65      1.0  0.7937492900959426  0.4836977681711275  0.48992534309013736  1.0000
  S   S129      1.0  0.7790736467722595  0.5310519086790081  0.5270059608174537  1.0000
  S   S130      1.0  0.7953327853508878  0.48493631194508324  0.42147798053780594  1.0000
  Fe  Fe66      1.0  0.8030165527735234  0.4375864251862509  0.5643611886209065  1.0000
  S   S131      1.0  0.7894722127978261  0.48100854510669816  0.6085719856745075  1.0000
  S   S132      1.0  0.8172769102029557  0.3830954895974851  0.5842897897216741  1.0000
  Fe  Fe67      1.0  0.7451122515341864  0.4937428855020673  0.5643364731403242  1.0000
  S   S133      1.0  0.6874901986575157  0.5065867518654691  0.582765264981832  1.0000
  Fe  Fe68      1.0  0.8247598271889036  0.5140958412577213  0.5670075716617817  1.0000
  S   S134      1.0  0.8678672508756925  0.552451228938867  0.5858105341789218  1.0000
  S   S135      1.0  0.7555237818353764  0.44744751953213957  0.5236364701858313  1.0000
  S   S136      1.0  0.8424635620925535  0.46973368953505845  0.5266934435981616  1.0000
  Fe  Fe69      1.0  0.9254993462769315  0.18822122859321058  0.3834315323193114  1.0000
  S   S137      1.0  0.920874432623313  0.14551992640719608  0.4302318649508987  1.0000
  S   S138      1.0  0.9456973336851165  0.18741124672622836  0.31843828435412164  1.0000
  Fe  Fe70      1.0  0.9014519376497898  0.24518550196711708  0.4423831143855433  1.0000
  S   S139      1.0  0.8952549876382813  0.20864019853623586  0.4957169168029787  1.0000
  S   S140      1.0  0.8871301968565144  0.3017216337398556  0.4344606836142554  1.0000
  Fe  Fe71      1.0  0.9473785245963583  0.18458043522240766  0.4719746040079259  1.0000
  S   S141      1.0  0.9960794900476861  0.1672613565878367  0.5071242341582992  1.0000
  Fe  Fe72      1.0  0.8690557772186696  0.172198898985425  0.4504643035559901  1.0000
  S   S142      1.0  0.8152198513137916  0.14422588010001056  0.4596657159602525  1.0000
  S   S143      1.0  0.9563895879447146  0.225114602341849  0.4233897222024131  1.0000
  S   S144      1.0  0.8709654005699106  0.21075486792506903  0.39909213862912524  1.0000
  C   C145      1.0  0.8373790714361028  0.36041826207058436  0.543134539548971  1.0000
  C   C146      1.0  0.8348949064773837  0.3737222995982354  0.5034659254450078  1.0000
  C   C147      1.0  0.8505903263937497  0.35555859514373545  0.4704378799306538  1.0000
  C   C148      1.0  0.868582318126325  0.3238727251832822  0.4768446178807683  1.0000
  C   C149      1.0  0.8711100672900584  0.3103976490247985  0.5164920187587161  1.0000
  C   C150      1.0  0.8554895740891677  0.3287135573985202  0.5496782767414856  1.0000
  H   H97       1.0  0.8206559842660108  0.39794282255379204  0.49808089571618913  1.0000
  H   H98       1.0  0.8485965719976498  0.36606261343074026  0.43981110099373516  1.0000
  H   H99       1.0  0.8856132640638175  0.2862640530612687  0.52165601526974  1.0000
  H   H100      1.0  0.8577854258503844  0.3185794052640666  0.5804358334710231  1.0000
  C   C151      1.0  0.8520206169142174  0.5824347419225903  0.6223261694103652  1.0000
  C   C152      1.0  0.815042390813153  0.5833125903371591  0.6337885659015171  1.0000
  C   C153      1.0  0.769669591361502  0.11720808527969136  0.5187226142973497  1.0000
  C   C154      1.0  0.801904573215292  0.1361542849878722  0.5106663436479012  1.0000
  C   C155      1.0  0.8222440693051043  0.1493452268075154  0.5432785196761359  1.0000
  C   C156      1.0  0.8765327061680837  0.6065851229622231  0.6390480588446475  1.0000
  H   H101      1.0  0.7959418194594744  0.5647466973700255  0.6207912792083231  1.0000
  H   H102      1.0  0.7536150429533668  0.10703744074835232  0.49377073734707966  1.0000
  H   H103      1.0  0.847302167688585  0.16361354627751293  0.537518162177924  1.0000
  H   H104      1.0  0.9052007221480798  0.6056991237211806  0.6304264269885137  1.0000
  C   C157      1.0  0.6809322639936289  0.6018943446861919  0.6668075384474684  1.0000
  C   C158      1.0  0.7056634855904693  0.6017479719964031  0.6336689452999544  1.0000
  C   C159      1.0  0.7083822177903358  0.5722120990660342  0.6081905851765723  1.0000
  C   C160      1.0  0.6851872728740307  0.5433870607109342  0.6147697445258804  1.0000
  C   C161      1.0  0.6596259684545023  0.5440166541987534  0.6470396867981384  1.0000
  C   C162      1.0  0.6579019485603471  0.5729714290363181  0.6734192630252623  1.0000
  H   H105      1.0  0.7231645529208476  0.6242826027933427  0.6280776306045667  1.0000
  H   H106      1.0  0.7279601533493226  0.5719833220481927  0.5830923260830048  1.0000
  H   H107      1.0  0.6415955344303632  0.5217486885004433  0.6520724652113362  1.0000
  H   H108      1.0  0.638648039644029  0.5727073791283606  0.6986681535819401  1.0000
  C   C163      1.0  0.9707818613925431  0.12069739796574241  0.6330950248931008  1.0000
  C   C164      1.0  0.9425272365508709  0.1349570502184887  0.610085896876102  1.0000
  C   C165      1.0  0.9499242402969786  0.14890027765391267  0.571054114128884  1.0000
  C   C166      1.0  0.9857308679865475  0.14916838497873544  0.555317414213529  1.0000
  C   C167      1.0  0.01390629489959161  0.13486215222708395  0.5782928030652488  1.0000
  C   C168      1.0  0.006421171012466864  0.12048849915549997  0.6169886504582873  1.0000
  H   H109      1.0  0.9150567398209049  0.1356704587867397  0.6226052471780705  1.0000
  H   H110      1.0  0.9280516978073464  0.15985658424477628  0.5534884992500623  1.0000
  H   H111      1.0  0.0416483055735819  0.1350127594335047  0.5663171013601233  1.0000
  H   H112      1.0  0.028396656894534633  0.10944152844838352  0.6343529829566938  1.0000
  C   C169      1.0  0.09381596923232438  0.513596584810963  0.02121934451660068  1.0000
  C   C170      1.0  0.11361813643729923  0.5257010486345549  0.9872157345921757  1.0000
  C   C171      1.0  0.11083205659099593  0.5605220304814759  0.9748897462798444  1.0000
  C   C172      1.0  0.08804575021633676  0.5835656193063544  0.9963086105827406  1.0000
  C   C173      1.0  0.06796881533427546  0.5715904872833387  0.030443485889369626  1.0000
  C   C174      1.0  0.07103520181067924  0.5365269385717375  0.043120684528363595  1.0000
  H   H113      1.0  0.13149918025774698  0.5081999721322694  0.9705351917011595  1.0000
  H   H114      1.0  0.1265850668695716  0.5693609980700746  0.9487677344029354  1.0000
  H   H115      1.0  0.050010610246430165  0.5892889439695  0.0468379002019117  1.0000
  H   H116      1.0  0.05527825203059611  0.5270664515707298  0.06909349120434083  1.0000
  C   C175      1.0  0.9170267935908656  0.3208599102324556  0.17458415469121943  1.0000
  C   C176      1.0  0.8924971526622176  0.34882552388834265  0.17510152451425048  1.0000
  C   C177      1.0  0.9057709957003678  0.3834764555608256  0.17357669910856297  1.0000
  C   C178      1.0  0.9434964462966667  0.39011709985889165  0.17114642223607227  1.0000
  C   C179      1.0  0.967873880390552  0.36209273340365883  0.17011955195089246  1.0000
  C   C180      1.0  0.954590897872873  0.32759798881039054  0.17186250241788414  1.0000
  H   H117      1.0  0.8633869604563637  0.34383932854618654  0.17724393992502088  1.0000
  H   H118      1.0  0.886853762677597  0.4051285188918406  0.17427395736751417  1.0000
  H   H119      1.0  0.9969876232731214  0.3670336400286973  0.16827615794290107  1.0000
  H   H120      1.0  0.9733702453376569  0.30609918395661884  0.17105719510904338  1.0000
  C   C181      1.0  0.7067324488239536  0.3537510738834315  0.12604379469802107  1.0000
  C   C182      1.0  0.7163843064857478  0.33353001577385316  0.0918462716726986  1.0000
  C   C183      1.0  0.144623225185863  0.29872112831749414  0.08859815428841562  1.0000
  C   C184      1.0  0.132071568401392  0.3318661525939066  0.10053678166458546  1.0000
  C   C185      1.0  0.13247649465968658  0.35921037752278906  0.0721508570635696  1.0000
  C   C186      1.0  0.6721834669161177  0.3687108929452553  0.1286543956111077  1.0000
  H   H121      1.0  0.7431669902365243  0.3218680916846335  0.08965703172209336  1.0000
  H   H122      1.0  0.1437307170877089  0.2773333980555745  0.11018992060475269  1.0000
  H   H123      1.0  0.12276428129556649  0.3848412488374912  0.08076460495281679  1.0000
  H   H124      1.0  0.6641996349700363  0.38360790296083985  0.1554627493003049  1.0000
  C   C187      1.0  0.6422368838648052  0.19368726153810845  0.07170689878530223  1.0000
  C   C188      1.0  0.6657175347629137  0.16635245737876225  0.0608405786252173  1.0000
  C   C189      1.0  0.70360471062691  0.17175140303486935  0.06023129538761429  1.0000
  C   C190      1.0  0.7180406093624144  0.2044026021356265  0.07106192555186963  1.0000
  C   C191      1.0  0.6945574561739704  0.23178478004101066  0.0818179588096335  1.0000
  C   C192      1.0  0.6566419942109513  0.226402172197965  0.08228712072786881  1.0000
  H   H125      1.0  0.6547873704330016  0.14091004518399405  0.05333955621861963  1.0000
  H   H126      1.0  0.7217492630062987  0.15056530435039628  0.051900004386363996  1.0000
  H   H127      1.0  0.7055772986971371  0.25751135494019345  0.08810814034417147  1.0000
  H   H128      1.0  0.6385225039245025  0.24806221083501695  0.08850677163902332  1.0000
  C   C193      1.0  0.015585651372141074  0.09247800838898253  0.28759586336996606  1.0000
  C   C194      1.0  0.02341616715852224  0.12499201283562372  0.2697462312244303  1.0000
  C   C195      1.0  0.001297407051506827  0.15386878624179773  0.27878240906912066  1.0000
  C   C196      1.0  0.9719806258853928  0.1505527705362864  0.30653146998730046  1.0000
  C   C197      1.0  0.9643977005787597  0.11813969106110699  0.32484475948228037  1.0000
  C   C198      1.0  0.9859295134802883  0.08895652611127602  0.3149141533891931  1.0000
  H   H129      1.0  0.046350975857089693  0.1278848021441321  0.24872462999219747  1.0000
  H   H130      1.0  0.007253247730548473  0.1789385788894416  0.2647926557682703  1.0000
  H   H131      1.0  0.9415419997729193  0.11542417375561015  0.3460050235457992  1.0000
  H   H132      1.0  0.9798716650205135  0.06378883841798011  0.3287482295335255  1.0000
  C   C199      1.0  0.7554224171556321  0.5908319551976301  0.3777124268595686  1.0000
  C   C200      1.0  0.7477351523346738  0.5605328545599707  0.3552147041109849  1.0000
  C   C201      1.0  0.7611694930036683  0.5280784252217482  0.36794142549834014  1.0000
  C   C202      1.0  0.7819566524909269  0.5259213704894324  0.403404039372772  1.0000
  C   C203      1.0  0.7907406122222891  0.5563971681931135  0.4250732816581412  1.0000
  C   C204      1.0  0.7777231566280279  0.5888549878992486  0.4120218149574077  1.0000
  H   H133      1.0  0.7318553482924194  0.5621165786114651  0.3277437611858275  1.0000
  H   H134      1.0  0.7548802794895086  0.5045818413642968  0.35072543260779865  1.0000
  H   H135      1.0  0.8078873226119683  0.5550288658062628  0.45158809763697333  1.0000
  H   H136      1.0  0.7844103093124457  0.6123812698522126  0.4287736335548269  1.0000
  C   C205      1.0  0.052864949185345456  0.5268443961248459  0.3503538213130327  1.0000
  C   C206      1.0  0.043879540404855755  0.4982067501012609  0.32548625922183194  1.0000
  C   C207      1.0  0.06305592300407259  0.4923249149343777  0.2886361351814852  1.0000
  C   C208      1.0  0.09146996053651213  0.5149391685305089  0.2765929484829642  1.0000
  C   C209      1.0  0.10047942119667708  0.5436247907240762  0.3014679404549062  1.0000
  C   C210      1.0  0.08109701372276223  0.549672555051322  0.33823560827134225  1.0000
  H   H137      1.0  0.02206083945316495  0.4804725868995914  0.3347183898144137  1.0000
  H   H138      1.0  0.05580805089009355  0.4702570682320959  0.2696473984417625  1.0000
  H   H139      1.0  0.12237065600130759  0.5612885423827443  0.29222995685660585  1.0000
  H   H140      1.0  0.08817601944350195  0.5718282878925347  0.3572602041154928  1.0000
  C   C211      1.0  0.7007269201492851  0.19761146279700378  0.2582312617851434  1.0000
  C   C212      1.0  0.6767677332009575  0.18831753273679488  0.290210085028607  1.0000
  C   C213      1.0  0.6435966143209476  0.1713368354871829  0.2820426623827467  1.0000
  C   C214      1.0  0.6332788427180054  0.16460732368398806  0.24173977294807764  1.0000
  C   C215      1.0  0.6567968692577688  0.17463799173188094  0.20946943668368997  1.0000
  C   C216      1.0  0.6907395129175202  0.1906339734579053  0.2177430514684582  1.0000
  H   H141      1.0  0.6839012251960542  0.19397813756972374  0.3215201219725411  1.0000
  H   H142      1.0  0.6259227595207926  0.16377672003881452  0.30714813162249527  1.0000
  H   H143      1.0  0.6492203420539868  0.16932314760580439  0.1781412510053256  1.0000
  H   H144      1.0  0.7094176648863538  0.1967169654193154  0.19279468790673776  1.0000
  Fe  Fe73      1.0  0.6262791265126836  0.6719643072019917  0.29271220407845994  1.0000
  S   S145      1.0  0.6047610962615418  0.07261684897911058  0.31196652666886787  1.0000
  S   S146      1.0  0.6036686980980864  0.7260606122786876  0.2847217906771663  1.0000
  Fe  Fe74      1.0  0.001419155725900012  0.6349782969363473  0.4831351335451649  1.0000
  S   S147      1.0  0.14332435380250685  0.038260439971892435  0.24366668342314432  1.0000
  S   S148      1.0  0.9451133079587598  0.6435378256424975  0.5093032355615336  1.0000
  Fe  Fe75      1.0  0.5955920962939709  0.09718824297476347  0.3735376951573194  1.0000
  S   S149      1.0  0.6421277986868079  0.10733273278478128  0.4162845861380593  1.0000
  Fe  Fe76      1.0  0.1517816163193353  0.06180694358862571  0.18157794620112755  1.0000
  S   S150      1.0  0.1628280977667047  0.02821102455538793  0.12647350824344666  1.0000
  S   S151      1.0  0.6351907942312462  0.6495832213168  0.3548181153847543  1.0000
  S   S152      1.0  0.014650766204820087  0.6328767093418146  0.4160708404853985  1.0000
  Fe  Fe77      1.0  0.6423295396898551  0.8847175457664441  0.0905392944443757  1.0000
  S   S153      1.0  0.6512841259091781  0.8595165232003832  0.029216459268169404  1.0000
  S   S154      1.0  0.6042862695653121  0.9299951292865145  0.09964662992399131  1.0000
  Fe  Fe78      1.0  0.6943102328270571  0.8370008890777647  0.13384789867279312  1.0000
  S   S155      1.0  0.7084050227394342  0.8072733520556035  0.076757512187559  1.0000
  S   S156      1.0  0.7197897869849244  0.8215613474289224  0.19301256186077614  1.0000
  Fe  Fe79      1.0  0.7104637110236216  0.8600191395941412  0.046639535802854626  1.0000
  S   S157      1.0  0.7557735069918273  0.8690807082765164  0.0005597414116678134  1.0000
  Fe  Fe80      1.0  0.6485469296903105  0.8090473424615211  0.0643108123146634  1.0000
  S   S158      1.0  0.6180284989478957  0.7607041829873257  0.04520805177442222  1.0000
  S   S159      1.0  0.7019244610299329  0.8898621988940278  0.10518482346516907  1.0000
  S   S160      1.0  0.6339929836484708  0.8341802170597526  0.12416639744169644  1.0000
  Fe  Fe81      1.0  0.9854727049081086  0.010355824917617662  0.014891095088707562  1.0000
  S   S161      1.0  0.9462342375580052  0.004002604013783051  0.9629244862408345  1.0000
  S   S162      1.0  0.025120820773683272  0.055630370523577444  0.018029772608197936  1.0000
  Fe  Fe82      1.0  0.9569738085212935  0.9464906991114155  0.05988260337187179  1.0000
  S   S163      1.0  0.9157680748037751  0.9338450678906629  0.012417151532281068  1.0000
  S   S164      1.0  0.9623371858434114  0.9134530154740433  0.11608530354697355  1.0000
  Fe  Fe83      1.0  0.9603405372317952  0.9470629367834411  0.9672716047798405  1.0000
  S   S165      1.0  0.9692617015550831  0.9098945402615801  0.9149843874905621  1.0000
  Fe  Fe84      1.0  0.904790997479788  0.9915436461631398  0.012234928099086773  1.0000
  S   S166      1.0  0.8462387851347264  0.009374284156978607  0.013506057713982946  1.0000
  S   S167      1.0  0.0031492856607520103  0.9543449986775614  0.014919433635031787  1.0000
  S   S168      1.0  0.942568358616808  0.00323967124688207  0.06408381692417042  1.0000
  Fe  Fe85      1.0  0.12392296758002441  0.6437837310226807  0.8318397060163998  1.0000
  S   S169      1.0  0.046483078648733356  0.04334161137875103  0.6830830878537237  1.0000
  S   S170      1.0  0.09254489667967603  0.6599589937798365  0.7766262399395488  1.0000
  Fe  Fe86      1.0  0.6353032849524392  0.6722765452069563  0.8368190694807478  1.0000
  S   S171      1.0  0.6144118991055579  0.10421272074240262  0.9960878882634934  1.0000
  S   S172      1.0  0.6577479196110281  0.722730958720152  0.8616259585532358  1.0000
  Fe  Fe87      1.0  0.6216317116338  0.12705530402814813  0.9333924080540562  1.0000
  S   S173      1.0  0.6747193894570701  0.12570608324048016  0.8981197520459735  1.0000
  Fe  Fe88      1.0  0.055030518693494956  0.026573476726557743  0.7478107438225702  1.0000
  S   S174      1.0  0.0563104043383289  0.9689155158745733  0.7613362724328157  1.0000
  S   S175      1.0  0.6078230563581309  0.6739682148643886  0.7759904873085152  1.0000
  S   S176      1.0  0.12697940898854232  0.679903509972111  0.8859490586425088  1.0000
  Fe  Fe89      1.0  0.680701366798756  0.012144113267121615  0.61174514670667  1.0000
  S   S177      1.0  0.6731372547708174  0.05692379156334315  0.6556361190902671  1.0000
  S   S178      1.0  0.6403395165185226  0.9996750160412975  0.5624817490816434  1.0000
  Fe  Fe90      1.0  0.7510802864199919  0.9880042452232743  0.6513432174505446  1.0000
  S   S179      1.0  0.7488330319404516  0.029944293790225007  0.6993205260441836  1.0000
  S   S180      1.0  0.8011901315035259  0.9544826765360719  0.644665529145752  1.0000
  Fe  Fe91      1.0  0.6888481405931415  0.017604552553577957  0.7031251928984301  1.0000
  S   S181      1.0  0.6551379545370529  0.011140544804165486  0.7608262786395018  1.0000
  Fe  Fe92      1.0  0.7336863862830245  0.06505328639954522  0.6473947825079517  1.0000
  S   S182      1.0  0.7643743087672326  0.11619255224621772  0.6423616347715829  1.0000
  S   S183      1.0  0.6923312394217952  0.9719654445632694  0.6597621516430702  1.0000
  S   S184      1.0  0.7397422124088192  0.023883449740954577  0.598861747528141  1.0000
  Fe  Fe93      1.0  0.9108278818918535  0.7563741127972502  0.6908028970367368  1.0000
  S   S185      1.0  0.9137807931320074  0.7051907838172179  0.7241321024503325  1.0000
  S   S186      1.0  0.9484670022203945  0.767249591552921  0.6374572599605361  1.0000
  Fe  Fe94      1.0  0.8506393493107898  0.7845332438245838  0.7458282384503152  1.0000
  S   S187      1.0  0.8489772921163712  0.7360459696919095  0.7841777985337068  1.0000
  S   S188      1.0  0.8089357156427991  0.8247202281184953  0.7641381585275943  1.0000
  Fe  Fe95      1.0  0.9099964468640119  0.7386800454927444  0.7803697011963584  1.0000
  S   S189      1.0  0.943744794080349  0.7275222846401174  0.8354195622815324  1.0000
  Fe  Fe96      1.0  0.8524302257224551  0.7074975668626822  0.7244263578067225  1.0000
  S   S190      1.0  0.811132666399713  0.6647509429516923  0.7128538792048505  1.0000
  S   S191      1.0  0.9117316592324751  0.7900383771212873  0.7472846398049736  1.0000
  S   S192      1.0  0.8497284368578805  0.7559109949533784  0.6859566276652851  1.0000
  C   C217      1.0  0.8027389282744256  0.9183362893499706  0.6777830753420747  1.0000
  C   C218      1.0  0.7771274672579764  0.9143586454555902  0.7096892930556757  1.0000
  C   C219      1.0  0.7791576771015023  0.8854713479388981  0.7361158060876993  1.0000
  C   C220      1.0  0.8065168775519833  0.8603539382294747  0.730400081523813  1.0000
  C   C221      1.0  0.8321302768746905  0.8643058326944192  0.698526973227587  1.0000
  C   C222      1.0  0.8303375706346492  0.8933833270932958  0.6723970229390547  1.0000
  H   H145      1.0  0.7558386661525719  0.9336001938888863  0.714070483173137  1.0000
  H   H146      1.0  0.7593725414427549  0.8825645972007422  0.7608537301271624  1.0000
  H   H147      1.0  0.8533702769711599  0.8450485459418823  0.6939833167721736  1.0000
  H   H148      1.0  0.85016184132352  0.8963892715931456  0.6477085960493855  1.0000
  C   C223      1.0  0.7782306165316045  0.12449353761048898  0.5917161636423154  1.0000
  C   C224      1.0  0.7580958952413049  0.1110679595461137  0.5591825008980961  1.0000
  C   C225      1.0  0.8027417047571972  0.6085612153588632  0.6619459569921641  1.0000
  C   C226      1.0  0.8272191512635594  0.6330066811936916  0.6783443812943182  1.0000
  C   C227      1.0  0.8641055289912671  0.6320065708461085  0.6667841232639914  1.0000
  C   C228      1.0  0.8100553462770652  0.14408704209327294  0.5837358767106399  1.0000
  H   H149      1.0  0.733264106325845  0.09634744424937303  0.565197091570518  1.0000
  H   H150      1.0  0.7742035164600459  0.6095549936659079  0.6706272710901708  1.0000
  H   H151      1.0  0.883201770044112  0.6505770763609454  0.6793386734045168  1.0000
  H   H152      1.0  0.8256399690829304  0.15469155358398146  0.6088425626161754  1.0000
  C   C229      1.0  0.6718148036912515  0.09262046698592208  0.8610051539058929  1.0000
  C   C230      1.0  0.6926730439290866  0.09477299399888373  0.824778063532857  1.0000
  C   C231      1.0  0.6883424767253732  0.0693989483648445  0.7939638752697952  1.0000
  C   C232      1.0  0.6634550821207816  0.04172582214468079  0.79969944959068  1.0000
  C   C233      1.0  0.6433817727146875  0.03917412376696827  0.836379797629229  1.0000
  C   C234      1.0  0.6476141037067992  0.06451791572845789  0.8670196134818079  1.0000
  H   H153      1.0  0.7114630198138325  0.11648434584423684  0.8200335717917847  1.0000
  H   H154      1.0  0.7038323226768058  0.07151906837379096  0.7655887056328757  1.0000
  H   H155      1.0  0.6242130512676451  0.017724538376161503  0.8408955886549133  1.0000
  H   H156      1.0  0.6320670042568973  0.06224774899441132  0.8952909691145255  1.0000
  C   C235      1.0  0.0513934081923606  0.6788967862693928  0.7932124140979043  1.0000
  C   C236      1.0  0.033212253789259405  0.7022166863864809  0.7677282233326563  1.0000
  C   C237      1.0  0.9999569262890007  0.7170410209766342  0.7804685769727783  1.0000
  C   C238      1.0  0.985102159753845  0.7088616560002636  0.8190256489552891  1.0000
  C   C239      1.0  0.0034089897925131396  0.6857117793043549  0.8446251803330885  1.0000
  C   C240      1.0  0.036608442686794085  0.6708146718014112  0.8318279641378723  1.0000
  H   H157      1.0  0.04536345373283002  0.7095265438218193  0.7386590735220022  1.0000
  H   H158      1.0  0.9861961845713871  0.7353492838829646  0.7608223472276547  1.0000
  H   H159      1.0  0.9914144103271878  0.6786194778059141  0.8738670485817043  1.0000
  H   H160      1.0  0.05037022579510286  0.6525351262216292  0.851488653141649  1.0000
  C   C241      1.0  0.9939058563399444  0.9275616212165841  0.8733583617887741  1.0000
  C   C242      1.0  0.9917169537956607  0.9631505460989844  0.8633907539021505  1.0000
  C   C243      1.0  0.010463159387642529  0.976169976859927  0.8286683863363313  1.0000
  C   C244      1.0  0.03180654446043896  0.9537230813056207  0.8044238134648546  1.0000
  C   C245      1.0  0.03386309166878276  0.9182091025017548  0.8145023449904449  1.0000
  C   C246      1.0  0.014810517238135423  0.9051304996386935  0.8487231918672098  1.0000
  H   H161      1.0  0.9749212312579791  0.9804258499737062  0.8817836100022374  1.0000
  H   H162      1.0  0.008057994383641187  0.0033796517308515295  0.8203937049561859  1.0000
  H   H163      1.0  0.050269133497397256  0.9007285082379893  0.7958266664435778  1.0000
  H   H164      1.0  0.016508055604318672  0.8775887278666107  0.8562665272302088  1.0000
  C   C247      1.0  0.7777663164814947  0.9100027929482843  0.0012825414904222843  1.0000
  C   C248      1.0  0.7658883649865017  0.9369045576747552  0.027323066880967643  1.0000
  C   C249      1.0  0.786164709918372  0.9682144319065563  0.029913274432179726  1.0000
  C   C250      1.0  0.8183831736460817  0.9724062356738448  0.0066584883435618645  1.0000
  C   C251      1.0  0.8293124344821616  0.9461087827149532  0.9794102737324654  1.0000
  C   C252      1.0  0.809018405747549  0.9149720009461059  0.9767014152169298  1.0000
  H   H165      1.0  0.741475893155671  0.9333957547412215  0.04590521984775542  1.0000
  H   H166      1.0  0.7776371053608794  0.9885701290427796  0.05100760578056485  1.0000
  H   H167      1.0  0.8536435487443675  0.949669183888655  0.960600151635742  1.0000
  H   H168      1.0  0.8180275653038438  0.8943288167937495  0.956245498111764  1.0000
  C   C253      1.0  0.5584003456741135  0.9166505319193198  0.10044616447454913  1.0000
  C   C254      1.0  0.5487844559292341  0.8813029029456618  0.09614474851792856  1.0000
  C   C255      1.0  0.007950687109496757  0.858705330728592  0.1326999223872634  1.0000
  C   C256      1.0  0.9895174482578989  0.8774167684200901  0.10264134156414739  1.0000
  C   C257      1.0  0.9935957550398005  0.8679170471915267  0.06150419224621784  1.0000
  C   C258      1.0  0.5311375293973017  0.9416642532308975  0.10634685264058374  1.0000
  H   H169      1.0  0.5695341755235072  0.8618870225583637  0.09042541638502043  1.0000
  H   H170      1.0  0.00490277886232815  0.8659778006912321  0.1645782840271104  1.0000
  H   H171      1.0  0.9792989543733333  0.8820587528552613  0.038096242937163405  1.0000
  H   H172      1.0  0.5384338931723407  0.9690780182196157  0.10908915218259096  1.0000
  C   C259      1.0  0.6467929023077762  0.7323137374239173  0.9129293014014791  1.0000
  C   C260      1.0  0.6217143771405352  0.7117641116816372  0.9352319095900957  1.0000
  C   C261      1.0  0.6129940270889629  0.7204413001007615  0.9760050468479264  1.0000
  C   C262      1.0  0.6294570587824911  0.7495744817420862  0.9945089231307505  1.0000
  C   C263      1.0  0.6548714327531675  0.7698173292670139  0.9723581430415409  1.0000
  C   C264      1.0  0.6633694966156387  0.7612999342094398  0.931579262585592  1.0000
  H   H173      1.0  0.6087162753129711  0.6894721724487392  0.9210310114870622  1.0000
  H   H174      1.0  0.593307920269912  0.7047394896096683  0.9930570874802005  1.0000
  H   H175      1.0  0.6680497216006669  0.7920646731184666  0.9865545712952379  1.0000
  H   H176      1.0  0.6828969703526709  0.7771873375047593  0.9145253212374896  1.0000
  C   C265      1.0  0.9455755502127514  0.6786276370007566  0.5439521923553751  1.0000
  C   C266      1.0  0.9687102002545985  0.7074939266615241  0.5375767987374065  1.0000
  C   C267      1.0  0.9689703814618835  0.7351414385443473  0.5659750433633177  1.0000
  C   C268      1.0  0.9458824055740431  0.7340379482427997  0.6005307652216092  1.0000
  C   C269      1.0  0.9221553131276142  0.7054979106331589  0.6063551815164614  1.0000
  C   C270      1.0  0.9224471619218358  0.6776538942893146  0.5783545254109594  1.0000
  H   H177      1.0  0.9861462060542815  0.708738483566045  0.5105851866970287  1.0000
  H   H178      1.0  0.9871638425742898  0.7573220030452757  0.561252536593425  1.0000
  H   H179      1.0  0.9042240450007697  0.704499235136369  0.6329235754018604  1.0000
  H   H180      1.0  0.9051609373383607  0.6550689690732775  0.5835503643164248  1.0000
  C   C271      1.0  0.6438346382927025  0.07628200848055844  0.455706873706474  1.0000
  C   C272      1.0  0.6254407433175975  0.044200330041008984  0.4521078494213292  1.0000
  C   C273      1.0  0.6256777910665463  0.02011779800056157  0.4844450031501175  1.0000
  C   C274      1.0  0.6441637812443245  0.028122933298580177  0.5205460490803311  1.0000
  C   C275      1.0  0.6633068498801618  0.059840652568046826  0.5237985008974736  1.0000
  C   C276      1.0  0.6633260676299889  0.08384546026242057  0.4912813340509668  1.0000
  H   H181      1.0  0.6112955077392093  0.037771146067293815  0.4242662125627004  1.0000
  H   H182      1.0  0.6113713853492428  0.9953353338341937  0.4815408131554765  1.0000
  H   H183      1.0  0.6772682883562523  0.06620649074303975  0.5517842694571176  1.0000
  H   H184      1.0  0.6776779484280142  0.10861085794535441  0.4941448089300457  1.0000
  C   C277      1.0  0.12887376904182846  0.03660024668000483  0.0904453112800605  1.0000
  C   C278      1.0  0.1128778027460342  0.00887066145984683  0.0688777347689451  1.0000
  C   C279      1.0  0.08121447907308332  0.014483350803737194  0.046008237980000644  1.0000
  C   C280      1.0  0.06620635967360577  0.04805428751243368  0.04371830934652832  1.0000
  C   C281      1.0  0.084027900485669  0.07621093167917281  0.0626045621647946  1.0000
  C   C282      1.0  0.11513079157892436  0.07046467762444908  0.0861828463132277  1.0000
  H   H185      1.0  0.12385390551817199  0.9827190425401567  0.07152506725973429  1.0000
  H   H186      1.0  0.06838628730737661  0.9927574626134693  0.030544857384948724  1.0000
  H   H187      1.0  0.07300296451984511  0.10236842764995657  0.06024949619944886  1.0000
  H   H188      1.0  0.1281066937684907  0.09225412641039288  0.1015985557188189  1.0000
  C   C283      1.0  0.6881606163916343  0.7978410484506763  0.22319324741325222  1.0000
  C   C284      1.0  0.6995907284592905  0.7684613278345851  0.24495880909726983  1.0000
  C   C285      1.0  0.6738108837782677  0.747055829705423  0.2652936225151089  1.0000
  C   C286      1.0  0.6365665620352793  0.7549305550568658  0.26385988062132587  1.0000
  C   C287      1.0  0.6253217732418427  0.7853462775507629  0.24393830737807198  1.0000
  C   C288      1.0  0.6511294063904929  0.8068409327629652  0.2237654173567015  1.0000
  H   H189      1.0  0.7282807039367009  0.7617600915616016  0.24528988786819453  1.0000
  H   H190      1.0  0.6828832938967351  0.7246032840019249  0.2822546220177883  1.0000
  H   H191      1.0  0.5966003763649453  0.7917914908914552  0.24329519836606342  1.0000
  H   H192      1.0  0.6424483758907759  0.830392366831258  0.2086919709442276  1.0000
  N   N1        1.0  0.24151169062028296  0.9722497156989532  0.2504404861925018  1.0000
  C   C289      1.0  0.22452158739851844  0.9679616867880904  0.20994661275215099  1.0000
  C   C290      1.0  0.2139964950328284  0.964597711408593  0.2827981776581503  1.0000
  C   C291      1.0  0.25501616276509004  0.008634007374767494  0.25479616121931636  1.0000
  C   C292      1.0  0.2724194969382028  0.9478302143053982  0.25447692590087057  1.0000
  H   H193      1.0  0.24482327786093652  0.9715846758646054  0.18456393557682205  1.0000
  H   H194      1.0  0.20234311121820567  0.9872908485970318  0.2051921522484641  1.0000
  H   H195      1.0  0.21199276477846468  0.9415097429949368  0.20655866913490395  1.0000
  H   H196      1.0  0.22610667621055228  0.9667115480655359  0.31369461770845386  1.0000
  H   H197      1.0  0.19072674033858805  0.983088705280039  0.28158768035333237  1.0000
  H   H198      1.0  0.20260240647828237  0.9375771749249067  0.2798769842585256  1.0000
  H   H199      1.0  0.27687911480374844  0.014796252296827683  0.23188281268654976  1.0000
  H   H200      1.0  0.2665347260773499  0.013389284869532503  0.28568882348541624  1.0000
  H   H201      1.0  0.23267655255207823  0.02784034924021639  0.2505562313667813  1.0000
  H   H202      1.0  0.2928788730264361  0.9512857147501611  0.22929342329774882  1.0000
  H   H203      1.0  0.2629764199208574  0.9200965081104026  0.25406678321727894  1.0000
  H   H204      1.0  0.287104451355341  0.952088542095956  0.2837334094332764  1.0000
  N   N2        1.0  0.09277452692130295  0.443414069776445  0.6159194916144435  1.0000
  C   C293      1.0  0.10676466377545357  0.4312674070322955  0.5756617661072612  1.0000
  C   C294      1.0  0.05560417452466515  0.45765310226330186  0.6112797519712025  1.0000
  C   C295      1.0  0.1171992592221931  0.4711433129859366  0.63182111007897  1.0000
  C   C296      1.0  0.09148115845720262  0.41370167825076914  0.644922640402499  1.0000
  H   H205      1.0  0.13510940245101666  0.4210606046916036  0.5777580059799332  1.0000
  H   H206      1.0  0.10775746372548412  0.4529530792465771  0.5529424302692504  1.0000
  H   H207      1.0  0.089416693649222  0.40991332564513444  0.562938662105756  1.0000
  H   H208      1.0  0.04432927332055425  0.46716403983587124  0.6411090164715563  1.0000
  H   H209      1.0  0.05562484905464027  0.4801130195579293  0.5895273316169788  1.0000
  H   H210      1.0  0.036396815805271876  0.43739490362128486  0.5993982283918902  1.0000
  H   H211      1.0  0.10855052179975067  0.4798101011453142  0.6630405882911795  1.0000
  H   H212      1.0  0.11770278036630932  0.49452351007189466  0.6115415802570072  1.0000
  H   H213      1.0  0.14577991198265128  0.46169469121141316  0.6341518618072357  1.0000
  H   H214      1.0  0.07332979829691211  0.39219936585945214  0.6340330935718106  1.0000
  H   H215      1.0  0.08145386848358127  0.42202951316238607  0.6757838826352014  1.0000
  H   H216      1.0  0.11908533938532195  0.40243188156848025  0.6493709707518497  1.0000
  N   N3        1.0  0.03361487434504018  0.6582574569388087  0.6436154005883534  1.0000
  C   C297      1.0  0.004460309528361073  0.6767883783974326  0.6666202819179301  1.0000
  C   C298      1.0  0.048213489664461706  0.6811664647074605  0.6107124569755437  1.0000
  C   C299      1.0  0.01835751139740105  0.6259325674125702  0.6253048205427344  1.0000
  C   C300      1.0  0.0634716131827191  0.6491324596508978  0.6715949465093515  1.0000
  H   H217      1.0  0.9950429366475231  0.661706650905534  0.694015834090306  1.0000
  H   H218      1.0  0.980251770936682  0.6812270550481772  0.6473269334034498  1.0000
  H   H219      1.0  0.013749649796541474  0.7030517510808612  0.6772579430580024  1.0000
  H   H220      1.0  0.026484859746826794  0.6883736056639939  0.5889147237665993  1.0000
  H   H221      1.0  0.059710499306590226  0.7059784776741604  0.6232546890109115  1.0000
  H   H222      1.0  0.07037396503049509  0.6679749131877369  0.5928501188981193  1.0000
  H   H223      1.0  0.039726280967477434  0.611202956954868  0.607912570822838  1.0000
  H   H224      1.0  0.996126887823423  0.6319809451686157  0.6034681107207761  1.0000
  H   H225      1.0  0.006695516228730103  0.6081837514198627  0.6492131055551154  1.0000
  H   H226      1.0  0.053505861545755984  0.6323299864316058  0.6973531605557152  1.0000
  H   H227      1.0  0.07591276751067144  0.6729478369446728  0.6855888486320949  1.0000
  H   H228      1.0  0.08573157162410183  0.6347549312127457  0.6552592735223876  1.0000
  N   N4        1.0  0.05634069232901173  0.1210022746138762  0.41437468121103344  1.0000
  C   C301      1.0  0.07868713562081764  0.10393958496325557  0.38203274825948835  1.0000
  C   C302      1.0  0.042244814387512264  0.15463536556289473  0.39896042661848946  1.0000
  C   C303      1.0  0.07912440015032507  0.12755547610982265  0.4506520588639969  1.0000
  C   C304      1.0  0.02524381285713595  0.09788585384201862  0.4258946732006571  1.0000
  H   H229      1.0  0.10237386457927976  0.1206811198675183  0.3725061796647902  1.0000
  H   H230      1.0  0.06237368994830183  0.09859609824180758  0.354212590701691  1.0000
  H   H231      1.0  0.08969548229719937  0.07840363426578989  0.3924957918903698  1.0000
  H   H232      1.0  0.06486520938440021  0.17285178866042716  0.39003917805424576  1.0000
  H   H233      1.0  0.024898387381345755  0.15065219301427077  0.3716172718841082  1.0000
  H   H234      1.0  0.02515354239680057  0.1681233576841389  0.4226216519324026  1.0000
  H   H235      1.0  0.0900494080965466  0.10272424760298998  0.4632497989100245  1.0000
  H   H236      1.0  0.06312405988480663  0.14043156154377873  0.47569025928353675  1.0000
  H   H237      1.0  0.1027948788255697  0.14500723439147992  0.4431549762965177  1.0000
  H   H238      1.0  0.007908763688441177  0.10998045118592764  0.4503664652861251  1.0000
  H   H239      1.0  0.03476775241032515  0.0722146761278344  0.43758471272945754  1.0000
  H   H240      1.0  0.007322166245543605  0.09264056468320343  0.39932485352104957  1.0000
  N   N5        1.0  0.25026062511204333  0.3125742004553064  0.1299060626728149  1.0000
  C   C305      1.0  0.23698878753409983  0.33159265315725334  0.09372056895618636  1.0000
  C   C306      1.0  0.2641348948055922  0.3380434864150149  0.1601631316584085  1.0000
  C   C307      1.0  0.2799479715383957  0.28861298908043026  0.1172157450894666  1.0000
  C   C308      1.0  0.21987436433247673  0.2920264027460349  0.14845923664550043  1.0000
  H   H241      1.0  0.25895661268011866  0.34794185774442354  0.07929600205372878  1.0000
  H   H242      1.0  0.2137026971061626  0.34909133881504767  0.10180530560648712  1.0000
  H   H243      1.0  0.22719360145396644  0.3131193557737375  0.06986835946724779  1.0000
  H   H244      1.0  0.27419116629447565  0.3246052904815746  0.18798115190833814  1.0000
  H   H245      1.0  0.2872046544452193  0.35391870503857614  0.14718619759140764  1.0000
  H   H246      1.0  0.24228890977473164  0.35654314075864685  0.17012134095738113  1.0000
  H   H247      1.0  0.29071609719720803  0.2737631384480894  0.14366184090108527  1.0000
  H   H248      1.0  0.3032140934196271  0.30303619390011827  0.10245965718476358  1.0000
  H   H249      1.0  0.2701203860125186  0.2688564828138327  0.09471985097326692  1.0000
  H   H250      1.0  0.1967381607542144  0.30915273455290576  0.1581755746692362  1.0000
  H   H251      1.0  0.22879347295868485  0.27708251422986047  0.17571928397379988  1.0000
  H   H252      1.0  0.2088950630033361  0.2726273695265628  0.12634570578543672  1.0000
  N   N6        1.0  0.6299457718965563  0.29007086307811975  0.21059215901075176  1.0000
  C   C309      1.0  0.6059557215948821  0.3206051983288419  0.20448998036381835  1.0000
  C   C310      1.0  0.6115254140074644  0.26456090592304726  0.23814450520030475  1.0000
  C   C311      1.0  0.664676689089221  0.3017699438339751  0.22896902172604386  1.0000
  C   C312      1.0  0.6376825898200736  0.2732070471456549  0.17068336569712586  1.0000
  H   H253      1.0  0.5997069989518139  0.33427209166969285  0.23386949317952158  1.0000
  H   H254      1.0  0.5794713951806971  0.3127350024279248  0.19069878438314555  1.0000
  H   H255      1.0  0.6188959650072782  0.3402619266278507  0.18361540448368835  1.0000
  H   H256      1.0  0.6292197229188775  0.24152917185247325  0.24385968572623626  1.0000
  H   H257      1.0  0.604746018579814  0.2764519807322623  0.2684091169730239  1.0000
  H   H258      1.0  0.5856864169985021  0.25436825779812905  0.22481827978084162  1.0000
  H   H259      1.0  0.6797391987617633  0.3204737195300061  0.2085788041683883  1.0000
  H   H260      1.0  0.683163629631573  0.2792409254425658  0.23461150716972648  1.0000
  H   H261      1.0  0.6599351342480924  0.31519625724056094  0.2587983769150111  1.0000
  H   H262      1.0  0.6551986432113535  0.24968366071220874  0.17416691069122667  1.0000
  H   H263      1.0  0.6522242161733973  0.2914735808422341  0.14927125444759487  1.0000
  H   H264      1.0  0.6120724377028962  0.26437001642279834  0.15570554171887727  1.0000
  N   N7        1.0  0.7081229665442074  0.4714247839525399  0.12169003378074437  1.0000
  C   C313      1.0  0.7139223147953586  0.4434315631146957  0.09098788626151574  1.0000
  C   C314      1.0  0.7438367703489538  0.48361649476385676  0.13707341046486335  1.0000
  C   C315      1.0  0.6858273763649985  0.4576095134302189  0.15621963126577945  1.0000
  C   C316      1.0  0.6888913229131001  0.5009965264357806  0.10262167634432104  1.0000
  H   H265      1.0  0.6874301220978847  0.43285784428781704  0.07967244450028965  1.0000
  H   H266      1.0  0.7292574281950638  0.4211225947309282  0.10414129095324284  1.0000
  H   H267      1.0  0.7298947223987831  0.4531028305538009  0.06400859395900826  1.0000
  H   H268      1.0  0.7589345337224549  0.46179187230262136  0.15172141475545672  1.0000
  H   H269      1.0  0.7614844701124418  0.49420777566833024  0.11188920859490734  1.0000
  H   H270      1.0  0.7403490427956491  0.5046947769074821  0.16043082421261443  1.0000
  H   H271      1.0  0.6803677327167199  0.4782138935152942  0.17963725360642716  1.0000
  H   H272      1.0  0.6997725525413122  0.4355636494043763  0.1717472012445588  1.0000
  H   H273      1.0  0.6587966117724838  0.4477044310764865  0.14573777827773068  1.0000
  H   H274      1.0  0.6846053642188932  0.5228465409847739  0.12482266963253806  1.0000
  H   H275      1.0  0.6614659742350084  0.4927377819524788  0.09151196320207163  1.0000
  H   H276      1.0  0.7045504381983925  0.5117726166982656  0.0759868134415318  1.0000
  N   N8        1.0  0.03583945870359262  0.9891128705903727  0.16632937675142886  1.0000
  C   C317      1.0  0.0010460605432216497  0.9812213107577538  0.1881186999185941  1.0000
  C   C318      1.0  0.03992673662870572  0.9652764531002526  0.13087653137756283  1.0000
  C   C319      1.0  0.06677218286847242  0.984093836319861  0.19426637419747553  1.0000
  C   C320      1.0  0.0356158818778054  0.025861273587070466  0.15208195716070194  1.0000
  H   H277      1.0  0.9971282214018452  0.9987009917711519  0.21519730511337293  1.0000
  H   H278      1.0  0.00011640569471405016  0.9536078442589766  0.19907777225896336  1.0000
  H   H279      1.0  0.9772470885134764  0.9846681525791375  0.16765910305856344  1.0000
  H   H280      1.0  0.0667789041987652  0.9689277221529842  0.11519114253564137  1.0000
  H   H281      1.0  0.038012124183828044  0.9372746128116579  0.14029396995125154  1.0000
  H   H282      1.0  0.018293241496013746  0.9697394920743133  0.10793322732849847  1.0000
  H   H283      1.0  0.09339654476195958  0.990446989042793  0.17881222293544047  1.0000
  H   H284      1.0  0.06805967784274225  0.9565347686214689  0.20520613295772755  1.0000
  H   H285      1.0  0.06430788408553378  0.001323731464175637  0.22168364746002378  1.0000
  H   H286      1.0  0.06175776951765566  0.032958676685836075  0.13634772768004697  1.0000
  H   H287      1.0  0.031844171616489225  0.044456777463688375  0.17813718559990196  1.0000
  H   H288      1.0  0.01327859210860649  0.030500123502936072  0.12997214691056203  1.0000
  N   N9        1.0  0.15967889135435645  0.606585510607956  0.0996071843872286  1.0000
  C   C321      1.0  0.16638897628397945  0.5837233820029191  0.06371865978333457  1.0000
  C   C322      1.0  0.18393053460592856  0.6377173282195193  0.09694961151035053  1.0000
  C   C323      1.0  0.16711098667266072  0.5871099645119957  0.1376570106938073  1.0000
  C   C324      1.0  0.12113392405489345  0.6178785292820889  0.10007162242347079  1.0000
  H   H289      1.0  0.1607796078340513  0.5976928542534476  0.03454608105121992  1.0000
  H   H290      1.0  0.1485319833870156  0.5599418369284871  0.06462044028787539  1.0000
  H   H291      1.0  0.19525017478400816  0.5747682935622144  0.062181721671238144  1.0000
  H   H292      1.0  0.18005633492378847  0.6554265022624767  0.12378229951559194  1.0000
  H   H293      1.0  0.21330768703887423  0.630345510630614  0.09582911606827249  1.0000
  H   H294      1.0  0.17863315431803378  0.6533516694519617  0.06891821137683651  1.0000
  H   H295      1.0  0.16175130376777885  0.6035771242441779  0.16532134827100098  1.0000
  H   H296      1.0  0.196085601455169  0.5785150869178152  0.13867697513474408  1.0000
  H   H297      1.0  0.14953687986145248  0.5632010367138289  0.14048175055808843  1.0000
  H   H298      1.0  0.11516617093084106  0.6353791075849559  0.126616470110952  1.0000
  H   H299      1.0  0.10219745096278032  0.595011566760925  0.1023290971911226  1.0000
  H   H300      1.0  0.11440312222195734  0.6324194090837584  0.07160693657364026  1.0000
  N   N10       1.0  0.8640928023151615  0.050191185777077596  0.6404113249182898  1.0000
  C   C325      1.0  0.897079663537421  0.051320939312985425  0.6137609613534213  1.0000
  C   C326      1.0  0.8603661828799686  0.08371937538121754  0.6627750774178899  1.0000
  C   C327      1.0  0.8671574988576483  0.021201450302142044  0.6700805610208701  1.0000
  C   C328      1.0  0.8315335848484794  0.04449914473006711  0.6150383268722128  1.0000
  H   H301      1.0  0.9000936666053422  0.02668550812524928  0.5958105751994408  1.0000
  H   H302      1.0  0.9222909992359621  0.054835790525787464  0.6320004701331424  1.0000
  H   H303      1.0  0.8960561639375647  0.07347792606064019  0.5916904110222739  1.0000
  H   H304      1.0  0.8355015424371652  0.08378104894039651  0.6828898035203912  1.0000
  H   H305      1.0  0.8844553094800023  0.08904174069432846  0.6823134651172889  1.0000
  H   H306      1.0  0.8578047643532587  0.10610066469950552  0.6413458941140189  1.0000
  H   H307      1.0  0.8421726662997737  0.019011921372910523  0.689872892472036  1.0000
  H   H308      1.0  0.8911035453436799  0.025067796899572947  0.6902912368823912  1.0000
  H   H309      1.0  0.870336134901162  0.9954990992097694  0.6542432520901885  1.0000
  H   H310      1.0  0.806258851021997  0.045027708753412554  0.6342341919938533  1.0000
  H   H311      1.0  0.832271034121638  0.018618149848041332  0.5992197521414903  1.0000
  H   H312      1.0  0.828901121842496  0.06523999188011786  0.5913772206443061  1.0000
  N   N11       1.0  0.6420381228415316  0.6951922432991188  0.14371842542094726  1.0000
  C   C329      1.0  0.6784567437113436  0.680398850833548  0.1517249527774735  1.0000
  C   C330      1.0  0.6289518088685313  0.6824837831060847  0.10370584038091347  1.0000
  C   C331      1.0  0.6446901348293163  0.7338592268844466  0.14313441472318852  1.0000
  C   C332      1.0  0.6161184997936686  0.6840312453864202  0.17639517155526405  1.0000
  H   H313      1.0  0.6773242599027735  0.6512232602593495  0.15314736726123457  1.0000
  H   H314      1.0  0.6892894805655162  0.6899599841556415  0.18144708040705174  1.0000
  H   H315      1.0  0.6985940111737323  0.6879066387457488  0.1273549706638257  1.0000
  H   H316      1.0  0.6016305544666407  0.6934388882216167  0.09659360198720836  1.0000
  H   H317      1.0  0.6477547883898763  0.6906799881989655  0.0782656043869654  1.0000
  H   H318      1.0  0.6266013792473857  0.6533651872312292  0.10306449715669853  1.0000
  H   H319      1.0  0.6176891747004343  0.7459960196690917  0.13726196911475416  1.0000
  H   H320      1.0  0.6638640455087876  0.7431921455045943  0.11863586535289905  1.0000
  H   H321      1.0  0.6547027245909144  0.7443063540409357  0.1727158926275805  1.0000
  H   H322      1.0  0.625281342459253  0.6931195742743704  0.20697006773144627  1.0000
  H   H323      1.0  0.6134774829978101  0.6549241436177252  0.17769925718159305  1.0000
  H   H324      1.0  0.5883808125739246  0.6949095048344588  0.17160002937018334  1.0000
  N   N12       1.0  0.7577813628220051  0.06842998816708112  0.959679218241026  1.0000
  C   C333      1.0  0.7681112665010599  0.03353257039809554  0.9437290784473729  1.0000
  C   C334      1.0  0.7792587136440347  0.07647688385354212  0.9965789837218902  1.0000
  C   C335      1.0  0.7183448667292882  0.0684659572775903  0.970331210289055  1.0000
  C   C336      1.0  0.7654034030774621  0.09522884630456208  0.9279961091158974  1.0000
  H   H325      1.0  0.7534889122226879  0.027116396764718775  0.9149845324277902  1.0000
  H   H326      1.0  0.7614502634248286  0.012531117854274632  0.9662642565669448  1.0000
  H   H327      1.0  0.7980586538143171  0.03206191166536665  0.9371621578433882  1.0000
  H   H328      1.0  0.7719576796836671  0.10245416426072285  0.009842061798428503  1.0000
  H   H329      1.0  0.774827878881973  0.056319557262687114  0.020806231936375763  1.0000
  H   H330      1.0  0.8091840862313656  0.07692183894867433  0.989567110783567  1.0000
  H   H331      1.0  0.7094072225448127  0.0946861932789409  0.9815181667909799  1.0000
  H   H332      1.0  0.7116561201493178  0.04898543469678174  0.9946817236580497  1.0000
  H   H333      1.0  0.7014242558353836  0.061966042908908614  0.9432369358382177  1.0000
  H   H334      1.0  0.7575945560921218  0.12185870778292518  0.938862091386831  1.0000
  H   H335      1.0  0.7495932799457832  0.08992908827921786  0.8997177423476456  1.0000
  H   H336      1.0  0.7949418495300629  0.09600759416992988  0.9192701163732042  1.0000
  N   N13       1.0  0.8871153815433817  0.8679568445548445  0.8420899583883615  1.0000
  C   C337      1.0  0.9256554673459577  0.8565743797058616  0.841450195409861  1.0000
  C   C338      1.0  0.8631182313377366  0.8377347529050417  0.8521683822164426  1.0000
  C   C339      1.0  0.8776490293653184  0.8818584230788779  0.8014211524608841  1.0000
  C   C340      1.0  0.8821001053818452  0.8956965638112283  0.8732999177488268  1.0000
  H   H337      1.0  0.9443517214352984  0.8784569869493037  0.8324867230803422  1.0000
  H   H338      1.0  0.9302780885044366  0.8347528860312768  0.8194098162454126  1.0000
  H   H339      1.0  0.9342867789612527  0.847350804484739  0.8721274017819285  1.0000
  H   H340      1.0  0.8664225088513059  0.8162460491084476  0.8293200485020291  1.0000
  H   H341      1.0  0.8693599330832198  0.8267370956641996  0.8827770895467453  1.0000
  H   H342      1.0  0.8337359796660841  0.8452276959233516  0.8522453066429033  1.0000
  H   H343      1.0  0.8485620143917331  0.890240545518423  0.8005741675417323  1.0000
  H   H344      1.0  0.8813162684288569  0.8616923449213565  0.7770718154213059  1.0000
  H   H345      1.0  0.8950442052402776  0.9048517106324853  0.7929143241371199  1.0000
  H   H346      1.0  0.8533005151854645  0.9048800544601145  0.874733920117503  1.0000
  H   H347      1.0  0.9000279796321919  0.9188115689840655  0.8666814831241204  1.0000
  H   H348      1.0  0.8893671508276243  0.88624025773553  0.9043517798437991  1.0000
  N   N14       1.0  0.3720172823638024  0.8025086958684632  0.6060316301538917  1.0000
  C   C341      1.0  0.3840557764205508  0.8130586292736897  0.6472856117999216  1.0000
  C   C342      1.0  0.40418788350124063  0.79202335518768  0.5810828905709599  1.0000
  C   C343      1.0  0.3535648035342331  0.8322254851280914  0.5862221293242905  1.0000
  C   C344      1.0  0.34627346064683734  0.7725778486365088  0.6095835507057151  1.0000
  H   H349      1.0  0.36048172927803207  0.8209335694372202  0.6670993341111712  1.0000
  H   H350      1.0  0.4035389149188011  0.8355877357581124  0.6457604876633665  1.0000
  H   H351      1.0  0.39818564175401283  0.7911391813208807  0.6629639647619884  1.0000
  H   H352      1.0  0.4189579139733443  0.7698902759888063  0.5954407990358331  1.0000
  H   H353      1.0  0.39611331873893235  0.7833262608036031  0.549987998023207  1.0000
  H   H354      1.0  0.42402085375443654  0.8140544321063795  0.5771606468411925  1.0000
  H   H355      1.0  0.34361817270313383  0.82489995256942  0.5553321284637975  1.0000
  H   H356      1.0  0.37225002618810066  0.8551835989298384  0.5823245441447037  1.0000
  H   H357      1.0  0.3293023197734011  0.8410416143619285  0.6043760125782249  1.0000
  H   H358      1.0  0.35914464504225163  0.7499278251961156  0.6251589050401528  1.0000
  H   H359      1.0  0.337192610087698  0.7635192521956683  0.5788841008135391  1.0000
  H   H360      1.0  0.3213314017811294  0.7797195890201102  0.6275625099964928  1.0000
  N   N15       1.0  0.37834445421142915  0.03870282924251511  0.3882579227925107  1.0000
  C   C345      1.0  0.358514141506236  0.062472453213352264  0.41647799664393476  1.0000
  C   C346      1.0  0.35506360703636164  0.007869022236329126  0.3792470153974889  1.0000
  C   C347      1.0  0.4124623975910832  0.027081557667063993  0.40756472783168596  1.0000
  C   C348      1.0  0.3873875806423124  0.05740597629885791  0.34978838207458735  1.0000
  H   H361      1.0  0.3755406193732282  0.08579541360178822  0.42439243546359395  1.0000
  H   H362      1.0  0.35086580693372976  0.04896806562956324  0.4456154908645034  1.0000
  H   H363      1.0  0.3327839595485982  0.07204942425485772  0.40276765179062324  1.0000
  H   H364      1.0  0.3694657938679181  0.9890067608358124  0.3587739439383449  1.0000
  H   H365      1.0  0.3471908470435091  0.9934936138478346  0.40771249349365063  1.0000
  H   H366      1.0  0.32943530422223144  0.015571903903498052  0.3638677374221034  1.0000
  H   H367      1.0  0.4283131229910695  0.009402252037533199  0.3868806553908793  1.0000
  H   H368      1.0  0.40654925926725705  0.012503456975864413  0.4364639871099875  1.0000
  H   H369      1.0  0.4305094681989891  0.0498212071418096  0.41503148328472306  1.0000
  H   H370      1.0  0.4026590211397149  0.04029489578413625  0.32798580993195847  1.0000
  H   H371      1.0  0.4048314363177553  0.08091832300256452  0.35554010241658973  1.0000
  H   H372      1.0  0.3623166558365692  0.06634218201072306  0.33415791793211586  1.0000
  N   N16       1.0  0.6644924626333399  0.5239921408240927  0.452389962299828  1.0000
  C   C349      1.0  0.6306450343770635  0.5191637311427851  0.47714039651990425  1.0000
  C   C350      1.0  0.6890916257428213  0.49409517886408955  0.459217722674218  1.0000
  C   C351      1.0  0.6830344397706872  0.5567813322895355  0.4648788872941599  1.0000
  C   C352      1.0  0.655354065011711  0.5258674374096342  0.4085122329982319  1.0000
  H   H373      1.0  0.6113588193462104  0.5412044439683491  0.4728062290563026  1.0000
  H   H374      1.0  0.6366592201121619  0.5176569695476341  0.5104562642010847  1.0000
  H   H375      1.0  0.6159891892362768  0.49461770050350584  0.4685968778267824  1.0000
  H   H376      1.0  0.6961384750108345  0.4918169511383218  0.49212657602389903  1.0000
  H   H377      1.0  0.6762621573100297  0.4688526455780403  0.44986581289098826  1.0000
  H   H378      1.0  0.7151780919233186  0.4969896797333455  0.44146945265693943  1.0000
  H   H379      1.0  0.7086714558301129  0.561182027981015  0.4467402356811469  1.0000
  H   H380      1.0  0.6904168535803379  0.556048113497405  0.4978474697557025  1.0000
  H   H381      1.0  0.6652954390331008  0.5799445330060737  0.4601883196838076  1.0000
  H   H382      1.0  0.6803134296725497  0.5295051254167499  0.3890086376311813  1.0000
  H   H383      1.0  0.63681340151755  0.5481139887826905  0.4021496843074026  1.0000
  H   H384      1.0  0.6412258380765865  0.501602444396801  0.3980142167077171  1.0000
  N   N17       1.0  0.5286209764803541  0.04891128259206967  0.543751085729601  1.0000
  C   C353      1.0  0.5581125995708506  0.0743473796742875  0.5528607384719262  1.0000
  C   C354      1.0  0.49534666246476156  0.05803562363268133  0.5675829592862024  1.0000
  C   C355      1.0  0.5404194777169801  0.013281915816504508  0.5549815005807155  1.0000
  C   C356      1.0  0.5206516185505251  0.049978633262404815  0.4995478606539003  1.0000
  H   H385      1.0  0.5656945151466176  0.07366280450072904  0.585672958779605  1.0000
  H   H386      1.0  0.5498915616822432  0.10159591669475376  0.5456913417274983  1.0000
  H   H387      1.0  0.5832260379583136  0.0689400758833918  0.5344467928604708  1.0000
  H   H388      1.0  0.4724309836515198  0.039463834605861337  0.5614914852970385  1.0000
  H   H389      1.0  0.5004771385290727  0.05784532142860077  0.6010627178264535  1.0000
  H   H390      1.0  0.4856524139352654  0.08472129225110159  0.5597814600331308  1.0000
  H   H391      1.0  0.5185403090038205  0.9934772882193927  0.5495666428663337  1.0000
  H   H392      1.0  0.548141979303479  0.011817348674103334  0.5877623106522676  1.0000
  H   H393      1.0  0.5648544905895302  0.005188214659635815  0.5367705061944068  1.0000
  H   H394      1.0  0.49884876902280945  0.03085698495882183  0.49133865429113865  1.0000
  H   H395      1.0  0.5454086073514052  0.04383874363788309  0.48067375480613816  1.0000
  H   H396      1.0  0.511296881667673  0.07640103459334968  0.49016961587443064  1.0000
  N   N18       1.0  0.6895738101172166  0.2530759815685353  0.953434233424084  1.0000
  C   C357      1.0  0.6854504055981143  0.22780399198488244  0.9193957239779889  1.0000
  C   C358      1.0  0.6908878822222644  0.28917166701093056  0.9370673016790787  1.0000
  C   C359      1.0  0.7237648931900179  0.24564979851362342  0.9752970259213339  1.0000
  C   C360      1.0  0.6580786396267286  0.24953894601601917  0.982007330940277  1.0000
  H   H397      1.0  0.6843689331450462  0.20027394834393542  0.9307844042308302  1.0000
  H   H398      1.0  0.7087471053590348  0.2296437766330209  0.8971754557140621  1.0000
  H   H399      1.0  0.6598119599346044  0.2323261380756062  0.9023250064143056  1.0000
  H   H400      1.0  0.6933713205345698  0.3088894281594513  0.9620666184167417  1.0000
  H   H401      1.0  0.714540446896391  0.29303882539136816  0.9156892613742302  1.0000
  H   H402      1.0  0.6655085031396022  0.29552100577811086  0.9203110372563525  1.0000
  H   H403      1.0  0.7272487130383196  0.2630871336274733  0.002350067096113184  1.0000
  H   H404      1.0  0.7483040977833366  0.24916063527710472  0.9551572727807329  1.0000
  H   H405      1.0  0.7241107653470145  0.21823343775633605  0.9868745941995574  1.0000
  H   H406      1.0  0.6561059242488495  0.2225591777464737  0.994660064582452  1.0000
  H   H407      1.0  0.6318361095158211  0.2554002862510426  0.9667996574514368  1.0000
  H   H408      1.0  0.6603467347786373  0.2679130857508435  0.008362721535724038  1.0000
  N   N19       1.0  0.7717463343702782  0.24998046659938417  0.5253969218873121  1.0000
  C   C361      1.0  0.7719473923112502  0.2854356749223732  0.5437905646960913  1.0000
  C   C362      1.0  0.7457528852529234  0.2487964748590642  0.4912144684257628  1.0000
  C   C363      1.0  0.7606695867474016  0.223868531268879  0.5567094712605135  1.0000
  C   C364      1.0  0.8087675544774806  0.2417279589514905  0.5097067909441362  1.0000
  H   H409      1.0  0.7808926296709144  0.30571750350904586  0.5211650272911749  1.0000
  H   H410      1.0  0.7910780415748948  0.2871569886683263  0.5699454248321194  1.0000
  H   H411      1.0  0.7443837353767784  0.29292195107001495  0.5555285987732668  1.0000
  H   H412      1.0  0.74529593346785  0.22240436653734627  0.4765170686114333  1.0000
  H   H413      1.0  0.717413593350933  0.2546691906858961  0.5019118523349168  1.0000
  H   H414      1.0  0.7533598518288842  0.26824210079559024  0.46709129508985153  1.0000
  H   H415      1.0  0.7804100220781591  0.22314225631779647  0.5823300620677735  1.0000
  H   H416      1.0  0.7593579229167186  0.1969377629382461  0.5435405068963288  1.0000
  H   H417      1.0  0.7332190589586225  0.22970491380933866  0.5700656600392853  1.0000
  H   H418      1.0  0.8180559845317309  0.26074654822624627  0.4858084122752558  1.0000
  H   H419      1.0  0.8096945584100661  0.215134448552408  0.495698616430778  1.0000
  H   H420      1.0  0.8291555021027674  0.2424910331218172  0.5346624667339348  1.0000
  N   N20       1.0  0.2349590953637344  0.12649950079924108  0.6774502371197577  1.0000
  C   C365      1.0  0.26269261271744476  0.11055257035296177  0.7039274402112095  1.0000
  C   C366      1.0  0.19993111800550079  0.12936475928871027  0.7003976532824975  1.0000
  C   C367      1.0  0.22970592224425623  0.10424964106119354  0.6408825163664242  1.0000
  C   C368      1.0  0.24752459706420382  0.16174970399856894  0.6645008160900051  1.0000
  H   H421      1.0  0.2893965675965857  0.10780535952956595  0.6874035007779185  1.0000
  H   H422      1.0  0.2540832751917225  0.08386631542738834  0.7141010255561898  1.0000
  H   H423      1.0  0.26744828097984447  0.12667597827376365  0.7317965228111494  1.0000
  H   H424      1.0  0.18939287566929436  0.10311798216361455  0.7099842442910764  1.0000
  H   H425      1.0  0.2027545423157085  0.1457833284456044  0.7283875177307557  1.0000
  H   H426      1.0  0.17835445283590082  0.14133539212167523  0.6813102664809154  1.0000
  H   H427      1.0  0.20742307847769964  0.1142661540749517  0.6213457141978672  1.0000
  H   H428      1.0  0.22252614155270894  0.07686496782546626  0.6495054981914814  1.0000
  H   H429      1.0  0.25484739607044243  0.10306152961635197  0.6214840168827677  1.0000
  H   H430      1.0  0.2740383810462465  0.16039241619414726  0.6472743000957804  1.0000
  H   H431      1.0  0.25156427246106494  0.17937883533305699  0.6912612838319375  1.0000
  H   H432      1.0  0.22735097151992698  0.17430592760403552  0.6441063204930145  1.0000
  N   N21       1.0  0.5591400971612379  0.9069692188570772  0.23096845951451658  1.0000
  C   C369      1.0  0.5318077479258108  0.8955166003835471  0.26204067350364824  1.0000
  C   C370      1.0  0.5652647628723703  0.8784387511687964  0.20104295152702673  1.0000
  C   C371      1.0  0.593943732183983  0.9157441989095441  0.2511696357376038  1.0000
  C   C372      1.0  0.5455362009397652  0.9382361343886271  0.20953921497357017  1.0000
  H   H433      1.0  0.5271283795493096  0.9162411736482696  0.2855218597464989  1.0000
  H   H434      1.0  0.5408749563392262  0.8716202930328733  0.27836808524261447  1.0000
  H   H435      1.0  0.5049182626682628  0.8895726516859238  0.24793167929821205  1.0000
  H   H436      1.0  0.5395839522251142  0.8714039016241389  0.18495983691356482  1.0000
  H   H437      1.0  0.5858921005540827  0.886232169842918  0.17726190871331945  1.0000
  H   H438      1.0  0.5754195134563692  0.8543309212715119  0.2160720130865602  1.0000
  H   H439      1.0  0.6151004302275264  0.92463402948693  0.22851926544267784  1.0000
  H   H440      1.0  0.6050986060725625  0.8927276637168444  0.26759189454704874  1.0000
  H   H441      1.0  0.5902244586809804  0.937236644065061  0.27400960944428826  1.0000
  H   H442      1.0  0.5190476095942449  0.9326806394265117  0.1943795184149765  1.0000
  H   H443      1.0  0.5654038239647559  0.9473826349576605  0.1856272369791598  1.0000
  H   H444      1.0  0.5409362647143385  0.9604009993261702  0.23111626915095257  1.0000
  N   N22       1.0  0.2424291499507456  0.5996592301171781  0.4963349373254863  1.0000
  C   C373      1.0  0.2438278360952111  0.5963939231762527  0.5413522815074046  1.0000
  C   C374      1.0  0.251561638111322  0.6360995014477565  0.48449257965356624  1.0000
  C   C375      1.0  0.20525920219575328  0.5905873894041603  0.4823637895203048  1.0000
  C   C376      1.0  0.2691420773175531  0.5754961074781698  0.4772417073463493  1.0000
  H   H445      1.0  0.23923951627217277  0.5688154487911301  0.5511678839986219  1.0000
  H   H446      1.0  0.22264991545030932  0.6127867790039045  0.5567632483223328  1.0000
  H   H447      1.0  0.27097407398919277  0.6046778254387326  0.5531359552678662  1.0000
  H   H448      1.0  0.25078555762714805  0.6395928572799107  0.45069679588392286  1.0000
  H   H449      1.0  0.23198009762685357  0.6550063400586438  0.49851758875275953  1.0000
  H   H450      1.0  0.27956274277899507  0.6436082834051262  0.49459918413476744  1.0000
  H   H451      1.0  0.18410332125866527  0.6075244245558312  0.4970851358801747  1.0000
  H   H452      1.0  0.19807023970576426  0.5629389473400209  0.48994840584966476  1.0000
  H   H453      1.0  0.2028368460811144  0.5935485138331528  0.4486249265152131  1.0000
  H   H454      1.0  0.2688042661916022  0.5771660460983106  0.44325214494407933  1.0000
  H   H455      1.0  0.2632073565769326  0.5477428215266021  0.4858165789545954  1.0000
  H   H456      1.0  0.2975254865879839  0.5815880185739516  0.4871103488330519  1.0000
  N   N23       1.0  0.7495459772907284  0.5537047725498359  0.7581594285986706  1.0000
  C   C377      1.0  0.7611216639667794  0.5908903291446478  0.7601622369605251  1.0000
  C   C378      1.0  0.7105617587398704  0.5506824970645585  0.7702811399949198  1.0000
  C   C379      1.0  0.7717869968068262  0.5328345773010346  0.7864272960498488  1.0000
  C   C380      1.0  0.7546871323733878  0.5404236576544285  0.7159219305214866  1.0000
  H   H457      1.0  0.790468258606233  0.5942771812469354  0.7513216670136836  1.0000
  H   H458      1.0  0.7574587575825805  0.6018170078930778  0.7915483474541035  1.0000
  H   H459      1.0  0.7450039247838988  0.6074942462149094  0.7391259052295154  1.0000
  H   H460      1.0  0.7004563747500675  0.5231489533765736  0.7682608975507983  1.0000
  H   H461      1.0  0.7059417583747916  0.5594606163440708  0.8024442376084311  1.0000
  H   H462      1.0  0.6931184546119883  0.5670345160515047  0.7504653895901543  1.0000
  H   H463      1.0  0.8014210176717766  0.534645842085936  0.7782698347350391  1.0000
  H   H464      1.0  0.7637265809986732  0.5046376392600362  0.7857238588489718  1.0000
  H   H465      1.0  0.7683716024030482  0.5420958649152559  0.8186213420539585  1.0000
  H   H466      1.0  0.7460173767751345  0.5124925197695009  0.7131685467131545  1.0000
  H   H467      1.0  0.7838440929824683  0.5422747823262507  0.7057692402738843  1.0000
  H   H468      1.0  0.738343821719695  0.5556216148147299  0.6938024140012152  1.0000
  N   N24       1.0  0.8951187974060203  0.2887646216903333  0.30695731597075676  1.0000
  C   C381      1.0  0.9043455983931892  0.3175410951050781  0.27836600799846567  1.0000
  C   C382      1.0  0.8886378802242226  0.25607230800053016  0.2837031056452818  1.0000
  C   C383      1.0  0.8617646521394569  0.29788245040990774  0.3306262361965719  1.0000
  C   C384      1.0  0.9257963016852058  0.2835873353143486  0.335142840868138  1.0000
  H   H469      1.0  0.9094884870694939  0.3426056272966419  0.2948339290747645  1.0000
  H   H470      1.0  0.8818016307027534  0.32207034123365996  0.2565462189194349  1.0000
  H   H471      1.0  0.9292877637504665  0.31144657835800255  0.25984625277841394  1.0000
  H   H472      1.0  0.881442889820729  0.2338185755234844  0.3043358261870206  1.0000
  H   H473      1.0  0.8660680728787162  0.2590052819253111  0.26160007529597484  1.0000
  H   H474      1.0  0.913377880887935  0.2482211283382829  0.26571565270538766  1.0000
  H   H475      1.0  0.8541188459365103  0.27684741056526685  0.3527311670332818  1.0000
  H   H476      1.0  0.8380888395992563  0.3019147765209362  0.31022240243970906  1.0000
  H   H477      1.0  0.8658221756359851  0.32231477196058417  0.34877308829534054  1.0000
  H   H478      1.0  0.9196831592354844  0.26205286787169546  0.3570171365660093  1.0000
  H   H479      1.0  0.9313357063225618  0.30756281154568216  0.35359648116499076  1.0000
  H   H480      1.0  0.9513215284991621  0.27638505645596156  0.31827690353611787  1.0000
  N   N25       1.0  0.49519526893419125  0.532540391088961  0.8622460216804826  1.0000
  C   C385      1.0  0.5321599839245914  0.530596988098641  0.8434575648010717  1.0000
  C   C386      1.0  0.4879338168318664  0.5005376977095801  0.886571689853306  1.0000
  C   C387      1.0  0.467633289508277  0.5353806974354195  0.8298114898053809  1.0000
  C   C388      1.0  0.49307968488187304  0.5636494744150952  0.8892078347999827  1.0000
  H   H481      1.0  0.5387635774058026  0.5545261756230341  0.8252905106110443  1.0000
  H   H482      1.0  0.5348051832742263  0.5075957486465291  0.8227079206871373  1.0000
  H   H483      1.0  0.5535249599064025  0.528196865599155  0.8671568064524184  1.0000
  H   H484      1.0  0.5089176692906108  0.49703191380700573  0.9104371692809738  1.0000
  H   H485      1.0  0.4609319729287002  0.501623880986647  0.9026888128464392  1.0000
  H   H486      1.0  0.4883541107895705  0.4765915968512158  0.8671086155127625  1.0000
  H   H487      1.0  0.47209846356001794  0.5594384254564357  0.8111138329337194  1.0000
  H   H488      1.0  0.4394475202899895  0.5367180319557785  0.8430108530744211  1.0000
  H   H489      1.0  0.46871224145626533  0.5125661318470289  0.8085764817969009  1.0000
  H   H490      1.0  0.4654720277201741  0.5662624230421578  0.9035992995383546  1.0000
  H   H491      1.0  0.4991010363826688  0.588252903844363  0.8719504743421432  1.0000
  H   H492      1.0  0.5130576983557814  0.5620482504008149  0.9144285659205784  1.0000
  N   N26       1.0  0.3621000658146833  0.3204398527233948  0.5512648208636135  1.0000
  C   C389      1.0  0.38335133774445235  0.32825840291271774  0.5135003480604952  1.0000
  C   C390      1.0  0.3489195556930535  0.35352827231004713  0.5697319280377381  1.0000
  C   C391      1.0  0.3856505819165038  0.3021327512741324  0.580615912558453  1.0000
  C   C392      1.0  0.33046374204120516  0.2978176885836201  0.5411905376412837  1.0000
  H   H493      1.0  0.4074177264080844  0.34532780053771467  0.5199950385473103  1.0000
  H   H494      1.0  0.36636437409111705  0.3420336547788017  0.49064930810456425  1.0000
  H   H495      1.0  0.3937525898324113  0.3038187637860574  0.49886215818126606  1.0000
  H   H496      1.0  0.37195725716566763  0.3713534813035706  0.5777601948492751  1.0000
  H   H497      1.0  0.33062234394465245  0.3678558478951174  0.5487086061034034  1.0000
  H   H498      1.0  0.3328905136858842  0.34856936204642586  0.5983814552903665  1.0000
  H   H499      1.0  0.4099344782499401  0.31826487193083647  0.5888661301410155  1.0000
  H   H500      1.0  0.39562168175757045  0.2766903858958133  0.5681579199481698  1.0000
  H   H501      1.0  0.37056334688643566  0.29627051803574334  0.6095583281731028  1.0000
  H   H502      1.0  0.3137835990856126  0.29147172446418634  0.5689686158081254  1.0000
  H   H503      1.0  0.339284289152843  0.27249961542711504  0.5274028307968506  1.0000
  H   H504      1.0  0.3118778124117824  0.31088016036286925  0.5193944686235322  1.0000
  N   N27       1.0  0.5362336708124585  0.08826298543328726  0.13213106645367975  1.0000
  C   C393      1.0  0.5034068324444284  0.1015787363962648  0.11155604787283428  1.0000
  C   C394      1.0  0.5671965481890625  0.11283120429649074  0.12523551951052697  1.0000
  C   C395      1.0  0.5455815433788354  0.0534736016095716  0.11510115910253187  1.0000
  C   C396      1.0  0.5287274316563376  0.08518206982543064  0.17659691494224003  1.0000
  H   H505      1.0  0.5080791121419831  0.10391937874984114  0.07792364667253993  1.0000
  H   H506      1.0  0.49563055052419175  0.12791475957985443  0.12333944536406163  1.0000
  H   H507      1.0  0.4794411497871576  0.0837025885123932  0.11619387993668706  1.0000
  H   H508      1.0  0.5610106121358487  0.1394950104618029  0.13737774086813115  1.0000
  H   H509      1.0  0.592279478942573  0.10398702232285739  0.14099801664824377  1.0000
  H   H510      1.0  0.5739968172349059  0.11566435441138334  0.09208589488492039  1.0000
  H   H511      1.0  0.5701174971252311  0.04241875321842081  0.12996749045395012  1.0000
  H   H512      1.0  0.5515427871824148  0.05495469280490739  0.08157734997131527  1.0000
  H   H513      1.0  0.5225897363233412  0.034453036714723106  0.11938137469358305  1.0000
  H   H514      1.0  0.5530529504135488  0.07544694934975382  0.19313233777986297  1.0000
  H   H515      1.0  0.5054863092131453  0.0669324665025659  0.18316933317240747  1.0000
  H   H516      1.0  0.521868421616142  0.11109302410879662  0.19040156613188977  1.0000
  N   N28       1.0  0.5728935812930491  0.10327779003747914  0.7512944831977797  1.0000
  C   C397      1.0  0.5477725365829397  0.12739367727921524  0.7305190523292133  1.0000
  C   C398      1.0  0.605087409132591  0.09681793521873557  0.7245266442958924  1.0000
  C   C399      1.0  0.553916705169782  0.06967651741940495  0.7599150474487592  1.0000
  C   C400      1.0  0.5848023682304996  0.11915598315344765  0.7902539440474413  1.0000
  H   H517      1.0  0.523974747487815  0.13402283070697743  0.7505100142082315  1.0000
  H   H518      1.0  0.5366472265816719  0.11556630512804515  0.7020726044734859  1.0000
  H   H519      1.0  0.56158095768667  0.15249367979207346  0.7220716174010166  1.0000
  H   H520      1.0  0.6245003279761554  0.07852747634838075  0.7390689832306696  1.0000
  H   H521      1.0  0.5970230280636383  0.0847942432850027  0.6949062996885765  1.0000
  H   H522      1.0  0.6204189973914793  0.12146050462802714  0.7176300062038147  1.0000
  H   H523      1.0  0.5439078149494271  0.057165472775473125  0.7313592359786474  1.0000
  H   H524      1.0  0.5296369848510738  0.07350711258505482  0.7803559978589546  1.0000
  H   H525      1.0  0.572387694455663  0.05068860263342723  0.7750142574173052  1.0000
  H   H526      1.0  0.5610514293566101  0.12425212514844902  0.8111773520202126  1.0000
  H   H527      1.0  0.5993021544310299  0.1445312258952426  0.7850748672641298  1.0000
  H   H528      1.0  0.6038061747254846  0.10162053066647667  0.8066797532637486  1.0000
  N   N29       1.0  0.15229906744707722  0.42615847207498747  0.9115426672163854  1.0000
  C   C401      1.0  0.17360968764491477  0.3938782538858269  0.9176076086429503  1.0000
  C   C402      1.0  0.12178663409825995  0.4272278736688317  0.9416881194160928  1.0000
  C   C403      1.0  0.13756619154826025  0.4263369913036273  0.8696710628274101  1.0000
  C   C404      1.0  0.1762432837364609  0.45711878517191623  0.9172822548442197  1.0000
  H   H529      1.0  0.19681450667505002  0.39192164095350257  0.8953243508297342  1.0000
  H   H530      1.0  0.15630818454662454  0.36995006409326375  0.9138487980416008  1.0000
  H   H531      1.0  0.18519692508125518  0.39276599264889833  0.9489000863395838  1.0000
  H   H532      1.0  0.10496789015538234  0.4512095243307776  0.9381947909283176  1.0000
  H   H533      1.0  0.1033580034304946  0.4040279715719444  0.9388076593554865  1.0000
  H   H534      1.0  0.13203009434017313  0.4273635050245282  0.9735818576381319  1.0000
  H   H535      1.0  0.11902082228805953  0.4035355711268676  0.8644932675851827  1.0000
  H   H536      1.0  0.15988173820275192  0.424963625451841  0.8462112500442315  1.0000
  H   H537      1.0  0.1218376290555454  0.45062882347056055  0.8637469934526134  1.0000
  H   H538      1.0  0.18665083472456961  0.4585756161690456  0.9490900592969789  1.0000
  H   H539      1.0  0.1614559498471122  0.4819461025559675  0.9112718787919442  1.0000
  H   H540      1.0  0.20034090827482526  0.45657075648710277  0.8961104384472863  1.0000
  N   N30       1.0  0.5153672558716285  0.6905003007631993  0.386257060728308  1.0000
  C   C405      1.0  0.5398430786594033  0.7180897661819192  0.36937071738928196  1.0000
  C   C406      1.0  0.4768667481075322  0.7011800939757523  0.38180156928375475  1.0000
  C   C407      1.0  0.5230946157771738  0.6853665322245535  0.43011349400481436  1.0000
  C   C408      1.0  0.5216785960085345  0.6573836698699784  0.3637618667127185  1.0000
  H   H541      1.0  0.5691563484344762  0.7107038239747228  0.37173589049318  1.0000
  H   H542      1.0  0.536134142242259  0.7434438886330927  0.38574118031061316  1.0000
  H   H543      1.0  0.5346781160922163  0.7227502786919475  0.3363119569941735  1.0000
  H   H544      1.0  0.4576744847179096  0.6813434790228846  0.39521005789226  1.0000
  H   H545      1.0  0.4713494993595027  0.7264319355782352  0.3978549695161272  1.0000
  H   H546      1.0  0.4697592902305632  0.7046963422701734  0.34907991197006993  1.0000
  H   H547      1.0  0.5055381819748398  0.6642725272959813  0.44360391868221216  1.0000
  H   H548      1.0  0.5178129380162616  0.7096360808481429  0.4481913621909672  1.0000
  H   H549      1.0  0.5520512971588774  0.6777826627591703  0.43477161676499454  1.0000
  H   H550      1.0  0.5037988711405489  0.6358061462773659  0.37560168374982206  1.0000
  H   H551      1.0  0.5504524457632821  0.6485758147884161  0.36659139966796983  1.0000
  H   H552      1.0  0.5163708802071898  0.6602763137117904  0.33048506837098557  1.0000
  N   N31       1.0  0.5595559195111154  0.9297909183524137  0.9703560896846043  1.0000
  C   C409      1.0  0.5844818311730501  0.9158233311539937  0.9383423616569986  1.0000
  C   C410      1.0  0.5300233302537579  0.9498761685241125  0.9510851256230691  1.0000
  C   C411      1.0  0.5803303949468888  0.9530340061420912  0.997959356889617  1.0000
  C   C412      1.0  0.5434409686217072  0.900442625016588  0.9941421398121761  1.0000
  H   H553      1.0  0.6070276964489623  0.9004427345745383  0.9519873790355239  1.0000
  H   H554      1.0  0.5972317814532798  0.9373373550840581  0.919932541915131  1.0000
  H   H555      1.0  0.5697742010294741  0.8981481445312547  0.9168907187347013  1.0000
  H   H556      1.0  0.5411326350285293  0.9726126053897828  0.9333872122584856  1.0000
  H   H557      1.0  0.5138074492833503  0.9332804329342598  0.9298910904353364  1.0000
  H   H558      1.0  0.5107637591114031  0.9607481947112279  0.9745163234349343  1.0000
  H   H559      1.0  0.5626232376668093  0.9634109511635365  0.023150203727467566  1.0000
  H   H560      1.0  0.5919610789342492  0.9760952837695367  0.9813501423391418  1.0000
  H   H561      1.0  0.6033655394160771  0.938984100032784  0.012358829189101028  1.0000
  H   H562      1.0  0.5240359335085829  0.910094106350312  0.018164217179506448  1.0000
  H   H563      1.0  0.5649366760941849  0.8851396972148291  0.009794930359941612  1.0000
  H   H564      1.0  0.5280330999098909  0.8819822889114248  0.9742795761364584  1.0000
  N   N32       1.0  0.5056493182205755  0.2626834024358093  0.0019934175557079215  1.0000
  C   C413      1.0  0.5189974393772361  0.2992517050958143  0.9997458672415704  1.0000
  C   C414      1.0  0.4749985302300225  0.25763421783247453  0.9734949033063267  1.0000
  C   C415      1.0  0.49304883107597225  0.2549182825249191  0.04424137070178413  1.0000
  C   C416      1.0  0.5357124222472106  0.23889284709102715  0.9904927289440282  1.0000
  H   H565      1.0  0.5424687713095209  0.3038416184338681  0.020500815494233438  1.0000
  H   H566      1.0  0.4971748168793047  0.31783887281223805  0.008974131355575343  1.0000
  H   H567      1.0  0.5281250583938254  0.3063261890470933  0.9681723906522313  1.0000
  H   H568      1.0  0.4515963240419288  0.2749031556822315  0.9815020079730136  1.0000
  H   H569      1.0  0.48342392992921585  0.26349505620192304  0.9413198423808242  1.0000
  H   H570      1.0  0.46470086315453774  0.23008477164292263  0.9739397732344861  1.0000
  H   H571      1.0  0.48285166037614596  0.22746492376572783  0.04707068439612705  1.0000
  H   H572      1.0  0.4703550745788022  0.27256976903206265  0.05390410122295486  1.0000
  H   H573      1.0  0.5155143158663328  0.2585553222912075  0.06652213653930783  1.0000
  H   H574      1.0  0.5264779684167464  0.21115385769993747  0.9918038029668925  1.0000
  H   H575      1.0  0.559317507511484  0.24181946896810944  0.011422862082394403  1.0000
  H   H576      1.0  0.5455895981326416  0.24387536003878552  0.9586156969692079  1.0000
  N   N33       1.0  0.049312092834521204  0.25203814446477024  0.16767481343556442  1.0000
  C   C417      1.0  0.0432668418702673  0.28002572940004156  0.1373168104915335  1.0000
  C   C418      1.0  0.01684055364202708  0.24855439476028654  0.19491457102202248  1.0000
  C   C419      1.0  0.08158030030473928  0.26104634751386097  0.19239776903293382  1.0000
  C   C420      1.0  0.05568270987158219  0.21847599457712552  0.14613967229801153  1.0000
  H   H577      1.0  0.018532940873695614  0.27473772155902854  0.11878491950562024  1.0000
  H   H578      1.0  0.06700487828314072  0.2827150322032282  0.11577646372247882  1.0000
  H   H579      1.0  0.03974026091808125  0.30603315046877105  0.15236808584877376  1.0000
  H   H580      1.0  0.02017138525688944  0.2269204558120185  0.217286360586216  1.0000
  H   H581      1.0  0.012068680125174591  0.2729914868158164  0.2127827103810653  1.0000
  H   H582      1.0  0.9916127970892741  0.24283137889772294  0.17727121750898917  1.0000
  H   H583      1.0  0.08649140052922233  0.24098810160368692  0.2163351396883331  1.0000
  H   H584      1.0  0.07839544751433536  0.28690082517113447  0.20784302306817223  1.0000
  H   H585      1.0  0.10684057002921454  0.2627276928759696  0.17303396074953356  1.0000
  H   H586      1.0  0.08033251728506108  0.22003970079233037  0.12576538189690367  1.0000
  H   H587      1.0  0.0319648912301691  0.2109416776229111  0.12698996090220535  1.0000
  H   H588      1.0  0.06046078902256258  0.1967739931632788  0.16814073830775225  1.0000
  N   N34       1.0  0.9223259427257542  0.5329946895701226  0.4477068360901362  1.0000
  C   C421      1.0  0.9374857809350959  0.5615710544839951  0.4219561188383604  1.0000
  C   C422      1.0  0.9111879969259885  0.5473184440348366  0.4880426869270159  1.0000
  C   C423      1.0  0.9504914700276885  0.5059265211386211  0.4533574697504338  1.0000
  C   C424      1.0  0.8902736770516864  0.5171683385520827  0.4274668269812489  1.0000
  H   H589      1.0  0.9467558201138069  0.5516701981311324  0.3914552364625836  1.0000
  H   H590      1.0  0.9616683053351275  0.5740107245847123  0.4364479075616269  1.0000
  H   H591      1.0  0.9170600356585779  0.5825403867633727  0.41703394820827383  1.0000
  H   H592      1.0  0.900359985881153  0.5264105948931578  0.5087032353134551  1.0000
  H   H593      1.0  0.9345739335938853  0.5601305186706473  0.503822055742757  1.0000
  H   H594      1.0  0.8895478024371929  0.5674188788151084  0.4851779866323883  1.0000
  H   H595      1.0  0.9399975137727961  0.48389807625788844  0.4726120058209981  1.0000
  H   H596      1.0  0.9752065880998886  0.5170202289295427  0.46827403171347004  1.0000
  H   H597      1.0  0.9598050645329524  0.4947648203781202  0.4234587770468181  1.0000
  H   H598      1.0  0.8777461631332651  0.4957667558302889  0.4462324155380311  1.0000
  H   H599      1.0  0.8978444579573499  0.5056589645492656  0.39719937101516456  1.0000
  H   H600      1.0  0.8686161854095406  0.5368424246348382  0.42208765386679725  1.0000
  N   N35       1.0  0.7457305324500832  0.12116514760833844  0.3631461625452416  1.0000
  C   C425      1.0  0.7452370353367965  0.09257352641984909  0.39364771015022876  1.0000
  C   C426      1.0  0.7203440290227703  0.11241385435990293  0.3297828895647342  1.0000
  C   C427      1.0  0.7831624823446195  0.12563174534762928  0.34611124907322166  1.0000
  C   C428      1.0  0.734186932927586  0.15416920237084852  0.3830569702722834  1.0000
  H   H601      1.0  0.7175287619912734  0.08898354950805445  0.40765685344903635  1.0000
  H   H602      1.0  0.7644339162469691  0.09809289065938608  0.418987443666355  1.0000
  H   H603      1.0  0.7532903368843199  0.06714564220876174  0.3796527983669873  1.0000
  H   H604      1.0  0.7213382441241922  0.13265499500371714  0.30531583631445364  1.0000
  H   H605      1.0  0.7272255839338131  0.08689928039889482  0.3152137055806871  1.0000
  H   H606      1.0  0.6915309629157679  0.11054497308149586  0.34129986553803904  1.0000
  H   H607      1.0  0.7844424006186432  0.14716618035185874  0.3230740520442577  1.0000
  H   H608      1.0  0.7928575104588738  0.10128586373729505  0.3307983917336637  1.0000
  H   H609      1.0  0.8029737986864385  0.1323152410699585  0.3705698798217195  1.0000
  H   H610      1.0  0.7353690007533615  0.17646779642319177  0.36112256706769985  1.0000
  H   H611      1.0  0.7521525815487333  0.16091711717501384  0.40914614306932184  1.0000
  H   H612      1.0  0.705653429181356  0.1520891624208047  0.39530471563046055  1.0000
  N   N36       1.0  0.8185970577885322  0.6615599813856831  0.5311951994874662  1.0000
  C   C429      1.0  0.8418372773656796  0.6872630785464722  0.5088714343656378  1.0000
  C   C430      1.0  0.834509723341789  0.6262196073534443  0.5267156422944111  1.0000
  C   C431      1.0  0.7814088280110436  0.6616068152559522  0.5140721820850375  1.0000
  C   C432      1.0  0.816490246780544  0.6711494016963493  0.5750504593441224  1.0000
  H   H613      1.0  0.8309523922144255  0.7143251328804661  0.5118121438107064  1.0000
  H   H614      1.0  0.8439443863276759  0.6808438129139044  0.47565872526678127  1.0000
  H   H615      1.0  0.8701885663705519  0.687713640862536  0.5206752677620197  1.0000
  H   H616      1.0  0.8361154430681075  0.6179805995488336  0.49406501873995  1.0000
  H   H617      1.0  0.8627900633614286  0.6252698542234636  0.5389128219776927  1.0000
  H   H618      1.0  0.8180689611932358  0.606164541496788  0.5436943815205756  1.0000
  H   H619      1.0  0.7819468980346204  0.6555651730821748  0.48073068578098127  1.0000
  H   H620      1.0  0.7682749139317371  0.6876650158855733  0.5178608572243373  1.0000
  H   H621      1.0  0.7634204622939742  0.6417661565344047  0.5294118382436506  1.0000
  H   H622      1.0  0.8055226816578377  0.6980197045007918  0.5796082576158962  1.0000
  H   H623      1.0  0.8438091303953968  0.6705734535812239  0.5894370781194532  1.0000
  H   H624      1.0  0.798536857643656  0.6526999538248779  0.5925804420821207  1.0000
  N   N37       1.0  0.019823662785712015  0.5805296906327503  0.20772170912004584  1.0000
  C   C433      1.0  0.9989781638322144  0.5751176691882081  0.16978375989579253  1.0000
  C   C434      1.0  0.05940275075954404  0.5793971624805124  0.19808178669588883  1.0000
  C   C435      1.0  0.01036110155676262  0.5525695247306437  0.23738186464828592  1.0000
  C   C436      1.0  0.010620699397819067  0.6150400595685448  0.22560678401568146  1.0000
  H   H625      1.0  0.9689749256950575  0.575913375822777  0.17587631551215033  1.0000
  H   H626      1.0  0.005003211543532116  0.549160973645961  0.15572263614470772  1.0000
  H   H627      1.0  0.005783866100523616  0.5955883001204059  0.14659945618799086  1.0000
  H   H628      1.0  0.07604914233409787  0.5827878907256414  0.2260819296855605  1.0000
  H   H629      1.0  0.06732373592761953  0.553903324634137  0.18416981595357163  1.0000
  H   H630      1.0  0.06770595814668767  0.6005187438256768  0.17643306266614234  1.0000
  H   H631      1.0  0.02490282661192933  0.5564998184854989  0.26675880113500483  1.0000
  H   H632      1.0  0.0181587614094616  0.5262299299217801  0.22544069028329683  1.0000
  H   H633      1.0  0.9805476108329639  0.551820319084137  0.2445516285449958  1.0000
  H   H634      1.0  0.025205386709324484  0.6195992608532123  0.25478558520144223  1.0000
  H   H635      1.0  0.9808396118630669  0.6172242159639554  0.2323809835421713  1.0000
  H   H636      1.0  0.018718427465696852  0.6368819584067748  0.20467797301124202  1.0000
  N   N38       1.0  0.07258005907675202  0.04359928575103611  0.9035706705222435  1.0000
  C   C437      1.0  0.09039753304876497  0.037350580734883065  0.8633430815348014  1.0000
  C   C438      1.0  0.06928572585665416  0.010026081027874278  0.925889999452612  1.0000
  C   C439      1.0  0.0357976287484294  0.05840607414759513  0.8976747159513222  1.0000
  C   C440      1.0  0.09486559527105931  0.06869589127971265  0.9273265606578531  1.0000
  H   H637      1.0  0.07403245138931047  0.019159172553854242  0.8441014895609203  1.0000
  H   H638      1.0  0.11802120533568816  0.025827944815099535  0.8666918915678795  1.0000
  H   H639      1.0  0.09393455670045414  0.06218689118695098  0.8460192562866172  1.0000
  H   H640      1.0  0.054979878369854074  0.013481837372242731  0.9558284545348289  1.0000
  H   H641      1.0  0.0534090056395653  0.9902858603906779  0.9082263416050295  1.0000
  H   H642      1.0  0.09656810135729632  0.9986918282892453  0.9320806713245913  1.0000
  H   H643      1.0  0.02192294728105293  0.06395616743733235  0.9275574055670212  1.0000
  H   H644      1.0  0.017931863867132414  0.04019364058702135  0.8803624007514624  1.0000
  H   H645      1.0  0.03726872221034472  0.08356013340380844  0.8804547589462566  1.0000
  H   H646      1.0  0.09770117768353859  0.09432340677910168  0.9111582577364805  1.0000
  H   H647      1.0  0.12285637044426845  0.0586267580033888  0.932479828835323  1.0000
  H   H648      1.0  0.08214377104625514  0.07414525302147457  0.9578296426216423  1.0000
  N   N39       1.0  0.35519368135783164  0.2290595520913428  0.8232556132152199  1.0000
  C   C441      1.0  0.3195651254486715  0.24677773277113782  0.8276049373552888  1.0000
  C   C442      1.0  0.38413918168087247  0.25553483807866906  0.815277282827486  1.0000
  C   C443      1.0  0.3537598637210862  0.20398485594121027  0.788794352853931  1.0000
  C   C444      1.0  0.36324135523628026  0.20997140278712273  0.8613635248259388  1.0000
  H   H649      1.0  0.29709452709831685  0.22774376789640083  0.8345932494459793  1.0000
  H   H650      1.0  0.3123332811193759  0.260905528951795  0.7991027159009293  1.0000
  H   H651      1.0  0.32001116318794914  0.2664288949703766  0.8527972558293389  1.0000
  H   H652      1.0  0.4112512627191248  0.24307126830091338  0.8103049520964829  1.0000
  H   H653      1.0  0.378294794937318  0.2711458924295688  0.7874101820895206  1.0000
  H   H654      1.0  0.3865353755709648  0.2742687117821777  0.8413407800867851  1.0000
  H   H655      1.0  0.3323620805541748  0.1835065233945952  0.7941447534105182  1.0000
  H   H656      1.0  0.3804110534501726  0.19051336331165492  0.7842567028336548  1.0000
  H   H657      1.0  0.3474354964188813  0.2174696940191323  0.7595905042130944  1.0000
  H   H658      1.0  0.38987422234599767  0.19609697954050231  0.8589836620897153  1.0000
  H   H659      1.0  0.34160875420227194  0.19008819423198933  0.8685599557507817  1.0000
  H   H660      1.0  0.3647451595858309  0.22817598099778477  0.8879812485090626  1.0000
  N   N40       1.0  0.08818856706483902  0.9299428273771246  0.6477964003667648  1.0000
  C   C445      1.0  0.08984567480334071  0.8932358971862383  0.6333965568796885  1.0000
  C   C446      1.0  0.05043974034736087  0.938192543493533  0.6611661515819085  1.0000
  C   C447      1.0  0.09942691749075538  0.9536961801532233  0.6141064795965613  1.0000
  C   C448      1.0  0.1131589928903991  0.9346251233951461  0.682561819954012  1.0000
  H   H661      1.0  0.08149812971587145  0.874646681338968  0.6581188038289172  1.0000
  H   H662      1.0  0.11814090817331269  0.8862646421117222  0.6232894250617632  1.0000
  H   H663      1.0  0.07149812957424828  0.8887378395515417  0.6070026390002481  1.0000
  H   H664      1.0  0.048331766013865574  0.9658572256667164  0.6717245173794916  1.0000
  H   H665      1.0  0.03065099107639968  0.9344059625300376  0.6360039981483642  1.0000
  H   H666      1.0  0.04141931463143189  0.9214416769706443  0.6873864189973801  1.0000
  H   H667      1.0  0.10057929326608606  0.9815263318263392  0.6245286398564357  1.0000
  H   H668      1.0  0.08022684560663951  0.9521824492265801  0.5880925583933121  1.0000
  H   H669      1.0  0.12706644420710567  0.9469444657172931  0.6019078786307236  1.0000
  H   H670      1.0  0.10483996282509955  0.917965066326375  0.7090994083709492  1.0000
  H   H671      1.0  0.11324809650567502  0.962255629947253  0.6936733993490154  1.0000
  H   H672      1.0  0.14176898757336986  0.9277429189019454  0.6738051315767821  1.0000
  N   N41       1.0  0.040171829695365036  0.7288555160707652  0.9582922632328083  1.0000
  C   C449      1.0  0.01596448480900614  0.752307701952157  0.982162102902287  1.0000
  C   C450      1.0  0.07615981689101292  0.7270335681671567  0.9782205628986179  1.0000
  C   C451      1.0  0.04477580514623947  0.7427418184367224  0.9162806535724508  1.0000
  C   C452      1.0  0.02364388012142138  0.6934293853685456  0.9566040863351449  1.0000
  H   H673      1.0  0.9885405741819726  0.7544361425669174  0.9681428675852429  1.0000
  H   H674      1.0  0.02784903858352794  0.7791738275459728  0.9840590313664619  1.0000
  H   H675      1.0  0.012093344178305099  0.742849515781391  0.014184537179201095  1.0000
  H   H676      1.0  0.07344611093283171  0.7173995935647612  0.010298753288939144  1.0000
  H   H677      1.0  0.0949015568884568  0.7088360059291137  0.9617688696429977  1.0000
  H   H678      1.0  0.08967350598368173  0.7532607003632497  0.9796727342922374  1.0000
  H   H679      1.0  0.018025106676896163  0.7447002114036827  0.9005741975118753  1.0000
  H   H680      1.0  0.062497115191493924  0.7255089772980704  0.8971101104892595  1.0000
  H   H681      1.0  0.05753946535438659  0.7693181294742436  0.9163803513475005  1.0000
  H   H682      1.0  0.04012504964936392  0.6756107365457918  0.9366978780404319  1.0000
  H   H683      1.0  0.9955084621899375  0.6941030653901383  0.9442081923601608  1.0000
  H   H684      1.0  0.022043255662037353  0.6811887179103273  0.9874975379985828  1.0000
  N   N42       1.0  0.2645885004622026  0.0813473941084224  0.08237945966981752  1.0000
  C   C453      1.0  0.22793032315621664  0.09739478753009947  0.08135758037749774  1.0000
  C   C454      1.0  0.28588347256737423  0.09718289648399449  0.11587089485952512  1.0000
  C   C455      1.0  0.28396533535901103  0.08772493937658374  0.04301449193217266  1.0000
  C   C456      1.0  0.2607324118056835  0.04318625423766465  0.08927817076229168  1.0000
  H   H685      1.0  0.210856611945742  0.08560269214688408  0.05692398492297235  1.0000
  H   H686      1.0  0.2297881434716309  0.12609981502700213  0.07552969340451487  1.0000
  H   H687      1.0  0.21276663845213872  0.09360113416143861  0.11083491231925129  1.0000
  H   H688      1.0  0.313561056243006  0.08528841893504988  0.11776645334261727  1.0000
  H   H689      1.0  0.2899417969755864  0.12584950599842773  0.11098510920554785  1.0000
  H   H690      1.0  0.27180311380230515  0.09366716255973943  0.1460296235787524  1.0000
  H   H691      1.0  0.28720820282466697  0.11635732286635547  0.03693690573294806  1.0000
  H   H692      1.0  0.26887883978732585  0.07607257355789687  0.016924536329808726  1.0000
  H   H693      1.0  0.31191877996206885  0.07622435322488319  0.04296745480669206  1.0000
  H   H694      1.0  0.2878632333337816  0.030121312986616026  0.08957210647893699  1.0000
  H   H695      1.0  0.2442614856291403  0.030436106198264312  0.06494596035835977  1.0000
  H   H696      1.0  0.24653150298848447  0.03747197260035873  0.11893834603543009  1.0000
  N   N43       1.0  0.1736461119954688  0.8126396714923386  0.3799429004932797  1.0000
  C   C457      1.0  0.208931898339118  0.8074675977203815  0.40055417199827126  1.0000
  C   C458      1.0  0.1454734659975811  0.7895568043066483  0.3988815173270023  1.0000
  C   C459      1.0  0.17761801624823345  0.803903287885942  0.33596047161066345  1.0000
  C   C460      1.0  0.1625477944305768  0.8496608812247144  0.3844071712503887  1.0000
  H   H697      1.0  0.23083660694229363  0.8245777582623317  0.3872371115375797  1.0000
  H   H698      1.0  0.21826320686358652  0.7798514638771789  0.3979486020158231  1.0000
  H   H699      1.0  0.2069141339687649  0.8138689221558513  0.43383013760621675  1.0000
  H   H700      1.0  0.15284655872472308  0.7613581483415293  0.39591414310791445  1.0000
  H   H701      1.0  0.14173578201173503  0.7952518226988158  0.4320973678468338  1.0000
  H   H702      1.0  0.11843645521563625  0.7926778961862632  0.38414381014702703  1.0000
  H   H703      1.0  0.198649754301888  0.8206947016385521  0.32046375851392184  1.0000
  H   H704      1.0  0.15155230201688363  0.8077454556862393  0.3193645794754986  1.0000
  H   H705      1.0  0.1856839254499262  0.7760869455670655  0.3312873028221348  1.0000
  H   H706      1.0  0.1359580836139484  0.854646123687052  0.3694516006258284  1.0000
  H   H707      1.0  0.18313328327818945  0.8678158933057004  0.37031356615882394  1.0000
  H   H708      1.0  0.15965326343615596  0.857406372347899  0.41719511098874806  1.0000
  N   N44       1.0  0.25605425780317465  0.5678399327320982  0.7441920744172911  1.0000
  C   C461      1.0  0.2682361289268979  0.5698515076275219  0.7009236941710022  1.0000
  C   C462      1.0  0.272945758001909  0.5371458170960802  0.7636930164671256  1.0000
  C   C463      1.0  0.21579573599706792  0.5642505760994849  0.7462383313936607  1.0000
  C   C464      1.0  0.26728103946743476  0.6000695904157238  0.7660227500798527  1.0000
  H   H709      1.0  0.2557001291971874  0.5923563592438562  0.6849166634118626  1.0000
  H   H710      1.0  0.2609822125094192  0.545476380581794  0.6839622507662229  1.0000
  H   H711      1.0  0.2984526131132671  0.5730463680546131  0.6983700404107934  1.0000
  H   H712      1.0  0.303329949292021  0.5382432567066666  0.7611702731620317  1.0000
  H   H713      1.0  0.26540420174411133  0.5355463645885524  0.7967919390685935  1.0000
  H   H714      1.0  0.26417005430570734  0.5121729301196856  0.7489078622200677  1.0000
  H   H715      1.0  0.2056405239568636  0.5647287656094856  0.7784724478082221  1.0000
  H   H716      1.0  0.20639169200538998  0.5391119961128088  0.7323585261177764  1.0000
  H   H717      1.0  0.20212177574890167  0.5861104215074127  0.7301669339757692  1.0000
  H   H718      1.0  0.29749459336201484  0.6038070372722552  0.7648070284058187  1.0000
  H   H719      1.0  0.25886274940518295  0.5990546921722734  0.7989746804276759  1.0000
  H   H720      1.0  0.2545816813816202  0.6237766557925332  0.7526455936661812  1.0000
  N   N45       1.0  0.7300556137613302  0.7394907802684194  0.7637921502187037  1.0000
  C   C465      1.0  0.6915669974950857  0.7383024746376363  0.7507199412452885  1.0000
  C   C466      1.0  0.734800151124013  0.7674112658514527  0.7947675644978848  1.0000
  C   C467      1.0  0.7540095177368873  0.7468493509311976  0.7279760786174823  1.0000
  C   C468      1.0  0.7398947022961069  0.7053389255943168  0.7816525333239415  1.0000
  H   H721      1.0  0.6870822354434949  0.7172545065194184  0.7276201976676979  1.0000
  H   H722      1.0  0.6832506342566477  0.7636764584355549  0.7371188337006274  1.0000
  H   H723      1.0  0.6727470738391328  0.7329277065144492  0.7770778199557941  1.0000
  H   H724      1.0  0.7634358309555428  0.7685298085606798  0.8058100205114194  1.0000
  H   H725      1.0  0.7285777486394743  0.7937226109611744  0.7820618960135319  1.0000
  H   H726      1.0  0.7165789836115524  0.7630953346307144  0.8219611733755057  1.0000
  H   H727      1.0  0.7830896956906719  0.7483716989776004  0.7370046242361826  1.0000
  H   H728      1.0  0.7474113081386031  0.7724362993190664  0.7136227884604476  1.0000
  H   H729      1.0  0.7518058114010665  0.7258800391031113  0.7043554479261074  1.0000
  H   H730      1.0  0.7230307259416107  0.6995730847864947  0.8095395724014514  1.0000
  H   H731      1.0  0.7691165785134765  0.7049227138669194  0.7906521263205555  1.0000
  H   H732      1.0  0.7358191221309384  0.6835448222114912  0.7593803668367473  1.0000
  N   N46       1.0  0.8457635407960955  0.8773198914681541  0.10267687539070858  1.0000
  C   C469      1.0  0.8589803625423317  0.8618999429985859  0.06368827808028632  1.0000
  C   C470      1.0  0.8663402103224482  0.8622796509865718  0.1369705507893746  1.0000
  C   C471      1.0  0.8063297529649011  0.8694242185349528  0.10825981394195927  1.0000
  C   C472      1.0  0.8515440520687826  0.915707267382738  0.10170654432418114  1.0000
  H   H733      1.0  0.8441111674989586  0.8728078250038963  0.03713827449990603  1.0000
  H   H734      1.0  0.8548319529094682  0.8329808735939321  0.06317474963924719  1.0000
  H   H735      1.0  0.8887051400480542  0.8672628435047788  0.058624301064840845  1.0000
  H   H736      1.0  0.8625867238581229  0.8333402025886554  0.13870681359797965  1.0000
  H   H737      1.0  0.8962512810464802  0.867710080126586  0.13355539974364938  1.0000
  H   H738      1.0  0.8572378283731541  0.8735138938583021  0.16686320812631417  1.0000
  H   H739      1.0  0.7953197947859099  0.8804643663902306  0.13747518692844007  1.0000
  H   H740      1.0  0.8008570089975362  0.8406722296135655  0.1087919079826265  1.0000
  H   H741      1.0  0.7900431882504142  0.8805058439095329  0.08292894821652985  1.0000
  H   H742      1.0  0.8409929283574562  0.928432363462214  0.13013067167808479  1.0000
  H   H743      1.0  0.8374233440355973  0.9278089373414619  0.07539923169392737  1.0000
  H   H744      1.0  0.8811316242303754  0.9225534697220792  0.09866480903083352  1.0000
  N   N47       1.0  0.29092100375678365  0.8168495808949165  0.07511085874705525  1.0000
  C   C473      1.0  0.29149628934214084  0.81066991861831  0.030422163063038354  1.0000
  C   C474      1.0  0.30853493288036726  0.7872529751570049  0.0960170661862092  1.0000
  C   C475      1.0  0.2525921094086322  0.8197781901776825  0.08966438218293304  1.0000
  C   C476      1.0  0.3109931343569863  0.8496486465318044  0.08429597236884478  1.0000
  H   H745      1.0  0.2785556108887197  0.8326584118763625  0.013765478633920525  1.0000
  H   H746      1.0  0.27614050503508497  0.7863501302157746  0.022414136515227057  1.0000
  H   H747      1.0  0.31992929666925346  0.8078521089228105  0.018328475103047026  1.0000
  H   H748      1.0  0.29429785834803035  0.7620376119868715  0.0894107430170692  1.0000
  H   H749      1.0  0.33759273753032704  0.7843875795669716  0.08607007172679881  1.0000
  H   H750      1.0  0.30796006297916156  0.7908447247516253  0.12984545423877836  1.0000
  H   H751      1.0  0.25083512355794824  0.8230758006920519  0.12348814339247949  1.0000
  H   H752      1.0  0.2364471886283349  0.7958614192815692  0.08195636873155365  1.0000
  H   H753      1.0  0.23876198761118003  0.842632897939686  0.07569033400431424  1.0000
  H   H754      1.0  0.30987991710946217  0.855849180609594  0.11759250804603205  1.0000
  H   H755      1.0  0.29913397034421163  0.872368153275966  0.06795003208542982  1.0000
  H   H756      1.0  0.34034680922855304  0.8480198180424954  0.07496444712016048  1.0000
  N   N48       1.0  0.5710424715283523  0.6518810761756582  0.654146935519294  1.0000
  C   C477      1.0  0.5329400831536958  0.6526095799890642  0.6400039464627055  1.0000
  C   C478      1.0  0.5813358402690849  0.686811069206684  0.6700623307549084  1.0000
  C   C479      1.0  0.595799224212353  0.6424644835372209  0.6197499143008371  1.0000
  C   C480      1.0  0.5740337926825677  0.625550167148932  0.6869034983685274  1.0000
  H   H757      1.0  0.5136846984982314  0.6593519676110741  0.6652742883047502  1.0000
  H   H758      1.0  0.5242717200886639  0.6266475734599343  0.6277579558781589  1.0000
  H   H759      1.0  0.5294006323875871  0.6723116391878032  0.6153810054284946  1.0000
  H   H760      1.0  0.6100704891168406  0.6871598814685209  0.6808897946727991  1.0000
  H   H761      1.0  0.5789207835972571  0.7072959661733986  0.6460666929917739  1.0000
  H   H762      1.0  0.5633228674081494  0.6946038202310812  0.696246708127772  1.0000
  H   H763      1.0  0.6248431126983567  0.642197372470965  0.6293344381478246  1.0000
  H   H764      1.0  0.5935650080742186  0.6613436116658671  0.593994804977449  1.0000
  H   H765      1.0  0.5891360674228511  0.6159886713027902  0.607356679333048  1.0000
  H   H766      1.0  0.6022301033626547  0.6247911412499187  0.6987153025000836  1.0000
  H   H767      1.0  0.5669170932230743  0.5988021380585662  0.6757519832836536  1.0000
  H   H768      1.0  0.5554034716834959  0.631544832886508  0.7131367681191277  1.0000
