data_image0
_chemical_formula_structural       FeS2FeS2FeSFeS3FeS2FeS2FeSFeS3FeS2FeS2FeSFeS3FeS2FeS2FeSFeS3FeS2FeS2FeSFeS3FeS2FeS2FeSFeS3C6H4C6H4C6H4C6H4C6H4C6H4C6H4C6H4C6H4C6H4C6H4C6H4FeS2FeS2FeSFeS3FeS2FeS2FeSFeS3FeS2FeS2FeSFeS3FeS2FeS2FeSFeS3FeS2FeS2FeSFeS3FeS2FeS2FeSFeS3C6H4C6H4C6H4C6H4C6H4C6H4C6H4C6H4C6H4C6H4C6H4C6H4FeS2FeS2FeSFeS3FeS2FeS2FeSFeS3FeS2FeS2FeSFeS3FeS2FeS2FeSFeS3FeS2FeS2FeSFeS3FeS2FeS2FeSFeS3C6H4C6H4C6H4C6H4C6H4C6H4C6H4C6H4C6H4C6H4C6H4C6H4FeS2FeS2FeSFeS3FeS2FeS2FeSFeS3FeS2FeS2FeSFeS3FeS2FeS2FeSFeS3FeS2FeS2FeSFeS3FeS2FeS2FeSFeS3C6H4C6H4C6H4C6H4C6H4C6H4C6H4C6H4C6H4C6H4C6H4C6H4NC4H12NC4H12NC4H12NC4H12NC4H12NC4H12NC4H12NC4H12NC4H12NC4H12NC4H12NC4H12NC4H12NC4H12NC4H12NC4H12NC4H12NC4H12NC4H12NC4H12NC4H12NC4H12NC4H12NC4H12NC4H12NC4H12NC4H12NC4H12NC4H12NC4H12NC4H12NC4H12NC4H12NC4H12NC4H12NC4H12NC4H12NC4H12NC4H12NC4H12NC4H12NC4H12NC4H12NC4H12NC4H12NC4H12NC4H12NC4H12
_chemical_formula_sum              "Fe96 S192 C480 H768 N48"
_cell_length_a       44.97404319805636
_cell_length_b       37.11946088452055
_cell_length_c       28.706947856851286
_cell_angle_alpha    89.81264564256573
_cell_angle_beta     90.14810672267876
_cell_angle_gamma    90.38033564439556

_space_group_name_H-M_alt    "P 1"
_space_group_IT_number       1

loop_
  _space_group_symop_operation_xyz
  'x, y, z'

loop_
  _atom_site_type_symbol
  _atom_site_label
  _atom_site_symmetry_multiplicity
  _atom_site_fract_x
  _atom_site_fract_y
  _atom_site_fract_z
  _atom_site_occupancy
  Fe  Fe1       1.0  0.35369814705605546  0.5190546202687809  0.9172797210214815  1.0000
  S   S1        1.0  0.3670321321792658  0.5531797723709644  0.8565600437746665  1.0000
  S   S2        1.0  0.33199818598234704  0.46598510479562166  0.9008850583947654  1.0000
  Fe  Fe2       1.0  0.37228214995922276  0.5761095543448002  0.987078770869182  1.0000
  S   S3        1.0  0.38603958062982247  0.6156215816816016  0.9315961386047794  1.0000
  S   S4        1.0  0.37528726611690405  0.5901945746919945  0.06318379610333369  1.0000
  Fe  Fe3       1.0  0.3445284048329572  0.5976445362221461  0.8947245386950919  1.0000
  S   S5        1.0  0.3146966224419548  0.6322753701986638  0.8504970806121044  1.0000
  Fe  Fe4       1.0  0.40723115254380987  0.5673842478261304  0.8990130282520968  1.0000
  S   S6        1.0  0.45171566491034837  0.572388618542727  0.8639548285787029  1.0000
  S   S7        1.0  0.3286421445532668  0.5625189547995303  0.953444616010167  1.0000
  S   S8        1.0  0.3961871847587691  0.5286969582103928  0.9568811498935343  1.0000
  Fe  Fe5       1.0  0.07941473397724082  0.15944993512177996  0.6606247266111888  1.0000
  S   S9        1.0  0.07917815892646161  0.2164406787561494  0.6352265047385348  1.0000
  S   S10       1.0  0.047641991358480636  0.11866955054988382  0.630814371719926  1.0000
  Fe  Fe6       1.0  0.12634992154527622  0.17497925856213972  0.7344229933032355  1.0000
  S   S11       1.0  0.12902788094049286  0.2336502341915329  0.715716957260071  1.0000
  S   S12       1.0  0.15245467358955872  0.14893346004449803  0.792263850464796  1.0000
  Fe  Fe7       1.0  0.07950907211592198  0.23046577992947273  0.7105393782965778  1.0000
  S   S13       1.0  0.047412947582911764  0.2708518813914851  0.7377938515213537  1.0000
  Fe  Fe8       1.0  0.12852748308977124  0.2134574667999839  0.6422559765397359  1.0000
  S   S14       1.0  0.15490966471104362  0.23755573112445377  0.5838606272047546  1.0000
  S   S15       1.0  0.0765671897976209  0.17359485709114592  0.7360963114574086  1.0000
  S   S16       1.0  0.1291587263784894  0.1548093667400923  0.6609088141863206  1.0000
  Fe  Fe9       1.0  0.5126509759261346  0.6753641486390887  0.17433114962646235  1.0000
  S   S17       1.0  0.4339305858400395  0.1542679646088958  0.08092997818831793  1.0000
  S   S18       1.0  0.49893152604225216  0.6677138784562416  0.0993718311507914  1.0000
  Fe  Fe10      1.0  0.995245651939943  0.6725525833556725  0.2122205788716722  1.0000
  S   S19       1.0  0.05642349627959011  0.22775206495170572  0.05902329634816583  1.0000
  S   S20       1.0  0.9943057820412355  0.6253711143000034  0.26141960979239465  1.0000
  Fe  Fe11      1.0  0.44972570176702237  0.18778919703615626  0.1406859250640394  1.0000
  S   S21       1.0  0.45747489805908265  0.24717059550489684  0.1336921683501878  1.0000
  Fe  Fe12      1.0  0.04431669268008501  0.25155798080837444  0.9901901578526598  1.0000
  S   S22       1.0  0.08163329229637674  0.2758187189681876  0.9496386199908728  1.0000
  S   S23       1.0  0.481928123318342  0.6652348014110032  0.23440362931320202  1.0000
  S   S24       1.0  0.998628526764542  0.668906427099866  0.134339688102175  1.0000
  Fe  Fe13      1.0  0.36447668812375833  0.3698559428282324  0.26749034299751384  1.0000
  S   S25       1.0  0.3729162690775982  0.41818366792108264  0.22242392346269874  1.0000
  S   S26       1.0  0.3497925649902435  0.3176175333370104  0.2362968356100346  1.0000
  Fe  Fe14      1.0  0.38066871936350416  0.4085687711643161  0.3565455624269505  1.0000
  S   S27       1.0  0.3907389221697598  0.46049711889137696  0.31961433813287327  1.0000
  S   S28       1.0  0.3855368606983739  0.39950224409750096  0.4333077488899527  1.0000
  Fe  Fe15      1.0  0.3493693786666152  0.44804469563456545  0.27885004638876204  1.0000
  S   S29       1.0  0.31443279803278207  0.4891617904701881  0.26366333172451817  1.0000
  Fe  Fe16      1.0  0.4134037668372074  0.4255348298683917  0.2670131898163181  1.0000
  S   S30       1.0  0.45710974166669666  0.4430200827858144  0.2362992579710052  1.0000
  S   S31       1.0  0.3372241210695078  0.39894931845800224  0.32034400767628496  1.0000
  S   S32       1.0  0.407019421034324  0.3744959159362964  0.30781372534482443  1.0000
  Fe  Fe17      1.0  0.1321470569459856  0.47409064307912324  0.31934895240127015  1.0000
  S   S33       1.0  0.146428212463021  0.41650023732856617  0.31531352752520586  1.0000
  S   S34       1.0  0.1486849359199683  0.5102191112872093  0.37607280877935567  1.0000
  Fe  Fe18      1.0  0.09779894689001141  0.47097890754482474  0.22900364128895342  1.0000
  S   S35       1.0  0.11013932957997154  0.4135974214619974  0.21600536266651624  1.0000
  S   S36       1.0  0.06816854562503079  0.4977822738033391  0.1764545526297328  1.0000
  Fe  Fe19      1.0  0.09966153437561201  0.4058037664616269  0.2913571359823883  1.0000
  S   S37       1.0  0.07180691553947663  0.35792559394710177  0.3118791377064812  1.0000
  Fe  Fe20      1.0  0.15550388047693656  0.42983647572355566  0.24056610835330014  1.0000
  S   S38       1.0  0.19630441792224462  0.4074373484602847  0.20718614764721915  1.0000
  S   S39       1.0  0.08429508222354348  0.4622690178732785  0.3033479885024882  1.0000
  S   S40       1.0  0.14431965956680537  0.48841238092089717  0.24583155202862073  1.0000
  Fe  Fe21      1.0  0.20007001716564934  0.43663984054744537  0.6039232813903336  1.0000
  S   S41       1.0  0.23972671340225307  0.41105323305466845  0.571211363418118  1.0000
  S   S42       1.0  0.1556332434154751  0.4292319343895877  0.5693941662030166  1.0000
  Fe  Fe22      1.0  0.2352769645360061  0.46335187073725875  0.6878333288897738  1.0000
  S   S43       1.0  0.2781790765095729  0.4400593260191545  0.6624854537684716  1.0000
  S   S44       1.0  0.23116612188791522  0.4968801094226462  0.7525521468758877  1.0000
  Fe  Fe23      1.0  0.2638422938469532  0.4613362117271388  0.5926747251512076  1.0000
  S   S45       1.0  0.29226795422751745  0.49310641322319154  0.5430067718315732  1.0000
  Fe  Fe24      1.0  0.24988525564718234  0.39199622155406855  0.6436523991087377  1.0000
  S   S46       1.0  0.25981986663314155  0.3343028216347219  0.6606894891196783  1.0000
  S   S47       1.0  0.22313646131518192  0.4888124743010831  0.6195096688110571  1.0000
  S   S48       1.0  0.20814271649790694  0.4136652379185643  0.6749992187821692  1.0000
  C   C1        1.0  0.15018599334420382  0.48778484120928517  0.4298171772617835  1.0000
  C   C2        1.0  0.13328693117767432  0.4565625402808492  0.4375017945229794  1.0000
  C   C3        1.0  0.1347895105549299  0.43883155767737253  0.4806938163907155  1.0000
  C   C4        1.0  0.15389884770317466  0.4516453732363866  0.5156140494383635  1.0000
  C   C5        1.0  0.17128473402271435  0.4823754074802986  0.5074627598961843  1.0000
  C   C6        1.0  0.16902421013772143  0.5007943928102147  0.46490742684588154  1.0000
  H   H1        1.0  0.11878786440227353  0.446347904922749  0.41041799358552855  1.0000
  H   H2        1.0  0.12143046884302758  0.4149586409225881  0.4868332821851107  1.0000
  H   H3        1.0  0.18591253334174887  0.49252659177121344  0.5343583686848646  1.0000
  H   H4        1.0  0.18202893321890157  0.525019673204904  0.4591125859415353  1.0000
  C   C7        1.0  0.48371084293446254  0.40873080435168363  0.233591837813746  1.0000
  C   C8        1.0  0.513607707982224  0.4180699044982444  0.22764924221979652  1.0000
  C   C9        1.0  0.023203747466675303  0.3980998769566435  0.2868412964691204  1.0000
  C   C10       1.0  0.03355308433186777  0.36680002590258604  0.3085928064759291  1.0000
  C   C11       1.0  0.013204411569109389  0.34266952884660773  0.3285886263710508  1.0000
  C   C12       1.0  0.4757442143835864  0.3725293308989783  0.23979119214467134  1.0000
  H   H5        1.0  0.5198697877603184  0.4458221985378212  0.22180557484559452  1.0000
  H   H6        1.0  0.038636594564069905  0.4165403421835769  0.27056363845675435  1.0000
  H   H7        1.0  0.021007775344577807  0.31842480705034687  0.3455345296947165  1.0000
  H   H8        1.0  0.4526972994493055  0.36499883575887265  0.24281587966335486  1.0000
  C   C13       1.0  0.2816313222485399  0.46660165702210105  0.2478743099082047  1.0000
  C   C14       1.0  0.2543073455458052  0.4841907425189393  0.2510343013516301  1.0000
  C   C15       1.0  0.22794613956924062  0.46596561095207834  0.2392007161542232  1.0000
  C   C16       1.0  0.2289545150445999  0.4304842337775186  0.2229636346470064  1.0000
  C   C17       1.0  0.2563773304298312  0.4131694468286604  0.21911291644348807  1.0000
  C   C18       1.0  0.2826534614351855  0.43103666036745086  0.23209544136374005  1.0000
  H   H9        1.0  0.2534648888678648  0.5117499608930864  0.26312266343706303  1.0000
  H   H10       1.0  0.20693466190375956  0.4795772773455476  0.2419741034760305  1.0000
  H   H11       1.0  0.25726062819232287  0.3857016813673446  0.20663122389220812  1.0000
  H   H12       1.0  0.30367628301870553  0.41724862653883277  0.2294236237865551  1.0000
  C   C19       1.0  0.3596468397837312  0.42541862779704664  0.4639787216648021  1.0000
  C   C20       1.0  0.34646945474906615  0.4117394909458185  0.5045830012690298  1.0000
  C   C21       1.0  0.3254108688809627  0.4322058029536844  0.5288047088269913  1.0000
  C   C22       1.0  0.3182959161106455  0.466850036565182  0.5132540738670862  1.0000
  C   C23       1.0  0.3318403963909569  0.4807285422724934  0.4731082860383867  1.0000
  C   C24       1.0  0.35208228065215164  0.45980187850189175  0.448010260317317  1.0000
  H   H13       1.0  0.3522388984953175  0.38512014489861546  0.5169664686436533  1.0000
  H   H14       1.0  0.31502567855983715  0.421369353054135  0.5598421609498718  1.0000
  H   H15       1.0  0.32647187961095575  0.5075921114408554  0.4611665634809791  1.0000
  H   H16       1.0  0.3622859331516439  0.4705888352562544  0.41684622708677393  1.0000
  C   C25       1.0  0.047054640038032905  0.5324757284847373  0.20067506146892358  1.0000
  C   C26       1.0  0.025951930425563374  0.5502362365467292  0.1732225968136363  1.0000
  C   C27       1.0  0.009707416121562288  0.5789244577123207  0.1917355583931497  1.0000
  C   C28       1.0  0.014124595793700236  0.5893637571139141  0.23801213595848725  1.0000
  C   C29       1.0  0.035088929266942195  0.5714497120645153  0.26555213165686525  1.0000
  C   C30       1.0  0.05184739852610075  0.5433565381670905  0.24668291040210585  1.0000
  H   H17       1.0  0.02229219144409244  0.5420568371050741  0.13750211646393995  1.0000
  H   H18       1.0  0.9933685818504796  0.5925825008432303  0.17046368367202347  1.0000
  H   H19       1.0  0.03898966786888496  0.5801028965998334  0.30102526097765075  1.0000
  H   H20       1.0  0.06890430405646525  0.5307738261454518  0.2674643672515211  1.0000
  C   C31       1.0  0.42625029570163125  0.269213380132219  0.155499171779604  1.0000
  C   C32       1.0  0.39916044112477406  0.2507453457900798  0.1589342986385476  1.0000
  C   C33       1.0  0.37517859861373515  0.2662844751357876  0.18218950720790886  1.0000
  C   C34       1.0  0.378271490210438  0.3004852411331404  0.20181053993748868  1.0000
  C   C35       1.0  0.40474412058474835  0.319934459997028  0.1958209570417935  1.0000
  C   C36       1.0  0.4288220934388352  0.30426113152942297  0.17269280467459008  1.0000
  H   H21       1.0  0.39671176678946196  0.2243350021803171  0.14399399203210847  1.0000
  H   H22       1.0  0.3545234884328409  0.25145765725942937  0.18616218869910714  1.0000
  H   H23       1.0  0.4067940855537125  0.34682249741725996  0.20968833344407933  1.0000
  H   H24       1.0  0.44961601630793185  0.3188827706369947  0.1693925633469305  1.0000
  C   C37       1.0  0.07165761310860123  0.27855581510470456  0.8909791573440827  1.0000
  C   C38       1.0  0.04171790189815517  0.27731735452257444  0.8776129277989111  1.0000
  C   C39       1.0  0.03411926817654254  0.2771347627467192  0.830199495465201  1.0000
  C   C40       1.0  0.05649630075531203  0.276774928314513  0.7964661140959681  1.0000
  C   C41       1.0  0.08635226889109492  0.2784170421470199  0.809966223559455  1.0000
  C   C42       1.0  0.09393030423524676  0.2798288361933361  0.8571894205494555  1.0000
  H   H25       1.0  0.024445816118974915  0.27663059179250243  0.9037733168157774  1.0000
  H   H26       1.0  0.011018338705491125  0.2764013149829213  0.8197360819252096  1.0000
  H   H27       1.0  0.10367093904073839  0.2789278353935326  0.784063778320733  1.0000
  H   H28       1.0  0.11708013879083846  0.28102494268616174  0.867496184090229  1.0000
  C   C43       1.0  0.2305077866162813  0.30763190595513684  0.6395621530447387  1.0000
  C   C44       1.0  0.22038910249477925  0.31200482961574244  0.5937978580452707  1.0000
  C   C45       1.0  0.19772890640780386  0.2896607451467669  0.5763690915117401  1.0000
  C   C46       1.0  0.18488928337207597  0.2631907938484637  0.6048633220716852  1.0000
  C   C47       1.0  0.1951233447923695  0.25864757194076377  0.6505537999329529  1.0000
  C   C48       1.0  0.21778078031619144  0.2810078934960442  0.667975163133793  1.0000
  H   H29       1.0  0.23041161767816384  0.33218509208781305  0.5714997242378006  1.0000
  H   H30       1.0  0.18992912366757256  0.29322017170041814  0.5409681937664929  1.0000
  H   H31       1.0  0.1857750391780269  0.23777674163183862  0.6724401486715373  1.0000
  H   H32       1.0  0.2252977941769655  0.2778406230327599  0.7035550338592368  1.0000
  C   C49       1.0  0.2773039191474689  0.6271018277615124  0.8662647368530465  1.0000
  C   C50       1.0  0.22245904856934703  0.21820899575796582  0.7930343488146505  1.0000
  C   C51       1.0  0.19447659731262137  0.20275694462201066  0.7847081660953623  1.0000
  C   C52       1.0  0.18766626064767508  0.1683837986170158  0.8017969662062329  1.0000
  C   C53       1.0  0.2394728566840726  0.616153327820596  0.9248738781678459  1.0000
  C   C54       1.0  0.2694754256424706  0.6182618096828109  0.9120148315602581  1.0000
  H   H33       1.0  0.22752074943042833  0.24490062301088436  0.7798880677706623  1.0000
  H   H34       1.0  0.1781917552108958  0.21780499500107137  0.765624394939145  1.0000
  H   H35       1.0  0.23354268593581012  0.6094980605677641  0.9603975437739086  1.0000
  H   H36       1.0  0.28646016035936117  0.614473318435329  0.9380497161887817  1.0000
  C   C55       1.0  0.4823962108860221  0.569036676638546  0.9015513910719223  1.0000
  C   C56       1.0  0.44621431689614505  0.14650915123598995  0.8189754278836751  1.0000
  C   C57       1.0  0.9869772282113184  0.11258576916377439  0.6374557658770079  1.0000
  C   C58       1.0  0.011242075401424217  0.1356646410504303  0.6299322338174651  1.0000
  C   C59       1.0  0.008766021830655314  0.6060829289469059  0.7780131210133696  1.0000
  C   C60       1.0  0.5110793450052785  0.5740520092022636  0.8837456551638618  1.0000
  H   H37       1.0  0.42461335456574284  0.14600730051966337  0.8023608162729997  1.0000
  H   H38       1.0  0.990579499956444  0.08401584788904914  0.6422693819707628  1.0000
  H   H39       1.0  0.01213667734742279  0.5773055252635256  0.7760047064417761  1.0000
  H   H40       1.0  0.5141348323020787  0.5787390785952253  0.8468316788573568  1.0000
  C   C61       1.0  0.40874472170065146  0.6135772045199681  0.07304032863170917  1.0000
  C   C62       1.0  0.4313002885604048  0.612155866105431  0.03983577667096916  1.0000
  C   C63       1.0  0.45880131401854013  0.6287021945467577  0.04842998283397559  1.0000
  C   C64       1.0  0.4639474844214971  0.6472641381612931  0.09006497857242945  1.0000
  C   C65       1.0  0.4412611532371064  0.6489891471853997  0.12330633685486792  1.0000
  C   C66       1.0  0.41373126916647296  0.6319364689325858  0.11495450516751449  1.0000
  H   H41       1.0  0.4277361365593204  0.5976658408674435  0.00776394145635817  1.0000
  H   H42       1.0  0.476152068402913  0.6265228193210427  0.022858456875133326  1.0000
  H   H43       1.0  0.44463124558435924  0.6640242839956935  0.15498191405683093  1.0000
  H   H44       1.0  0.39627965764435513  0.6332156039918495  0.14075205968473803  1.0000
  C   C67       1.0  0.30217434876353794  0.4730326485752369  0.8621371963483837  1.0000
  C   C68       1.0  0.2873626419735802  0.5060607991239626  0.8616041228085786  1.0000
  C   C69       1.0  0.2643863799343469  0.5123104889855162  0.8296140520603695  1.0000
  C   C70       1.0  0.25681840035303294  0.48608765203451704  0.7966510538938844  1.0000
  C   C71       1.0  0.2713176442660451  0.452826165987561  0.797312093170727  1.0000
  C   C72       1.0  0.29374880950766524  0.44616846324254394  0.830429388036337  1.0000
  H   H45       1.0  0.2934994898434197  0.5269056180924313  0.8859141564671689  1.0000
  H   H46       1.0  0.2533307053689278  0.5381178341354377  0.8294402934378264  1.0000
  H   H47       1.0  0.2655072589668873  0.4323594907120859  0.7720586200920401  1.0000
  H   H48       1.0  0.30512440592851814  0.42056832010312184  0.8306547334525474  1.0000
  Fe  Fe25      1.0  0.34936741627215945  0.12196428378946345  0.7778845179289307  1.0000
  S   S49       1.0  0.3566920736032211  0.18040972361396412  0.7932934411883181  1.0000
  S   S50       1.0  0.3556654896088712  0.09988692783826014  0.7061966160226174  1.0000
  Fe  Fe26      1.0  0.33096990976686236  0.10414685430314274  0.8764826797622804  1.0000
  S   S51       1.0  0.33567234374971855  0.1611938492331304  0.9004998768924547  1.0000
  S   S52       1.0  0.3164294045942654  0.061411681488841685  0.9263838941182918  1.0000
  Fe  Fe27      1.0  0.3139888996114889  0.1752126325105252  0.8328773222940944  1.0000
  S   S53       1.0  0.27960907542786084  0.21780635196414577  0.8243832753482023  1.0000
  Fe  Fe28      1.0  0.3777631533963401  0.16047200871112155  0.8590967062253106  1.0000
  S   S54       1.0  0.4196207733164919  0.18248954128450112  0.8904826374318271  1.0000
  S   S55       1.0  0.3049900139142535  0.1180814946107338  0.8125929520697146  1.0000
  S   S56       1.0  0.3747400296859729  0.10206700091360887  0.8401398576706249  1.0000
  Fe  Fe29      1.0  0.10138266459323969  0.654038150819661  0.7912512830660622  1.0000
  S   S57       1.0  0.1033313102689358  0.713707544086186  0.7776348937897269  1.0000
  S   S58       1.0  0.06899526822842936  0.61313907307299  0.7635531966247112  1.0000
  Fe  Fe30      1.0  0.15176643720196636  0.6564527646984607  0.8614207745708367  1.0000
  S   S59       1.0  0.15783943599541314  0.7161646130809942  0.8556538068891576  1.0000
  S   S60       1.0  0.179933274454408  0.623786089313154  0.909853582038304  1.0000
  Fe  Fe31      1.0  0.1079971165070393  0.7176811209295594  0.8553183663569764  1.0000
  S   S61       1.0  0.08068590000563643  0.7562188570456788  0.8966866904446495  1.0000
  Fe  Fe32      1.0  0.1527536862160725  0.7066206870500384  0.7790545335325165  1.0000
  S   S62       1.0  0.18515261702040414  0.7294788320165121  0.7276790064393418  1.0000
  S   S63       1.0  0.10237736236808935  0.6586521090621184  0.8688033712287356  1.0000
  S   S64       1.0  0.15045746709595847  0.6465591029732402  0.7847221265826153  1.0000
  Fe  Fe33      1.0  0.40422098955975405  0.12798651353611246  0.13363098850526645  1.0000
  S   S65       1.0  0.5339662823294946  0.7248059975756453  0.20560759132612572  1.0000
  S   S66       1.0  0.3559432231117776  0.11518445321288984  0.12541388599046255  1.0000
  Fe  Fe34      1.0  0.026766268081993467  0.18217423897054008  0.03753037505038081  1.0000
  S   S67       1.0  0.03387144880629378  0.7104476615960011  0.2200629166913832  1.0000
  S   S68       1.0  0.043107574779413856  0.12635889039709625  0.05084169853509524  1.0000
  Fe  Fe35      1.0  0.5062617948056277  0.7113463174610013  0.2682065061964544  1.0000
  S   S69       1.0  0.4873890931551207  0.7562553623142063  0.31104659433886706  1.0000
  Fe  Fe36      1.0  0.03455407239083763  0.710522633805964  0.14208721518238376  1.0000
  S   S70       1.0  0.07787937492967589  0.7022593336810602  0.1052902250732417  1.0000
  S   S71       1.0  0.4169872110816775  0.16498140783213366  0.1916466483852327  1.0000
  S   S72       1.0  0.01829819773567254  0.20351466013773223  0.9655986140075309  1.0000
  Fe  Fe37      1.0  0.36982563877786623  0.8868873416413748  0.2474874000987778  1.0000
  S   S73       1.0  0.37040744095239664  0.9470182017416608  0.24844912940328984  1.0000
  S   S74       1.0  0.40015557496087745  0.856870966542024  0.19943850542088845  1.0000
  Fe  Fe38      1.0  0.3246689795551606  0.8817445069233221  0.32459605216322496  1.0000
  S   S75       1.0  0.32160567337666707  0.9414113265219819  0.33336682350095587  1.0000
  S   S76       1.0  0.29730840275675513  0.8464988846850596  0.3712953705219067  1.0000
  Fe  Fe39      1.0  0.3209463003656332  0.9427788020591041  0.2556515647066931  1.0000
  S   S77       1.0  0.29123495979438696  0.9855862351397281  0.22660130685528632  1.0000
  Fe  Fe40      1.0  0.3708825212579066  0.9409937045232261  0.3257851921779496  1.0000
  S   S78       1.0  0.40007480067092743  0.979875045139001  0.3637074484861167  1.0000
  S   S79       1.0  0.31985728350001136  0.8826356985044959  0.24686969778686035  1.0000
  S   S80       1.0  0.3744275052509531  0.880933304871719  0.3246511546438176  1.0000
  Fe  Fe41      1.0  0.10509247196741839  0.020063458651022215  0.3732917870244942  1.0000
  S   S81       1.0  0.09672616214927465  0.9668617799091858  0.3393025578816045  1.0000
  S   S82       1.0  0.11563511474011817  0.02794774596613614  0.448901485583151  1.0000
  Fe  Fe42      1.0  0.09793915580706182  0.061932174638189785  0.28344123529131054  1.0000
  S   S83       1.0  0.08982484200235347  0.012035961457026678  0.24123331898520062  1.0000
  S   S84       1.0  0.09123934450690008  0.11868146987992167  0.25739900065861077  1.0000
  Fe  Fe43      1.0  0.06080781310956831  0.9951343693453683  0.30046173035086554  1.0000
  S   S85       1.0  0.018893988833168816  0.9668320945753984  0.2796701266839506  1.0000
  Fe  Fe44      1.0  0.1267159211963652  0.987875590333507  0.28337817105555907  1.0000
  S   S86       1.0  0.15641251092247516  0.9437975224155132  0.2580997318749578  1.0000
  S   S87       1.0  0.06591141752424468  0.04670537349757353  0.3398784200315947  1.0000
  S   S88       1.0  0.13807861624554396  0.03950702276752138  0.320311018565857  1.0000
  Fe  Fe45      1.0  0.20929288028082552  0.9118591492430153  0.5911356713335171  1.0000
  S   S89       1.0  0.24119457863760876  0.8746148981780466  0.626457903566244  1.0000
  S   S90       1.0  0.17353761736798332  0.8917112126739827  0.5431591687144478  1.0000
  Fe  Fe46      1.0  0.23657767929493495  0.9785784341387256  0.6336246133765872  1.0000
  S   S91       1.0  0.2712691986958318  0.9477797307671862  0.6729432616778823  1.0000
  S   S92       1.0  0.23184614317882513  0.03827360568653604  0.6411195641204497  1.0000
  Fe  Fe47      1.0  0.2753155331742067  0.916135525233771  0.6068610909424906  1.0000
  S   S93       1.0  0.3192498814261088  0.9027117493987236  0.5755597809493231  1.0000
  Fe  Fe48      1.0  0.23419090213709987  0.9093696029009801  0.6893589651605811  1.0000
  S   S94       1.0  0.22523375307609694  0.8892934451629689  0.7619444541584189  1.0000
  S   S95       1.0  0.2440288557700135  0.9506220361728142  0.5657694734214249  1.0000
  S   S96       1.0  0.19886595802048224  0.9428148267061358  0.6557414530896466  1.0000
  C   C73       1.0  0.13058239365102142  0.9896810285214939  0.475826994300467  1.0000
  C   C74       1.0  0.12285252443211901  0.9550104795019239  0.46088953709842206  1.0000
  C   C75       1.0  0.13550915100738437  0.9247514103345842  0.48236571516562854  1.0000
  C   C76       1.0  0.15599863345400655  0.9292222041200682  0.5186489218321891  1.0000
  C   C77       1.0  0.16341618456055118  0.9638580657232397  0.5339633239532263  1.0000
  C   C78       1.0  0.1506299390302217  0.9940267603100835  0.5127280117777178  1.0000
  H   H49       1.0  0.10669244800538484  0.9514233905333089  0.43349741036678446  1.0000
  H   H50       1.0  0.12964766800686722  0.8979781402217143  0.4705512011695655  1.0000
  H   H51       1.0  0.1791506785773999  0.9675998447291602  0.5620150183002476  1.0000
  H   H52       1.0  0.1567796122752058  0.020721454266593664  0.524442708942897  1.0000
  C   C79       1.0  0.42977819067252165  0.9575498277835226  0.3903161422021186  1.0000
  C   C80       1.0  0.45680441445402364  0.9757279201731357  0.3956480412705922  1.0000
  C   C81       1.0  0.9597135054610372  0.9676178615263324  0.2967678696429673  1.0000
  C   C82       1.0  0.9877198852229715  0.9786297043302872  0.3123862466707875  1.0000
  C   C83       1.0  0.9903149725569311  0.9991880461009842  0.3530411601592415  1.0000
  C   C84       1.0  0.42747028793846337  0.9212316226263195  0.40318142064370194  1.0000
  H   H53       1.0  0.4586378109529437  0.0039165240989913475  0.38615060750778013  1.0000
  H   H54       1.0  0.9576329752839176  0.9519282166438385  0.26517466425282027  1.0000
  H   H55       1.0  0.011970042088885224  0.007376165694421788  0.36559470564634255  1.0000
  H   H56       1.0  0.4062978868672908  0.9075135675724968  0.40116937062783586  1.0000
  C   C85       1.0  0.25372997240904505  0.9743106170789287  0.2356681376782051  1.0000
  C   C86       1.0  0.24537713391244687  0.9384184288094587  0.2431029570175571  1.0000
  C   C87       1.0  0.21536171625761627  0.9293127122293675  0.24925265941711033  1.0000
  C   C88       1.0  0.19367495964489326  0.9561740803267674  0.24950796943220893  1.0000
  C   C89       1.0  0.20203465138687993  0.9922515537561187  0.24340551467735638  1.0000
  C   C90       1.0  0.2320476744037435  0.0012576157678512168  0.2358691239621177  1.0000
  H   H57       1.0  0.26191968841556723  0.9174890706352482  0.24278118734935072  1.0000
  H   H58       1.0  0.20895126356793722  0.9013777915752074  0.25380479996479927  1.0000
  H   H59       1.0  0.1853292488225084  0.013084776840875278  0.24340609942661967  1.0000
  H   H60       1.0  0.23843869946120774  0.029068171501490436  0.23015378981597945  1.0000
  C   C91       1.0  0.30406644577818703  0.8602499467894943  0.42869097492252856  1.0000
  C   C92       1.0  0.2839261410248156  0.851375851360773  0.46403128861506854  1.0000
  C   C93       1.0  0.28846526415460316  0.8644771475131398  0.5093332376327941  1.0000
  C   C94       1.0  0.31367182244802305  0.8853841175195203  0.5195604688374449  1.0000
  C   C95       1.0  0.3341771641995635  0.8933632929331002  0.4844509367128813  1.0000
  C   C96       1.0  0.32913771384578544  0.8812959015950584  0.438942185895002  1.0000
  H   H61       1.0  0.2644877776637391  0.835129711743353  0.45625024665747665  1.0000
  H   H62       1.0  0.2726186285043305  0.8581448532027818  0.5364354183889736  1.0000
  H   H63       1.0  0.3535700969616175  0.909728769790517  0.4922279245613563  1.0000
  H   H64       1.0  0.34471988604692755  0.8884866468669665  0.4119644413449714  1.0000
  C   C97       1.0  0.07841889188381375  0.12047864763016869  0.19967234385366753  1.0000
  C   C98       1.0  0.061147701058115275  0.14970211361904728  0.18528892084829232  1.0000
  C   C99       1.0  0.0503525659320913  0.1515097530893883  0.13955959955586184  1.0000
  C   C100      1.0  0.05651862230912274  0.12387456023153409  0.10810492887645262  1.0000
  C   C101      1.0  0.07346174677114817  0.0943847862742675  0.1225600103313329  1.0000
  C   C102      1.0  0.08460455789151855  0.09282935363040834  0.16823969662968183  1.0000
  H   H65       1.0  0.05551410072157782  0.1705343610951171  0.20974748135076118  1.0000
  H   H66       1.0  0.036860760036061084  0.1740073092424379  0.12884811407747532  1.0000
  H   H67       1.0  0.07839984898318164  0.07304294576576487  0.09822790648042501  1.0000
  H   H68       1.0  0.09852303798806553  0.0706315936669959  0.17868237657048297  1.0000
  C   C103      1.0  0.46603698284445083  0.7859821365529053  0.2775788107403696  1.0000
  C   C104      1.0  0.45675772846143964  0.7766236747231253  0.23267678600414063  1.0000
  C   C105      1.0  0.43729040247912576  0.7991985940973299  0.20806769908274025  1.0000
  C   C106      1.0  0.42693963701310805  0.830931157370597  0.22847771717436152  1.0000
  C   C107      1.0  0.43734133390424007  0.8410081931109983  0.27253671984161165  1.0000
  C   C108      1.0  0.45691439962604935  0.8186131578426811  0.29703027887828837  1.0000
  H   H69       1.0  0.4639064956253778  0.7515427103632707  0.21733944487871776  1.0000
  H   H70       1.0  0.4295137427474596  0.791472132415032  0.17377593214572665  1.0000
  H   H71       1.0  0.4302736927594685  0.865991571800615  0.2878183383871334  1.0000
  H   H72       1.0  0.46451399361011986  0.8262284776108811  0.3314646390376559  1.0000
  C   C109      1.0  0.07867414269804397  0.7182360931499978  0.047763824207294636  1.0000
  C   C110      1.0  0.10037884749064707  0.7053148645328181  0.01737397588646994  1.0000
  C   C111      1.0  0.10117219380429714  0.7171955426562703  0.9710165788536137  1.0000
  C   C112      1.0  0.08055312518545721  0.7424760161666074  0.9551166433796533  1.0000
  C   C113      1.0  0.059216372378769616  0.7559921062144577  0.9857200609099775  1.0000
  C   C114      1.0  0.05803636019843421  0.743545486764734  0.031902870191277355  1.0000
  H   H73       1.0  0.11649885699436685  0.6859046712010648  0.02950843468468123  1.0000
  H   H74       1.0  0.11799714039403611  0.7070620287966042  0.9477656453601105  1.0000
  H   H75       1.0  0.0435175710675643  0.7759166969916151  0.9735989470028685  1.0000
  H   H76       1.0  0.0414712750773059  0.7539685708585064  0.05525703431775231  1.0000
  C   C115      1.0  0.21694333976561778  0.8433198889784796  0.758587632367001  1.0000
  C   C116      1.0  0.23250462261418764  0.8216775175490054  0.7274163152526317  1.0000
  C   C117      1.0  0.2230113081730991  0.7863332624897674  0.7189906803829923  1.0000
  C   C118      1.0  0.19822226117352354  0.7723753862619754  0.7422993049706478  1.0000
  C   C119      1.0  0.1835900835272432  0.7932726332487353  0.7754718928725924  1.0000
  C   C120      1.0  0.19294237976699902  0.8288705339264064  0.783578529221539  1.0000
  H   H77       1.0  0.2515194795818548  0.8324706037674615  0.7089564183016861  1.0000
  H   H78       1.0  0.2345122425719381  0.7700749568368733  0.6935864198032985  1.0000
  H   H79       1.0  0.16433775202648543  0.782578093426635  0.7934708440708859  1.0000
  H   H80       1.0  0.18082149873754652  0.8456368848597486  0.8076680202679455  1.0000
  C   C121      1.0  0.24402290810086477  0.19903186464182632  0.8176827060961901  1.0000
  C   C122      1.0  0.25502927488014177  0.634156614587788  0.8334673931016492  1.0000
  C   C123      1.0  0.22506905464742197  0.6333115484729387  0.846712801192839  1.0000
  C   C124      1.0  0.21724095103197757  0.6240983536682316  0.8923978017697096  1.0000
  C   C125      1.0  0.20899161870444596  0.14955301732954496  0.8276686286723332  1.0000
  C   C126      1.0  0.23724900224666307  0.16475388562934423  0.83531114708766  1.0000
  H   H81       1.0  0.26094176091188526  0.6408672423704643  0.7979660237700101  1.0000
  H   H82       1.0  0.2081597606765352  0.639803357936086  0.8214670248254153  1.0000
  H   H83       1.0  0.20374371810683942  0.12314425922915917  0.8415238138958795  1.0000
  H   H84       1.0  0.2535566608265725  0.15025829986776507  0.8555783446121971  1.0000
  C   C127      1.0  0.45008964185913863  0.16376997575360486  0.8618459341358479  1.0000
  C   C128      1.0  0.4785693834907278  0.5626136396392913  0.9491857883969851  1.0000
  C   C129      1.0  0.02836211674360131  0.6668498120400249  0.7746235922128952  1.0000
  C   C130      1.0  0.032918771974244684  0.629710798033911  0.7721701454530738  1.0000
  C   C131      1.0  0.006297363110887263  0.17244876695257716  0.6229907864839396  1.0000
  C   C132      1.0  0.4781666598024035  0.16466883640523622  0.8828356132268138  1.0000
  H   H85       1.0  0.4565605490976236  0.5583343782698665  0.9629871971123558  1.0000
  H   H86       1.0  0.0466169188929888  0.685258439218451  0.7693411891545076  1.0000
  H   H87       1.0  0.024523582624863025  0.1902942097952256  0.6154002498139532  1.0000
  H   H88       1.0  0.48120421819377296  0.17761744952731062  0.9162787300232524  1.0000
  C   C133      1.0  0.3288171660605514  0.07414226280607905  0.9819192389482636  1.0000
  C   C134      1.0  0.31246759098445115  0.06420982616627802  0.021317583972596976  1.0000
  C   C135      1.0  0.3210740784071202  0.07667093854380602  0.06542628608113943  1.0000
  C   C136      1.0  0.3466189849223048  0.09802665385017839  0.07040239164537199  1.0000
  C   C137      1.0  0.36366136688321576  0.10681488037722353  0.031201679553727102  1.0000
  C   C138      1.0  0.3544332461666897  0.09548678737572702  0.9868729309632054  1.0000
  H   H89       1.0  0.2926141894498314  0.04781947017506405  0.017612076275500987  1.0000
  H   H90       1.0  0.3078359470219442  0.06977602644149083  0.09565197049452534  1.0000
  H   H91       1.0  0.38332994679324306  0.12332589228701751  0.03474455936460852  1.0000
  H   H92       1.0  0.3670448796212683  0.10338820757113343  0.9564954426800509  1.0000
  C   C139      1.0  0.3215333247821372  0.08486662337340167  0.6836475472874178  1.0000
  C   C140      1.0  0.32030777799824545  0.054138327711123146  0.6556067491400923  1.0000
  C   C141      1.0  0.2927308564663364  0.04035137947891365  0.6408848581906619  1.0000
  C   C142      1.0  0.2664629934796951  0.05783203229253764  0.6533197927741161  1.0000
  C   C143      1.0  0.2677934820561141  0.0895361874864371  0.6794245024587215  1.0000
  C   C144      1.0  0.2952744755353168  0.10272371878314401  0.6950887464960417  1.0000
  H   H93       1.0  0.340577006362136  0.04026079844550745  0.64658177874262  1.0000
  H   H94       1.0  0.29180997074896015  0.015930803346224653  0.6204237918177953  1.0000
  H   H95       1.0  0.2474728536067823  0.10302466883302897  0.6891229557751202  1.0000
  H   H96       1.0  0.29612158458478666  0.12661010796690908  0.716235477798232  1.0000
  Fe  Fe49      1.0  0.8772052506755836  0.561393465566327  0.811873781383895  1.0000
  S   S97       1.0  0.8737192582930519  0.6123620136893723  0.7698621922340747  1.0000
  S   S98       1.0  0.8786789891728507  0.5095758260843416  0.7715519578235531  1.0000
  Fe  Fe50      1.0  0.8749093420616724  0.6006382088060874  0.904093580686979  1.0000
  S   S99       1.0  0.8705031363103443  0.6546244951573814  0.8700326473795804  1.0000
  S   S100      1.0  0.8744380046471628  0.59245544057477  0.981574537519746  1.0000
  Fe  Fe51      1.0  0.8388116513828192  0.627292061387062  0.8214263456949653  1.0000
  S   S101      1.0  0.7963407625115669  0.6544957663214925  0.8002252503517063  1.0000
  Fe  Fe52      1.0  0.9059227022778809  0.6347780060135226  0.8220561651223143  1.0000
  S   S102      1.0  0.9414314995957757  0.6751947080418772  0.805045847938768  1.0000
  S   S103      1.0  0.8398321889295695  0.5748109742138934  0.8600366303523843  1.0000
  S   S104      1.0  0.9129225645737031  0.5824820105253973  0.859711955729687  1.0000
  Fe  Fe53      1.0  0.5707072413206393  0.13936863113834308  0.8135615536064691  1.0000
  S   S105      1.0  0.5667905053068364  0.19532014724704289  0.8407089756570041  1.0000
  S   S106      1.0  0.5288818783998989  0.11159489656218202  0.7898543119532329  1.0000
  Fe  Fe54      1.0  0.6371939594659548  0.14003618747623836  0.8257927337030508  1.0000
  S   S107      1.0  0.6387809531292662  0.19657198893446085  0.853984752802337  1.0000
  S   S108      1.0  0.6781097625253952  0.10601317629523897  0.821164566944299  1.0000
  Fe  Fe55      1.0  0.5990393689693145  0.17866945434685794  0.895508911627874  1.0000
  S   S109      1.0  0.5867376500456444  0.19742468208905697  0.9673380165059722  1.0000
  Fe  Fe56      1.0  0.6061628615860557  0.20793957290706921  0.7965898654071092  1.0000
  S   S110      1.0  0.6012992987735255  0.2594978553666332  0.7562788183814422  1.0000
  S   S111      1.0  0.599970358510115  0.12111326715220551  0.8718978206053489  1.0000
  S   S112      1.0  0.6078738877819668  0.15302413262820247  0.7645644694447313  1.0000
  Fe  Fe57      1.0  0.9678471755648278  0.7162625855206232  0.13436154218655405  1.0000
  S   S113      1.0  0.004909319698535697  0.281441580525676  0.016845003489530663  1.0000
  S   S114      1.0  0.9314900054409853  0.7269434095245701  0.08265436567782514  1.0000
  Fe  Fe58      1.0  0.5191149604737918  0.63132054436018  0.26187770811784095  1.0000
  S   S115      1.0  0.48633328010949023  0.1508366222040367  0.16246682873162488  1.0000
  S   S116      1.0  0.5106420794188294  0.5744363153516087  0.2845131127394323  1.0000
  Fe  Fe59      1.0  0.014705067923638682  0.2531735474573354  0.0840220631858648  1.0000
  S   S117      1.0  0.01568256368421861  0.284865053217964  0.15014345283961913  1.0000
  Fe  Fe60      1.0  0.46767625522523165  0.11487828196162832  0.10689533431070775  1.0000
  S   S118      1.0  0.49707499086632706  0.08593561517109993  0.05743731038934374  1.0000
  S   S119      1.0  0.9608697767695886  0.7160959443986071  0.21177252332350416  1.0000
  S   S120      1.0  0.5484811013091809  0.6384806436608682  0.19989932818363076  1.0000
  Fe  Fe61      1.0  0.8965527185516678  0.2671052689930814  0.3092535853115826  1.0000
  S   S121      1.0  0.8912608063126808  0.31372015387242624  0.26003136811043553  1.0000
  S   S122      1.0  0.9211701185576819  0.2182956467493342  0.28473273576534286  1.0000
  Fe  Fe62      1.0  0.8631967185674547  0.30427227420766456  0.386409662694504  1.0000
  S   S123      1.0  0.8558967755351248  0.3545202293188008  0.34441138447305747  1.0000
  S   S124      1.0  0.8435837183607963  0.29605400972893614  0.4576152388872287  1.0000
  Fe  Fe63      1.0  0.8446654759807022  0.31634084856066225  0.2866775887086231  1.0000
  S   S125      1.0  0.805928688898542  0.32805082233106025  0.2394982859107738  1.0000
  Fe  Fe64      1.0  0.9033442668418253  0.3473035221217644  0.32198273012327305  1.0000
  S   S126      1.0  0.9347523871444081  0.3940326342502763  0.31001513450924445  1.0000
  S   S127      1.0  0.8486947105197917  0.2662374590176972  0.32999551025437246  1.0000
  S   S128      1.0  0.9118062964920588  0.3004600774390178  0.3698525406808369  1.0000
  Fe  Fe65      1.0  0.5973306994547353  0.38733946037796174  0.39311368058509427  1.0000
  S   S129      1.0  0.6067402259760091  0.33296921254491746  0.3635612295505219  1.0000
  S   S130      1.0  0.5734396485072418  0.3921104021268063  0.4614952048568998  1.0000
  Fe  Fe66      1.0  0.620553558320796  0.4263567917200595  0.30704639118693094  1.0000
  S   S131      1.0  0.6332023772847735  0.3752059068436045  0.2703583052101976  1.0000
  S   S132      1.0  0.6282333675595135  0.48232333937200983  0.2787141076098501  1.0000
  Fe  Fe67      1.0  0.5890416458029588  0.35494536191073817  0.29634110283106696  1.0000
  S   S133      1.0  0.5554924349585415  0.32451399823475335  0.25310890049376944  1.0000
  Fe  Fe68      1.0  0.6499480339235317  0.35768190236313635  0.34071674606701174  1.0000
  S   S134      1.0  0.6904899765068768  0.3275573045128879  0.3639644230478209  1.0000
  S   S135      1.0  0.5752615163407495  0.4072351792649553  0.3283864879379033  1.0000
  S   S136      1.0  0.6417466077637426  0.41083034405176483  0.37487140815190945  1.0000
  Fe  Fe69      1.0  0.6908451894312868  0.4293208375957245  0.6325058212936389  1.0000
  S   S137      1.0  0.708989500469438  0.39418790049111135  0.5761183794480386  1.0000
  S   S138      1.0  0.646630024819612  0.45654375402045877  0.6301853899192484  1.0000
  Fe  Fe70      1.0  0.7416597631041455  0.41431220181224937  0.698704169369493  1.0000
  S   S139      1.0  0.7645319965274469  0.3772162200138672  0.649208615367447  1.0000
  S   S140      1.0  0.7556183074386006  0.42702544330862857  0.7716374045164048  1.0000
  Fe  Fe71      1.0  0.7528317890210445  0.4190339848267402  0.5955865910977607  1.0000
  S   S141      1.0  0.7854597342362265  0.4360115755073199  0.5407982048908765  1.0000
  Fe  Fe72      1.0  0.7188271177332337  0.35563946453975454  0.63403177341664  1.0000
  S   S142      1.0  0.7096287076544383  0.2965306154322957  0.6255653909189596  1.0000
  S   S143      1.0  0.733757442346086  0.4582802119901529  0.6466128962100034  1.0000
  S   S144      1.0  0.6971041561766407  0.3886803810060181  0.6892628821499416  1.0000
  C   C145      1.0  0.593653261271078  0.412253136749346  0.5071160810147952  1.0000
  C   C146      1.0  0.6236529640575854  0.4214902017684719  0.5017915330187355  1.0000
  C   C147      1.0  0.6399549629120638  0.43528439025906834  0.5394950233573443  1.0000
  C   C148      1.0  0.6260714109181645  0.4407581598282849  0.5823837442517633  1.0000
  C   C149      1.0  0.5958080443670871  0.4327433052658935  0.5873826495665699  1.0000
  C   C150      1.0  0.5797058348575378  0.41811917222263406  0.549936358728571  1.0000
  H   H97       1.0  0.6345108275422693  0.4175550469660227  0.4689544662828114  1.0000
  H   H98       1.0  0.6631466871534476  0.4422924759404207  0.5351508591394435  1.0000
  H   H99       1.0  0.5849799292294009  0.43700860721151424  0.6205001088817093  1.0000
  H   H100      1.0  0.5564784194391287  0.4111607497533787  0.5542854199904496  1.0000
  C   C151      1.0  0.9724272747157819  0.38209550098816075  0.3074800552407118  1.0000
  C   C152      1.0  0.9927130835970902  0.4057161346788058  0.2863092540890044  1.0000
  C   C153      1.0  0.5356419582406414  0.3917381243285536  0.23124523757931656  1.0000
  C   C154      1.0  0.5277863765196594  0.355881469302569  0.24006606449951062  1.0000
  C   C155      1.0  0.49777867729826325  0.34600334666336685  0.24258192255724814  1.0000
  C   C156      1.0  0.9826954074627678  0.35035511649181655  0.32812342796603966  1.0000
  H   H101      1.0  0.9847694406281383  0.43009137227070315  0.26984637345579576  1.0000
  H   H102      1.0  0.5588306802172511  0.39931859903025657  0.22813646797834733  1.0000
  H   H103      1.0  0.4916623601924161  0.31816614819517236  0.24841257640080402  1.0000
  H   H104      1.0  0.9672879989224107  0.3321217457515127  0.3448594867416075  1.0000
  C   C157      1.0  0.7728614446073724  0.325751171917463  0.2718254356913689  1.0000
  C   C158      1.0  0.7463544128906874  0.340133272728654  0.25406291442612045  1.0000
  C   C159      1.0  0.720493502627082  0.3403030489935284  0.2816013477577015  1.0000
  C   C160      1.0  0.7211041700979424  0.3253264191821709  0.3264091521346033  1.0000
  C   C161      1.0  0.7473396377098233  0.31008700659204463  0.3434225931490505  1.0000
  C   C162      1.0  0.7732152595431847  0.31088352143954356  0.31658599603490933  1.0000
  H   H105      1.0  0.746017389412137  0.3517870019871724  0.2194721497655068  1.0000
  H   H106      1.0  0.7002706223081803  0.3521291428878443  0.2682756543005254  1.0000
  H   H107      1.0  0.7479503789755692  0.2983898637832294  0.37799270163215726  1.0000
  H   H108      1.0  0.7934621709275953  0.30004877874893016  0.33080939469024356  1.0000
  C   C163      1.0  0.8275103184243507  0.3352815757768592  0.4797496575690991  1.0000
  C   C164      1.0  0.8032276103597887  0.33232535495822235  0.5099317417183672  1.0000
  C   C165      1.0  0.7904788846095298  0.3632703897045962  0.5289119637714491  1.0000
  C   C166      1.0  0.8022015914500341  0.3973030269187175  0.518282077886243  1.0000
  C   C167      1.0  0.8266085390394708  0.40031590430888225  0.4882917803034853  1.0000
  C   C168      1.0  0.8391841303474742  0.3692995683391251  0.4688377352665564  1.0000
  H   H109      1.0  0.7939112584306948  0.3061289649263698  0.5180516455621645  1.0000
  H   H110      1.0  0.7712568595348839  0.36070441244964047  0.5511370848404387  1.0000
  H   H111      1.0  0.8358926033144035  0.42656617410479875  0.4802706106948701  1.0000
  H   H112      1.0  0.8583315766873847  0.37164317853752754  0.4462889029635328  1.0000
  C   C169      1.0  0.5955900014049385  0.5080746174683172  0.2800120799702835  1.0000
  C   C170      1.0  0.567905513455232  0.49183116765919876  0.27214782465969345  1.0000
  C   C171      1.0  0.5419143479694293  0.512443711323589  0.27337173651658464  1.0000
  C   C172      1.0  0.5435179023860066  0.5494420985766222  0.2818990957057805  1.0000
  C   C173      1.0  0.5712594706541442  0.5660779668716781  0.28791231115178856  1.0000
  C   C174      1.0  0.5972696575092995  0.545333024317098  0.2872839941735139  1.0000
  H   H113      1.0  0.5665890755932107  0.46348344375458544  0.2643162484329821  1.0000
  H   H114      1.0  0.5205345424043244  0.4998159875373488  0.2673652231244979  1.0000
  H   H115      1.0  0.5726329132056909  0.5947505715096765  0.29441707730980266  1.0000
  H   H116      1.0  0.6186209844627196  0.5580695215489058  0.29345954012634684  1.0000
  C   C175      1.0  0.9934333532482049  0.2645111348481251  0.19247548732109152  1.0000
  C   C176      1.0  0.9867846287321373  0.2276804582876277  0.19036550885793185  1.0000
  C   C177      1.0  0.9656904682602625  0.2127005689748845  0.22072851904493115  1.0000
  C   C178      1.0  0.9515282554786446  0.23463664182473887  0.25323093687450754  1.0000
  C   C179      1.0  0.9598849586086575  0.27079184378247123  0.2574847191308189  1.0000
  C   C180      1.0  0.980832479728202  0.28577491332298977  0.22712609112753787  1.0000
  H   H117      1.0  0.9974383696665867  0.21088428348340232  0.16488255823251546  1.0000
  H   H118      1.0  0.9594238815075812  0.18463623611561972  0.21774256929232888  1.0000
  H   H119      1.0  0.949664281014981  0.287533910331658  0.2835260329648181  1.0000
  H   H120      1.0  0.9862320448495816  0.31414150815262887  0.22954176485392708  1.0000
  C   C181      1.0  0.521771851505194  0.11693868388117214  0.03209952685294826  1.0000
  C   C182      1.0  0.5455882526244364  0.10464961985583376  0.005465495052021874  1.0000
  C   C183      1.0  0.5656783521506225  0.12933920002153254  0.9857377857245267  1.0000
  C   C184      1.0  0.5618062101586956  0.166345097014664  0.9921307926213101  1.0000
  C   C185      1.0  0.5377843210485255  0.17863034532824215  0.018394465964701068  1.0000
  C   C186      1.0  0.5177909143709519  0.15396627003749289  0.03845308525467206  1.0000
  H   H121      1.0  0.5489109178654071  0.07604681509301359  0.0008275763179490525  1.0000
  H   H122      1.0  0.5846622961807366  0.11963598428043444  0.9667506268017261  1.0000
  H   H123      1.0  0.5343205822253116  0.20720144031155216  0.02228724255316772  1.0000
  H   H124      1.0  0.49919480852882575  0.16365213216789656  0.058403215219500426  1.0000
  C   C187      1.0  0.6781331750871441  0.2848043361700234  0.658279268618248  1.0000
  C   C188      1.0  0.6749297947549664  0.2499333145956146  0.676342140215972  1.0000
  C   C189      1.0  0.6512275985632655  0.24171040587300466  0.7064516580395455  1.0000
  C   C190      1.0  0.6303855193704457  0.2681931408760993  0.7173745621657797  1.0000
  C   C191      1.0  0.6328188223942335  0.302455638101029  0.6973488252742025  1.0000
  C   C192      1.0  0.6566798130519207  0.31076340214542625  0.6679732610008664  1.0000
  H   H125      1.0  0.6911502957540614  0.22958180459034294  0.6680391373010546  1.0000
  H   H126      1.0  0.6491669474638476  0.21502436293336502  0.7213745756804346  1.0000
  H   H127      1.0  0.6164845348433843  0.3228314437801536  0.7051935729078567  1.0000
  H   H128      1.0  0.6582072598718613  0.3372511603398841  0.652516658333947  1.0000
  C   C193      1.0  0.7655874831494147  0.6276636662292495  0.814937324566466  1.0000
  C   C194      1.0  0.72658374203536  0.1769862541163733  0.7454091806440644  1.0000
  C   C195      1.0  0.7025176949968756  0.15877154868760826  0.7660098827157141  1.0000
  C   C196      1.0  0.7077246279255561  0.13077955234965824  0.797669956096157  1.0000
  C   C197      1.0  0.7449658006967866  0.569325573672902  0.8361497320304203  1.0000
  C   C198      1.0  0.7685215862522923  0.5903246176886033  0.8191245801081924  1.0000
  H   H129      1.0  0.7225653495224453  0.19762254030753987  0.7196687909052688  1.0000
  H   H130      1.0  0.6799797333609562  0.16559685833290866  0.7564102179440803  1.0000
  H   H131      1.0  0.7477694716092401  0.5405899233336424  0.840922317501131  1.0000
  H   H132      1.0  0.7889810517082689  0.5775557155768192  0.8095299554620267  1.0000
  C   C199      1.0  0.9760318218946481  0.656966987361838  0.7905010436274693  1.0000
  C   C200      1.0  0.9580642487728847  0.1265506431141552  0.6398785048827624  1.0000
  C   C201      1.0  0.47039118454207013  0.12987916892253984  0.7972981238123956  1.0000
  C   C202      1.0  0.4984784407776075  0.13072945507932276  0.8183170423155931  1.0000
  C   C203      1.0  0.5357900663445133  0.5735834073488331  0.9136360242197789  1.0000
  C   C204      1.0  0.9803186166986525  0.6197124554293097  0.787593864348174  1.0000
  H   H133      1.0  0.939497128717231  0.10858333692709699  0.6455100998297589  1.0000
  H   H134      1.0  0.4673797119171132  0.11663286924935656  0.7640578974118367  1.0000
  H   H135      1.0  0.5577731264669296  0.5774176381650348  0.8995718563230422  1.0000
  H   H136      1.0  0.9618080820649145  0.601421077605419  0.7926408840908855  1.0000
  C   C205      1.0  0.8900421971816842  0.6296148913310884  0.010493466878363611  1.0000
  C   C206      1.0  0.9083072441802295  0.6244582982344491  0.04953032122677392  1.0000
  C   C207      1.0  0.9213323404077712  0.6542107162111083  0.07204108733417547  1.0000
  C   C208      1.0  0.9155665166464193  0.6890949397914385  0.05596953688768114  1.0000
  C   C209      1.0  0.896937298025291  0.6941904421988936  0.01745438439467506  1.0000
  C   C210      1.0  0.884273659249958  0.6645251250557057  0.9946950665774048  1.0000
  H   H137      1.0  0.9126570717657749  0.5974672996117245  0.062042254263899865  1.0000
  H   H138      1.0  0.9354738403430205  0.650180591921505  0.10209864506970012  1.0000
  H   H139      1.0  0.8923158794706785  0.7211899360654314  0.005199206213570617  1.0000
  H   H140      1.0  0.8695368242601695  0.6688524658246293  0.9656121981260736  1.0000
  C   C211      1.0  0.8456813879560346  0.484107847184694  0.7737974360877948  1.0000
  C   C212      1.0  0.8373480108266247  0.46327221347031794  0.7352633509530182  1.0000
  C   C213      1.0  0.8097989677472908  0.4453257611087049  0.7346290569643554  1.0000
  C   C214      1.0  0.7908374810322653  0.4474900229535967  0.7730580204118296  1.0000
  C   C215      1.0  0.7996043998309322  0.46722831855400576  0.812265643519618  1.0000
  C   C216      1.0  0.826955052771721  0.48563108248931824  0.8125554500323857  1.0000
  H   H141      1.0  0.8519765802868059  0.4616235840168997  0.7054803830827908  1.0000
  H   H142      1.0  0.8032681105457916  0.42991343837077955  0.7043636563901008  1.0000
  H   H143      1.0  0.7851146634390551  0.4686549073417865  0.8422314073197471  1.0000
  H   H144      1.0  0.8337562554789149  0.5004473773427633  0.8430824617002894  1.0000
  Fe  Fe73      1.0  0.847040147194756  0.08111455771944587  0.6888404322095235  1.0000
  S   S145      1.0  0.8400969579392129  0.1352046554233779  0.6557999700346796  1.0000
  S   S146      1.0  0.8327557535022094  0.03389579948706567  0.6448059414061073  1.0000
  Fe  Fe74      1.0  0.8750817029143719  0.11384457485381905  0.7756554262662814  1.0000
  S   S147      1.0  0.8700897239804488  0.1703836430321526  0.7493873896732755  1.0000
  S   S148      1.0  0.9004360192717924  0.10165934511330255  0.8415403041073182  1.0000
  Fe  Fe75      1.0  0.8248627771409153  0.15224501108613642  0.7264921916161825  1.0000
  S   S149      1.0  0.7858754539071536  0.18986970793751978  0.7304997126809998  1.0000
  Fe  Fe76      1.0  0.8858553013615487  0.14801631825345996  0.6816797547780493  1.0000
  S   S150      1.0  0.9179778057503155  0.18245680785474439  0.6413888868969949  1.0000
  S   S151      1.0  0.828239745904157  0.09682775380043052  0.7581230228227408  1.0000
  S   S152      1.0  0.8943433190389367  0.09259954055165598  0.7091960817884776  1.0000
  Fe  Fe77      1.0  0.6030235126082983  0.5968586035898114  0.9715769485860398  1.0000
  S   S153      1.0  0.6117468859366693  0.6524584523810548  0.9981887471054947  1.0000
  S   S154      1.0  0.5623840692985199  0.5686379976624276  0.999719466465274  1.0000
  Fe  Fe78      1.0  0.6608498341918991  0.5953301838589385  0.9184199837367567  1.0000
  S   S155      1.0  0.6746585478398494  0.6508012568255017  0.9408972007886746  1.0000
  S   S156      1.0  0.6903263995762101  0.5600747431224637  0.8753897695761051  1.0000
  Fe  Fe79      1.0  0.6582238281147548  0.6337783647373899  0.011065816718327515  1.0000
  S   S157      1.0  0.6865060590732271  0.6439719132919096  0.07448707367683705  1.0000
  Fe  Fe80      1.0  0.6271249380476074  0.6646874407047602  0.9259719555692011  1.0000
  S   S158      1.0  0.6130603412339769  0.7171190213330181  0.8941741811016259  1.0000
  S   S159      1.0  0.6484397641113008  0.5768831229495351  0.9902199410003296  1.0000
  S   S160      1.0  0.6144805892027432  0.6105011257198404  0.8974315506719651  1.0000
  Fe  Fe81      1.0  0.979465639621129  0.2310679278159895  0.998893050634204  1.0000
  S   S161      1.0  0.00427850466462476  0.7578050091898615  0.13541118966565935  1.0000
  S   S162      1.0  0.933966064421431  0.23570058050956177  0.9672054316983194  1.0000
  Fe  Fe82      1.0  0.4518963943132735  0.12456868328096471  0.20768554918220014  1.0000
  S   S163      1.0  0.5402091371153418  0.6760601117825928  0.3024206306323266  1.0000
  S   S164      1.0  0.45856306102429567  0.10936463622453796  0.2822975618255129  1.0000
  Fe  Fe83      1.0  0.999909978746797  0.7539172409454388  0.2127981184249855  1.0000
  S   S165      1.0  0.00012278802611831452  0.8035768496214437  0.25720350790094615  1.0000
  Fe  Fe84      1.0  0.566480240185879  0.6865617011874983  0.23771137860977665  1.0000
  S   S166      1.0  0.6148370164222988  0.6990091066360946  0.24850821246387556  1.0000
  S   S167      1.0  0.9855249061344887  0.2053476793849025  0.06893421978428904  1.0000
  S   S168      1.0  0.43640289716875197  0.08504769214340113  0.15406797229147196  1.0000
  Fe  Fe85      1.0  0.8625781936936271  0.904702066732207  0.30096244845795833  1.0000
  S   S169      1.0  0.8494184282134233  0.9626419741374928  0.30201060558397996  1.0000
  S   S170      1.0  0.8752970178363068  0.8773133605491529  0.23474161393547052  1.0000
  Fe  Fe86      1.0  0.845742855888139  0.8926933706353942  0.4018220341519522  1.0000
  S   S171      1.0  0.830176508009528  0.9493934607143201  0.411484375022149  1.0000
  S   S172      1.0  0.8481599547504692  0.8556132876108878  0.46302524772821674  1.0000
  Fe  Fe87      1.0  0.8095214807411223  0.9422199819628244  0.34084848471239515  1.0000
  S   S173      1.0  0.7654627090123102  0.9634720493378635  0.31734762069721145  1.0000
  Fe  Fe88      1.0  0.8714693327323745  0.9638532504447244  0.37197666527163276  1.0000
  S   S174      1.0  0.9046980893070611  0.004952874300427901  0.39587760837695857  1.0000
  S   S175      1.0  0.8211171747818543  0.8839220594755645  0.33482787195850455  1.0000
  S   S176      1.0  0.88842718947341  0.9074354067956533  0.3676036565321142  1.0000
  Fe  Fe89      1.0  0.6036156861824449  0.9756338500651383  0.45742646882770693  1.0000
  S   S177      1.0  0.5967861403986189  0.9157883468368739  0.4608943802054934  1.0000
  S   S178      1.0  0.616955401695681  0.010546923517990914  0.5177131350565786  1.0000
  Fe  Fe90      1.0  0.5820354830367473  0.9804615776356552  0.3570997413127028  1.0000
  S   S179      1.0  0.573888429018368  0.9210145553676576  0.3522137897701609  1.0000
  S   S180      1.0  0.5726471792821928  0.011152082775975236  0.29134903739121804  1.0000
  Fe  Fe91      1.0  0.5541427970543253  0.9267852086165096  0.42309181623529035  1.0000
  S   S181      1.0  0.5119503094510963  0.8967259982600037  0.43934268545766886  1.0000
  Fe  Fe92      1.0  0.6172553084233238  0.916164889505004  0.38970711174152123  1.0000
  S   S182      1.0  0.6508469249815447  0.8744660235289398  0.3702451324436122  1.0000
  S   S183      1.0  0.5592261966304114  0.9867874927349628  0.42563322274683574  1.0000
  S   S184      1.0  0.6274329492073892  0.9754454385754556  0.3890068255937204  1.0000
  Fe  Fe93      1.0  0.674873952935722  0.8878277888622466  0.6955357159225108  1.0000
  S   S185      1.0  0.6705765188448057  0.8390362955028148  0.6500910565667763  1.0000
  S   S186      1.0  0.6404824012087613  0.9299937159205616  0.707888284999731  1.0000
  Fe  Fe94      1.0  0.7403885336430924  0.8771151580325132  0.7130040306681863  1.0000
  S   S187      1.0  0.7426265559654436  0.8277553661803956  0.6687116876757285  1.0000
  S   S188      1.0  0.7786720078111818  0.9003767192187871  0.7531085509059597  1.0000
  Fe  Fe95      1.0  0.713549584308266  0.8583795946942633  0.6193140702551369  1.0000
  S   S189      1.0  0.7178106122329868  0.8610416339573024  0.5418103655123357  1.0000
  Fe  Fe96      1.0  0.6997169052715347  0.8124329626724579  0.7034421161957479  1.0000
  S   S190      1.0  0.6966165858465332  0.7540595126768426  0.7239777917640304  1.0000
  S   S191      1.0  0.7154276206732073  0.9093982972826873  0.6602069626534417  1.0000
  S   S192      1.0  0.6999188165022908  0.8595536278187677  0.7523914907074649  1.0000
  C   C217      1.0  0.6231769165641452  0.9875695069593616  0.5701996316774973  1.0000
  C   C218      1.0  0.6320914629479125  0.9515652105118149  0.5703656141959886  1.0000
  C   C219      1.0  0.6378182522202612  0.933950397354177  0.6126933739639808  1.0000
  C   C220      1.0  0.6335122457547112  0.9518961432115677  0.654930005961888  1.0000
  C   C221      1.0  0.6240781975267518  0.9877161701122431  0.6547622421102876  1.0000
  C   C222      1.0  0.6193992661680594  0.005708479978813852  0.6124010480545315  1.0000
  H   H145      1.0  0.6352439148767113  0.9374825240430172  0.5379461732592709  1.0000
  H   H146      1.0  0.645178190293444  0.9062936795764561  0.6125947308421721  1.0000
  H   H147      1.0  0.6207735345349853  0.001723660160986018  0.6873290210300642  1.0000
  H   H148      1.0  0.6125702456657282  0.03362354285031355  0.6123684644159997  1.0000
  C   C223      1.0  0.9367149574736026  0.996571626220559  0.3630390732143442  1.0000
  C   C224      1.0  0.9343041828733419  0.9765861029604819  0.32198671774682486  1.0000
  C   C225      1.0  0.4818554980270133  0.9572045841950276  0.41142903943253195  1.0000
  C   C226      1.0  0.4800104279822588  0.9206223455597258  0.42281645406009405  1.0000
  C   C227      1.0  0.452584760054002  0.9027666645521127  0.4195433358268736  1.0000
  C   C228      1.0  0.9647297411446287  0.008311623321480166  0.37832542696747395  1.0000
  H   H149      1.0  0.912836451139832  0.9678460491549458  0.30949117030525414  1.0000
  H   H150      1.0  0.5025121603741128  0.9714125453362966  0.4141462128134004  1.0000
  H   H151      1.0  0.45083810968417404  0.8745871606922788  0.42897412458408385  1.0000
  H   H152      1.0  0.9667082563503201  0.023605902876492557  0.41021905754953125  1.0000
  C   C229      1.0  0.7342397047521747  0.9362191645554557  0.32794457868688787  1.0000
  C   C230      1.0  0.7061931278631872  0.9490692689818222  0.3153279217918545  1.0000
  C   C231      1.0  0.6805947712902178  0.929236088571236  0.32644409683415315  1.0000
  C   C232      1.0  0.6829454917425852  0.8963690576820942  0.3499432267712735  1.0000
  C   C233      1.0  0.7110679122988981  0.8824806316700988  0.36028304929644855  1.0000
  C   C234      1.0  0.73675786195692  0.902635731788385  0.34986710479205324  1.0000
  H   H153      1.0  0.7041497416516934  0.9748784708022555  0.2979597307478553  1.0000
  H   H154      1.0  0.6589821390456642  0.9394899827728372  0.3168488401981493  1.0000
  H   H155      1.0  0.7128657478230178  0.8568625051981081  0.37812157760347254  1.0000
  H   H156      1.0  0.7583118941567363  0.8925842601286399  0.35992139170224013  1.0000
  C   C235      1.0  0.8121771674947694  0.854528131274365  0.48589179214725436  1.0000
  C   C236      1.0  0.8075426333922714  0.8535968412361805  0.5340831657578775  1.0000
  C   C237      1.0  0.7785127087152772  0.8553799205825086  0.5518384184433935  1.0000
  C   C238      1.0  0.7542429087916186  0.8570867316380136  0.5212888230794458  1.0000
  C   C239      1.0  0.7590283074376639  0.8573873027028178  0.47322849239296216  1.0000
  C   C240      1.0  0.7879270558836017  0.8566274953831309  0.45556343889108203  1.0000
  H   H157      1.0  0.8263211131608064  0.8523413568971518  0.5576431722644176  1.0000
  H   H158      1.0  0.7749837782450899  0.8557223047593941  0.5890076573157591  1.0000
  H   H159      1.0  0.7403356102396073  0.8581885476104013  0.449602140637981  1.0000
  H   H160      1.0  0.791343974654119  0.8570307011044643  0.41837828493218465  1.0000
  C   C241      1.0  0.5406158699187315  0.03790944227703785  0.29012824531968273  1.0000
  C   C242      1.0  0.5302666081750236  0.05056196035222227  0.24712792229684344  1.0000
  C   C243      1.0  0.5047904922011806  0.07197801589742414  0.24476026177716298  1.0000
  C   C244      1.0  0.4896799858910513  0.08119173534492496  0.285480228549283  1.0000
  C   C245      1.0  0.4996835798228115  0.06813848196511696  0.3285248535240519  1.0000
  C   C246      1.0  0.5251597903962409  0.046478744273330985  0.33084469385426524  1.0000
  H   H161      1.0  0.5421401211167397  0.04401653839435893  0.21553364535953434  1.0000
  H   H162      1.0  0.49714680918955895  0.08163140824958393  0.21131887372741243  1.0000
  H   H163      1.0  0.4879912716995669  0.07508945885734875  0.360105907916263  1.0000
  H   H164      1.0  0.533087063886311  0.037100360541264754  0.364162928815742  1.0000
  C   C247      1.0  0.9672024374898074  0.8272875114175836  0.24677069524185066  1.0000
  C   C248      1.0  0.9472641595764361  0.8154926745870527  0.21248493031823532  1.0000
  C   C249      1.0  0.919469261730596  0.8319598308012963  0.20762487043066913  1.0000
  C   C250      1.0  0.9115544393436724  0.8602610360015323  0.2370114546787385  1.0000
  C   C251      1.0  0.9319810489082674  0.8730727103190418  0.26994415173471753  1.0000
  C   C252      1.0  0.9597937169321131  0.8565984724191698  0.2748846176099551  1.0000
  H   H165      1.0  0.9529554591285793  0.7932659335999193  0.19007774947123365  1.0000
  H   H166      1.0  0.9038726570133236  0.8221071107776882  0.18178071470127377  1.0000
  H   H167      1.0  0.9264272058062426  0.8957182600924568  0.29158172293233087  1.0000
  H   H168      1.0  0.9752299879513496  0.8661278761700432  0.3011353889746374  1.0000
  C   C253      1.0  0.6353420267626451  0.6869914985180098  0.19935533820604445  1.0000
  C   C254      1.0  0.6657132519712053  0.6794912436493478  0.20337560163962132  1.0000
  C   C255      1.0  0.6816198803890785  0.6672284973597014  0.16455351712746413  1.0000
  C   C256      1.0  0.6672777847075115  0.6630684811045481  0.12154139058440205  1.0000
  C   C257      1.0  0.6372769101233615  0.6722079754068054  0.11740206199577785  1.0000
  C   C258      1.0  0.6211761179028099  0.6835546466610259  0.15628221516718965  1.0000
  H   H169      1.0  0.676717691196883  0.6821954618655589  0.23675774140442574  1.0000
  H   H170      1.0  0.7048695395611975  0.6604096056870647  0.16808127697349473  1.0000
  H   H171      1.0  0.6262059096727322  0.6702274474607822  0.0845092591180816  1.0000
  H   H172      1.0  0.5978159244846559  0.6898671598889751  0.15282775753387678  1.0000
  C   C259      1.0  0.672840096147879  0.7443849042348815  0.7707340733410342  1.0000
  C   C260      1.0  0.6549678513426352  0.7710698015852514  0.790231615127919  1.0000
  C   C261      1.0  0.6363366191447279  0.7626317169114478  0.8279932576599843  1.0000
  C   C262      1.0  0.6358459684549125  0.7276517849389632  0.846477477466857  1.0000
  C   C263      1.0  0.6537338881083913  0.7010705458658069  0.8269352173293059  1.0000
  C   C264      1.0  0.6721789061279277  0.709396348657709  0.789076019756333  1.0000
  H   H173      1.0  0.6552592854095909  0.7980719392082918  0.7759975989953712  1.0000
  H   H174      1.0  0.6224525850349905  0.7832270822084783  0.8430245862735476  1.0000
  H   H175      1.0  0.6529406706214679  0.6739554164466846  0.8406057702991111  1.0000
  H   H176      1.0  0.6858379583764007  0.6886636742918537  0.7738597883364414  1.0000
  C   C265      1.0  0.7557898695862753  0.16761307589101904  0.7570375909759756  1.0000
  C   C266      1.0  0.7383731272493078  0.6437610346983638  0.825044876015772  1.0000
  C   C267      1.0  0.7147354026803174  0.6227252857590456  0.8419017444695873  1.0000
  C   C268      1.0  0.7183180025834016  0.5857229690374581  0.8488081113310836  1.0000
  C   C269      1.0  0.73687039262749  0.12190978840566657  0.8099568104701516  1.0000
  C   C270      1.0  0.7608374345911062  0.14061567374448725  0.790090875784883  1.0000
  H   H177      1.0  0.7356944817531831  0.6725590396507568  0.821083367218451  1.0000
  H   H178      1.0  0.6937905555667466  0.6352170987541148  0.8497766634051531  1.0000
  H   H179      1.0  0.7409279520213823  0.10093893608899829  0.835405709152097  1.0000
  H   H180      1.0  0.783181300903432  0.13458634563991212  0.801157686672988  1.0000
  C   C271      1.0  0.9533720149101611  0.16356865151480693  0.6345116063069243  1.0000
  C   C272      1.0  0.9999816572763226  0.6804491237766522  0.7831673605315157  1.0000
  C   C273      1.0  0.5033211195182719  0.5617975634542346  0.9790300673509167  1.0000
  C   C274      1.0  0.5319289707947944  0.5676675648017356  0.9613545284410923  1.0000
  C   C275      1.0  0.502286007298927  0.14788996191472936  0.8612709664769336  1.0000
  C   C276      1.0  0.9774800009118692  0.18635680526908516  0.6251333170983918  1.0000
  H   H181      1.0  0.9967089570440482  0.7092736187172957  0.7847884205055768  1.0000
  H   H182      1.0  0.5002543216230902  0.5572222568644062  0.015904233589712158  1.0000
  H   H183      1.0  0.5236827723394691  0.14751699798473705  0.8785507535136908  1.0000
  H   H184      1.0  0.973975077708292  0.2149384584466434  0.6202663237016843  1.0000
  C   C277      1.0  0.9085599026175133  0.13856974706189296  0.877780931797308  1.0000
  C   C278      1.0  0.8922710386036712  0.17047232868090223  0.8747039406687359  1.0000
  C   C279      1.0  0.8998057406027018  0.20000778580998535  0.9029500997955782  1.0000
  C   C280      1.0  0.9238770573206628  0.19789229057526447  0.9339125509860339  1.0000
  C   C281      1.0  0.9400570228714477  0.1659312373372619  0.9372119586654343  1.0000
  C   C282      1.0  0.9322689791071839  0.13626176442642235  0.9094065028123474  1.0000
  H   H185      1.0  0.873550919181453  0.17219558045503836  0.8511681662141788  1.0000
  H   H186      1.0  0.8871302698129598  0.22461619734566174  0.9004872753395528  1.0000
  H   H187      1.0  0.9584349275900347  0.16391570992074112  0.9614132925904668  1.0000
  H   H188      1.0  0.9447983653514673  0.111543169627206  0.9121156186598021  1.0000
  C   C283      1.0  0.8174199931168281  0.9974236548239196  0.675724193944363  1.0000
  C   C284      1.0  0.8204833614943262  0.9947207047506432  0.7240995094704578  1.0000
  C   C285      1.0  0.8088805191816164  0.9646056876563216  0.7477884526258108  1.0000
  C   C286      1.0  0.793946931031639  0.9374062921421111  0.7231907963741369  1.0000
  C   C287      1.0  0.7908047472108926  0.9402302743139724  0.674835928579118  1.0000
  C   C288      1.0  0.8025977313832297  0.9701237605443747  0.6511427240942544  1.0000
  H   H189      1.0  0.8322473329147015  0.015475692856435241  0.7431988805966083  1.0000
  H   H190      1.0  0.8114405364985083  0.9624534731301279  0.7851907068199768  1.0000
  H   H191      1.0  0.7798607134582628  0.9189693589099309  0.6555305150881089  1.0000
  H   H192      1.0  0.8002526167806224  0.9720220119566257  0.613733998743532  1.0000
  N   N1        1.0  0.3619312503720212  0.2249966355783466  0.024266330137834302  1.0000
  C   C289      1.0  0.38145435000292155  0.20520513052653877  0.992032717231565  1.0000
  C   C290      1.0  0.37787918600118475  0.2572496834874842  0.04164205911600227  1.0000
  C   C291      1.0  0.3537403949619634  0.20139958972287197  0.06387082825923107  1.0000
  C   C292      1.0  0.3346549797061842  0.23610544467340255  0.9993350274198641  1.0000
  H   H193      1.0  0.4031095981674701  0.19835990201639642  0.008476836098199492  1.0000
  H   H194      1.0  0.3865156076076101  0.22139255921553724  0.9602528775490671  1.0000
  H   H195      1.0  0.37107535525317714  0.17948188873254245  0.9805106239878628  1.0000
  H   H196      1.0  0.36422705625898216  0.272484076823472  0.06711999816185354  1.0000
  H   H197      1.0  0.39904424613219075  0.24983591441478592  0.0593940758387872  1.0000
  H   H198      1.0  0.38375899985609335  0.2759637369478378  0.012651506115176625  1.0000
  H   H199      1.0  0.3402275922907013  0.21594227792822052  0.09015059719797947  1.0000
  H   H200      1.0  0.37371933213739966  0.19073376348440574  0.08194805255984217  1.0000
  H   H201      1.0  0.34041429252408106  0.1776640325554295  0.052202576104547926  1.0000
  H   H202      1.0  0.32217159377443977  0.212342847142593  0.9856402028654716  1.0000
  H   H203      1.0  0.33989902934888905  0.25379962418905055  0.9689814747057381  1.0000
  H   H204      1.0  0.3193929064319498  0.2511684055184751  0.022600506622985517  1.0000
  N   N2        1.0  0.6620002275172199  0.5034645032058648  0.7590398983307924  1.0000
  C   C293      1.0  0.6909488642385754  0.49770617851905546  0.7823323047792677  1.0000
  C   C294      1.0  0.6669981265630938  0.5200644553738577  0.7128259691161124  1.0000
  C   C295      1.0  0.643505252497001  0.5276607304498002  0.7875572670698647  1.0000
  C   C296      1.0  0.64658115276457  0.46845619519253123  0.7533392003881245  1.0000
  H   H205      1.0  0.6880697001100377  0.4864491326894711  0.8180680187080854  1.0000
  H   H206      1.0  0.7035095212000015  0.5234183058955373  0.7860029124988286  1.0000
  H   H207      1.0  0.7051345414800768  0.47865652369084183  0.7625435832878718  1.0000
  H   H208      1.0  0.6777687473585114  0.5470258341486278  0.7158939336985795  1.0000
  H   H209      1.0  0.6814735199112623  0.5029392816184407  0.6908006507885313  1.0000
  H   H210      1.0  0.6456868093876424  0.5235430712007323  0.6934708055081698  1.0000
  H   H211      1.0  0.6212313532844413  0.5318903093442977  0.7715386521508216  1.0000
  H   H212      1.0  0.6541968623457316  0.5546252166554145  0.791701282791263  1.0000
  H   H213      1.0  0.6400828474462655  0.5166329554702044  0.8233009779551953  1.0000
  H   H214      1.0  0.6600518224938791  0.4494980690051447  0.7322536304072096  1.0000
  H   H215      1.0  0.6249403351678378  0.4716104170445188  0.7348350674188274  1.0000
  H   H216      1.0  0.642144980916199  0.45537941690292605  0.7875812755960205  1.0000
  N   N3        1.0  0.02578671510331154  0.3951334886459119  0.13847626285273237  1.0000
  C   C297      1.0  0.008365347555680858  0.4235855380732597  0.16155689503289739  1.0000
  C   C298      1.0  0.0062512038741120435  0.37424798345621063  0.10690103964783004  1.0000
  C   C299      1.0  0.038357815042877386  0.37077900390408247  0.1741352706416056  1.0000
  C   C300      1.0  0.05021195576475579  0.41180670545575254  0.11140239837713817  1.0000
  H   H217      1.0  0.02248823424613411  0.4397145399651313  0.1857993144909844  1.0000
  H   H218      1.0  0.9896724440064261  0.4119031446422153  0.18216093615314616  1.0000
  H   H219      1.0  0.9987804891355527  0.4427541741144048  0.13576695888088436  1.0000
  H   H220      1.0  0.9878568063380951  0.3608204677490082  0.1264011642413687  1.0000
  H   H221      1.0  0.996177234070713  0.39171759005182283  0.07960603569843006  1.0000
  H   H222      1.0  0.01877921617167866  0.35253801456206274  0.08894425015942309  1.0000
  H   H223      1.0  0.05267609960851205  0.3855815190486273  0.19914843614562072  1.0000
  H   H224      1.0  0.05211089511258438  0.3493575014021288  0.15806783478051734  1.0000
  H   H225      1.0  0.020548704771259807  0.35727442007370175  0.1947517404071797  1.0000
  H   H226      1.0  0.06357421961454368  0.3911401505942555  0.0929663685730393  1.0000
  H   H227      1.0  0.06568370781673405  0.4272174900554567  0.13432628296869814  1.0000
  H   H228      1.0  0.041597398622986725  0.43102021569115956  0.0848316297499707  1.0000
  N   N4        1.0  0.7121321173381338  0.9624567320731634  0.47896648647978446  1.0000
  C   C301      1.0  0.6928129441168278  0.9923503603982038  0.49366960183116443  1.0000
  C   C302      1.0  0.7291417667265262  0.9734697184065907  0.4372608085691992  1.0000
  C   C303      1.0  0.6936039504128941  0.930568767929541  0.46781460826673577  1.0000
  C   C304      1.0  0.7329524804399339  0.9534103495069027  0.5171211526820457  1.0000
  H   H229      1.0  0.6759531781952349  0.9989465517996144  0.46650002422577924  1.0000
  H   H230      1.0  0.7058339605776839  0.01731011479375466  0.5007888594333567  1.0000
  H   H231      1.0  0.680521202000345  0.9853847662209699  0.5260306232240959  1.0000
  H   H232      1.0  0.7442018887998594  0.9516288820337162  0.4255539838270889  1.0000
  H   H233      1.0  0.7140785252643173  0.9800057684606512  0.40760088831782115  1.0000
  H   H234      1.0  0.7431713990890351  0.9976830952578213  0.44403517134777537  1.0000
  H   H235      1.0  0.7073988470519474  0.9076063926920214  0.4561182636457319  1.0000
  H   H236      1.0  0.6773965947927312  0.9363141801379856  0.43949170744846244  1.0000
  H   H237      1.0  0.6809331376304613  0.9209101906190909  0.4987134826468286  1.0000
  H   H238      1.0  0.7208342864749822  0.9434421571969064  0.5485020991913314  1.0000
  H   H239      1.0  0.7466177932208727  0.9771137334520257  0.5276111450161713  1.0000
  H   H240      1.0  0.7483983449835647  0.9316281842977819  0.5065925343558343  1.0000
  N   N5        1.0  0.8947355420317075  0.25649570626290435  0.12624883862384895  1.0000
  C   C305      1.0  0.8925286436874734  0.2283636388958534  0.16267529482683463  1.0000
  C   C306      1.0  0.9222953279019571  0.2777291861426809  0.1333403152736862  1.0000
  C   C307      1.0  0.8686776692566366  0.2804814262708885  0.12929974997113902  1.0000
  C   C308      1.0  0.8954767636491876  0.23940805040290844  0.07976784157874994  1.0000
  H   H241      1.0  0.9120203412753748  0.2100665662633461  0.1620299400084913  1.0000
  H   H242      1.0  0.8721234888274161  0.21157268503734697  0.15835637259160862  1.0000
  H   H243      1.0  0.8916432660275998  0.24040429304485048  0.198160415457643  1.0000
  H   H244      1.0  0.9229126927098799  0.2902471305461938  0.16855026947814877  1.0000
  H   H245      1.0  0.9423602054731071  0.2605201843333737  0.13027468352694016  1.0000
  H   H246      1.0  0.9244629401443896  0.29965185659142063  0.10702015565358947  1.0000
  H   H247      1.0  0.8474728726391798  0.265282610268594  0.12438807820738695  1.0000
  H   H248      1.0  0.8695144054114613  0.3020912811421423  0.10235789906676994  1.0000
  H   H249      1.0  0.8673776648226843  0.29382201819685094  0.16396281392555342  1.0000
  H   H250      1.0  0.8973687467750612  0.25983305199109885  0.05136123025004102  1.0000
  H   H251      1.0  0.8750394306434672  0.22317844466557044  0.07294928585926286  1.0000
  H   H252      1.0  0.9148557373145267  0.22109681293200256  0.07613419784949248  1.0000
  N   N6        1.0  0.9017734045696877  0.7920343541390367  0.3659943002480461  1.0000
  C   C309      1.0  0.921010794102809  0.8199304042987213  0.38733716813063607  1.0000
  C   C310      1.0  0.875848388620554  0.8093576252780744  0.34375508333154114  1.0000
  C   C311      1.0  0.8913337982056028  0.7668463055579541  0.4025291546837208  1.0000
  C   C312      1.0  0.9188027497746746  0.7721560864821306  0.3304614244366484  1.0000
  H   H253      1.0  0.9087975453256034  0.8354322986688576  0.4143467684472608  1.0000
  H   H254      1.0  0.9291827635939963  0.8395326662503058  0.36081478400432365  1.0000
  H   H255      1.0  0.9409051901627754  0.807880194199894  0.4042533141165738  1.0000
  H   H256      1.0  0.8611413974584045  0.7892564795964845  0.3263683436901276  1.0000
  H   H257      1.0  0.8622142444584946  0.8240004875834591  0.3697932755274243  1.0000
  H   H258      1.0  0.8828990972364724  0.8291688559858207  0.31672147071630136  1.0000
  H   H259      1.0  0.9103089674509899  0.7532531363145657  0.42009359075479286  1.0000
  H   H260      1.0  0.8765731254046961  0.7455567594680843  0.3877499972455707  1.0000
  H   H261      1.0  0.87842404841182  0.781235899188386  0.4298522835513478  1.0000
  H   H262      1.0  0.9051987074401464  0.7504689268995784  0.31405494462905253  1.0000
  H   H263      1.0  0.9390793403787288  0.7595476898674955  0.34551727071039035  1.0000
  H   H264      1.0  0.9263089950774082  0.7903628712244914  0.30193146384805486  1.0000
  N   N7        1.0  0.29150813389554353  0.2166390254427549  0.6717474016906222  1.0000
  C   C313      1.0  0.31802922445074744  0.19340125302159844  0.6693015104536163  1.0000
  C   C314      1.0  0.2835058122055155  0.22882273743656706  0.6243008370806183  1.0000
  C   C315      1.0  0.2981207917517002  0.24824726019949211  0.7013532561984174  1.0000
  C   C316      1.0  0.26641358087215805  0.19603100752380018  0.6920118180987221  1.0000
  H   H265      1.0  0.3244522493950923  0.18321619699742403  0.7043530819853349  1.0000
  H   H266      1.0  0.33752455178765217  0.20821774033161283  0.6548728855776474  1.0000
  H   H267      1.0  0.31397863869495096  0.1693698063008294  0.646957930026383  1.0000
  H   H268      1.0  0.27862609351418854  0.20562906211585474  0.6009641698844556  1.0000
  H   H269      1.0  0.26340678781644794  0.24601624272117695  0.6246841778428263  1.0000
  H   H270      1.0  0.3016757658269868  0.24513941396829386  0.6083262347594139  1.0000
  H   H271      1.0  0.2783061065998756  0.26573304245007445  0.7054303869807309  1.0000
  H   H272      1.0  0.3160932931402172  0.26538174945472476  0.6863354414572584  1.0000
  H   H273      1.0  0.3051354056370303  0.23999504730879115  0.7370164913332318  1.0000
  H   H274      1.0  0.24608084167463587  0.21281022183662532  0.6946861219732509  1.0000
  H   H275      1.0  0.27174315666064836  0.18645833460565778  0.7278510008035429  1.0000
  H   H276      1.0  0.260653504264233  0.1720487913827881  0.6705713415907202  1.0000
  N   N8        1.0  0.4754424173813987  0.5375883074459002  0.15456059010773004  1.0000
  C   C317      1.0  0.45934733254208776  0.5344898837083698  0.19926882041301353  1.0000
  C   C318      1.0  0.4940468494967424  0.5053644889561844  0.14778500913028436  1.0000
  C   C319      1.0  0.4945771271163328  0.5701373743761302  0.15517275667560804  1.0000
  C   C320      1.0  0.45369796687886776  0.5403514118889944  0.11608126675608088  1.0000
  H   H277      1.0  0.44723182769023945  0.5596906358026066  0.2076934015282592  1.0000
  H   H278      1.0  0.4747966300140608  0.5289556099031215  0.22870847696773167  1.0000
  H   H279      1.0  0.44282614225051814  0.5120660722281793  0.19859062185154164  1.0000
  H   H280      1.0  0.5110378149854796  0.5029231526198211  0.17586503868314018  1.0000
  H   H281      1.0  0.4803816349202225  0.48020895019440846  0.14869886910511054  1.0000
  H   H282      1.0  0.5058877366371463  0.5064074200203047  0.1137875256956622  1.0000
  H   H283      1.0  0.5064384042889372  0.5740796437134792  0.12149402798925757  1.0000
  H   H284      1.0  0.5115255129857457  0.5685768479789263  0.18338948854308912  1.0000
  H   H285      1.0  0.4813634442660226  0.5948921122689074  0.16144045745310986  1.0000
  H   H286      1.0  0.4648047095307672  0.545221425702558  0.08199842425354364  1.0000
  H   H287      1.0  0.438158111492582  0.5629527675510008  0.12200583505809237  1.0000
  H   H288      1.0  0.4400316964269697  0.5153852141702885  0.11282487610428005  1.0000
  N   N9        1.0  0.11168173213726706  0.6110503081159018  0.16170716462879753  1.0000
  C   C321      1.0  0.09205464301769747  0.6289599228423802  0.1956458368190659  1.0000
  C   C322      1.0  0.13594129920321016  0.6359589566323045  0.14802324855590565  1.0000
  C   C323      1.0  0.09420294680783926  0.600889859889224  0.12001324068626107  1.0000
  C   C324      1.0  0.12451722590413238  0.5783659841083071  0.1831444987039177  1.0000
  H   H289      1.0  0.07301970353026353  0.6113496441984791  0.20554867036746183  1.0000
  H   H290      1.0  0.08243338190867044  0.6541129337029409  0.18101541703681967  1.0000
  H   H291      1.0  0.10419258222669628  0.6363123039241633  0.22808559616735624  1.0000
  H   H292      1.0  0.1493417232356903  0.6445738459429206  0.17870316393803742  1.0000
  H   H293      1.0  0.15119930741469512  0.6232908434038791  0.1224870938397431  1.0000
  H   H294      1.0  0.1270626259329244  0.6607995961091332  0.13135623638838712  1.0000
  H   H295      1.0  0.10835134737540511  0.5879308522156261  0.0932057766563914  1.0000
  H   H296      1.0  0.0836756373592957  0.6248799757047498  0.10356822369369079  1.0000
  H   H297      1.0  0.07605560656583518  0.581581526204969  0.12895879110334074  1.0000
  H   H298      1.0  0.1389509481947202  0.5636952213892411  0.15823561260228391  1.0000
  H   H299      1.0  0.10683171063697787  0.5592345533877503  0.19446760821975606  1.0000
  H   H300      1.0  0.13809344354227698  0.5850023021018755  0.214473928026522  1.0000
  N   N10       1.0  0.7546299376746031  0.4180086629564649  0.3922725807337622  1.0000
  C   C325      1.0  0.7683187831225413  0.44896159315620215  0.41669090371401823  1.0000
  C   C326      1.0  0.7719577366129761  0.40997692280004716  0.34989497288874677  1.0000
  C   C327      1.0  0.7237076789513832  0.4268321990021853  0.37910499411646853  1.0000
  C   C328      1.0  0.7545650996436991  0.38622326407868146  0.42344039742527434  1.0000
  H   H301      1.0  0.7560244067574727  0.4555829608530981  0.4491748033533284  1.0000
  H   H302      1.0  0.7686855962056295  0.47349720245626  0.3943482943238911  1.0000
  H   H303      1.0  0.7916382687039814  0.44307117765412407  0.42710122852977467  1.0000
  H   H304      1.0  0.7727088426474173  0.4333849452303489  0.3256270322194008  1.0000
  H   H305      1.0  0.7952982551840481  0.4024934653356081  0.3584745072167752  1.0000
  H   H306      1.0  0.7620838131124829  0.38702046405940455  0.33045947655064023  1.0000
  H   H307      1.0  0.7129343967362469  0.40415781990562333  0.35991230981932626  1.0000
  H   H308      1.0  0.7227709356804617  0.4509408278449071  0.35600063857927455  1.0000
  H   H309      1.0  0.7098649572964149  0.432359023246705  0.4103398752685549  1.0000
  H   H310      1.0  0.7417094116967337  0.3635110969582608  0.4082379686075814  1.0000
  H   H311      1.0  0.7445275656280038  0.39244396288086025  0.4578748780686529  1.0000
  H   H312      1.0  0.7774865004001018  0.3762428496337986  0.429739146862706  1.0000
  N   N11       1.0  0.9891435449703858  0.08211072727023727  0.23864351629922256  1.0000
  C   C329      1.0  0.9618169644801304  0.06569660479326456  0.258203140861919  1.0000
  C   C330      1.0  0.9991095428084708  0.11206768893308872  0.26885082069057337  1.0000
  C   C331      1.0  0.9830531329258888  0.09587483316219192  0.19121747863600694  1.0000
  C   C332      1.0  0.01273225303955594  0.054686727930567613  0.23641086891871754  1.0000
  H   H313      1.0  0.9541526285035123  0.0422204069006058  0.23717611207453418  1.0000
  H   H314      1.0  0.9433067942110287  0.08542184087130988  0.25971429695814924  1.0000
  H   H315      1.0  0.9655598600398616  0.05564170009336422  0.29431869907538366  1.0000
  H   H316      1.0  0.9818991058965493  0.13341068902486586  0.2714032274805722  1.0000
  H   H317      1.0  0.003967887865594211  0.10243320267957956  0.30485445807761075  1.0000
  H   H318      1.0  0.01988627657149622  0.12477903219809194  0.2554212576354076  1.0000
  H   H319      1.0  0.003364823770586778  0.10797628669556247  0.17532486070088438  1.0000
  H   H320      1.0  0.9655575554276938  0.11692233776023642  0.19148585078602517  1.0000
  H   H321      1.0  0.9754474123616109  0.07388685314401244  0.16762884518239352  1.0000
  H   H322      1.0  0.006017823705945391  0.031343467421796944  0.21438998598778175  1.0000
  H   H323      1.0  0.017894447662182733  0.043892870018500174  0.2715946405689372  1.0000
  H   H324      1.0  0.03372961757220683  0.06599839597176249  0.22185788178836732  1.0000
  N   N12       1.0  0.551967944230795  0.25964325495905954  0.12803369927495778  1.0000
  C   C333      1.0  0.5353406414369473  0.2251694770208683  0.12844874055639455  1.0000
  C   C334      1.0  0.5313907230518213  0.2895058055464363  0.13825365857974647  1.0000
  C   C335      1.0  0.5654846715445324  0.2651991284198509  0.08161566170088186  1.0000
  C   C336      1.0  0.5755913784467844  0.2586345442165469  0.1639217643239923  1.0000
  H   H325      1.0  0.5500463127785645  0.2019352166884786  0.12055730537255349  1.0000
  H   H326      1.0  0.5171692107189266  0.22516446870619866  0.10203141203450761  1.0000
  H   H327      1.0  0.524824773763462  0.220126009180429  0.16290736331610756  1.0000
  H   H328      1.0  0.513272225701996  0.2912227799531186  0.11182905952222422  1.0000
  H   H329      1.0  0.5205647255799446  0.2858407788434576  0.17281018822567185  1.0000
  H   H330      1.0  0.5432185516875847  0.3159437886328733  0.13914057472466057  1.0000
  H   H331      1.0  0.5482147728958628  0.2669658684825067  0.053854860000407845  1.0000
  H   H332      1.0  0.5804152434392608  0.24250327032778976  0.0720644558639536  1.0000
  H   H333      1.0  0.5788886650448258  0.29048275447014305  0.08032198393536483  1.0000
  H   H334      1.0  0.5661233423166079  0.25436891072544915  0.1993561692948833  1.0000
  H   H335      1.0  0.5882851298633728  0.28449362347224716  0.1651554762134948  1.0000
  H   H336      1.0  0.5916786474833025  0.23658967345938103  0.15721411466923407  1.0000
  N   N13       1.0  0.06925606762652019  0.8779826103657545  0.2389658734471417  1.0000
  C   C337      1.0  0.09938633507131305  0.8712070999429716  0.25761439048772494  1.0000
  C   C338      1.0  0.06091800457977427  0.8492074245103236  0.205822879828531  1.0000
  C   C339      1.0  0.06899531537423066  0.9131668679308352  0.21478360806464405  1.0000
  C   C340      1.0  0.04767298539681065  0.8785045056201131  0.27770828208901716  1.0000
  H   H337      1.0  0.10617753933056165  0.8923446434641146  0.283059825235864  1.0000
  H   H338      1.0  0.1163734367672671  0.8715019204162132  0.22943547727531  1.0000
  H   H339      1.0  0.10054507437280961  0.8446932626339012  0.27567597874104527  1.0000
  H   H340      1.0  0.07645557208902981  0.8482327933077489  0.17576503216966388  1.0000
  H   H341      1.0  0.06099276286596153  0.8222309151364272  0.22293405845932396  1.0000
  H   H342      1.0  0.03802482624781233  0.8532520117664494  0.1918504308366722  1.0000
  H   H343      1.0  0.046454073438371386  0.919537561080005  0.20097769764377735  1.0000
  H   H344      1.0  0.08497768304405875  0.9138980635961469  0.1852571798944348  1.0000
  H   H345      1.0  0.07533948400128697  0.9352597168322072  0.23895169123147855  1.0000
  H   H346      1.0  0.046898226120975835  0.8522185106230392  0.2964309891215179  1.0000
  H   H347      1.0  0.024752635493527363  0.8839879058755868  0.2647866436146264  1.0000
  H   H348      1.0  0.053210364584220446  0.8998914614552582  0.30346384042454816  1.0000
  N   N14       1.0  0.38168298642242005  0.7683860636855602  0.35661987356384817  1.0000
  C   C341      1.0  0.3807352761420296  0.7290474929482417  0.36466071274793416  1.0000
  C   C342      1.0  0.35545897902792484  0.7852383265023545  0.378316620965247  1.0000
  C   C343      1.0  0.3815189426296389  0.7756526687485094  0.3059275667565633  1.0000
  C   C344      1.0  0.40907530674222453  0.7835451925748712  0.37759230290256546  1.0000
  H   H349      1.0  0.3810484589980709  0.7225194593042885  0.40254100333681486  1.0000
  H   H350      1.0  0.4002203705180991  0.7155683993786923  0.3484805222857184  1.0000
  H   H351      1.0  0.36024642750389  0.7167708843262359  0.34949303090365147  1.0000
  H   H352      1.0  0.35604163844557524  0.8150349701594949  0.3743307100379589  1.0000
  H   H353      1.0  0.3342764786165554  0.7756776593324922  0.3622372069414521  1.0000
  H   H354      1.0  0.35425274136682283  0.7795012100963252  0.416346357257574  1.0000
  H   H355      1.0  0.36125232215581987  0.7644429511454395  0.2888406378660525  1.0000
  H   H356      1.0  0.4012336446523703  0.7637089204282965  0.28853105873517493  1.0000
  H   H357      1.0  0.3819580788611727  0.8050390161939939  0.29834982332089494  1.0000
  H   H358      1.0  0.40959722673398347  0.7793506184825504  0.41598903969064427  1.0000
  H   H359      1.0  0.41092131332730003  0.8130748609974912  0.3710755900278898  1.0000
  H   H360      1.0  0.4293357155654548  0.7707300219582738  0.3629492685096051  1.0000
  N   N15       1.0  0.10710475034700655  0.12226715962422396  0.5192472463021373  1.0000
  C   C345      1.0  0.10396173719652607  0.1579451783294561  0.5412292212239704  1.0000
  C   C346      1.0  0.11769386957029203  0.09591263636977909  0.5541916478013655  1.0000
  C   C347      1.0  0.1288168611861466  0.12499640773949716  0.4808057531724697  1.0000
  C   C348      1.0  0.07790404321937273  0.11032855548719156  0.5009457242953126  1.0000
  H   H361      1.0  0.08751917740883446  0.15687079278515514  0.5700096911660021  1.0000
  H   H362      1.0  0.09619204841976055  0.17856698566936102  0.5158668024584814  1.0000
  H   H363      1.0  0.12548515140195265  0.1676927567869373  0.5559394105266613  1.0000
  H   H364      1.0  0.11976633310639115  0.06855288495253231  0.5387817398977034  1.0000
  H   H365      1.0  0.13982430321256353  0.10368061748281954  0.5685650574065666  1.0000
  H   H366      1.0  0.1019768335439017  0.09353077721084024  0.58400073462715  1.0000
  H   H367      1.0  0.1322172451679885  0.09849826179368049  0.4638089609602385  1.0000
  H   H368      1.0  0.15092361278152897  0.1343826282980778  0.4936270386441974  1.0000
  H   H369      1.0  0.12125501039178009  0.14411681280010913  0.453395493023808  1.0000
  H   H370      1.0  0.061141266499906616  0.10796959854249777  0.5293734948378637  1.0000
  H   H371      1.0  0.07938616685638548  0.08339121761998514  0.4842452014542153  1.0000
  H   H372      1.0  0.06910868349915865  0.12944840825540438  0.47449397611119887  1.0000
  N   N16       1.0  0.5091017948440674  0.23765918020370827  0.7441432715177426  1.0000
  C   C349      1.0  0.5167701250370709  0.2664171427085722  0.7104375575681356  1.0000
  C   C350      1.0  0.47738089047924165  0.22761706653450983  0.7392651600007784  1.0000
  C   C351      1.0  0.5146478978437014  0.2507565407020791  0.7919838049935303  1.0000
  C   C352      1.0  0.5276833542942679  0.20577101254888985  0.7350156808736051  1.0000
  H   H373      1.0  0.5406767126039412  0.27436921714322265  0.7135858770330369  1.0000
  H   H374      1.0  0.5033004917647157  0.2910212530060453  0.7163003833570434  1.0000
  H   H375      1.0  0.5130082261694705  0.25744451717444894  0.6739419559449131  1.0000
  H   H376      1.0  0.47110115425842386  0.20606670458921075  0.7646005895603261  1.0000
  H   H377      1.0  0.4626262273403217  0.2509974383175027  0.745854160833827  1.0000
  H   H378      1.0  0.4723549390044677  0.21720031060673517  0.7037834699662001  1.0000
  H   H379      1.0  0.50919652578279  0.22965280624117382  0.8184034808898217  1.0000
  H   H380      1.0  0.5009634879828023  0.27477490660372567  0.8000806438396004  1.0000
  H   H381      1.0  0.5384242819209702  0.2586058741106634  0.796935136999008  1.0000
  H   H382      1.0  0.5518055136742201  0.21228069723220028  0.7379253616609136  1.0000
  H   H383      1.0  0.5237438258442453  0.19467014974475905  0.6995881376557035  1.0000
  H   H384      1.0  0.5229251270144465  0.18382769041541777  0.7603185334796245  1.0000
  N   N17       1.0  0.8759371362728696  0.9718904255241118  0.5419744976067451  1.0000
  C   C353      1.0  0.8746964774554244  0.9542894010649964  0.5882213492509915  1.0000
  C   C354      1.0  0.8457416525732987  0.9831250472566468  0.5279392144985418  1.0000
  C   C355      1.0  0.8876797415669115  0.9462334621824319  0.5074120613761232  1.0000
  C   C356      1.0  0.8955525545970036  0.003975754449345059  0.5442434300580125  1.0000
  H   H385      1.0  0.8667060964262747  0.9731904018626143  0.6154084153642211  1.0000
  H   H386      1.0  0.8969929053639886  0.9447623003736733  0.5994827896519657  1.0000
  H   H387      1.0  0.8593057046405977  0.930651622229849  0.5881241431040382  1.0000
  H   H388      1.0  0.8460639395161018  0.997114008137784  0.49355602932500525  1.0000
  H   H389      1.0  0.8303736745623309  0.9595770950245609  0.5252440747102185  1.0000
  H   H390      1.0  0.8361258565192395  0.0022064077356962475  0.5535943753493647  1.0000
  H   H391      1.0  0.8733779307393715  0.9217000379480539  0.5048304906692102  1.0000
  H   H392      1.0  0.9105445062358898  0.9374010745063269  0.5166120978997484  1.0000
  H   H393      1.0  0.8888189295629993  0.9585854436818734  0.47208451017471653  1.0000
  H   H394      1.0  0.8869859514147862  0.024101981843902553  0.5696066673797621  1.0000
  H   H395      1.0  0.8972590247021189  0.017588953911343408  0.5096274749805318  1.0000
  H   H396      1.0  0.9184808599012986  0.9967170731353282  0.5552813845929679  1.0000
  N   N18       1.0  0.4809195233289373  0.945267367507017  0.2585181813131599  1.0000
  C   C357      1.0  0.4592301896914033  0.9304594394936713  0.22469671834948002  1.0000
  C   C358      1.0  0.46998379710428567  0.9799902031938075  0.27656123847211667  1.0000
  C   C359      1.0  0.5099115258849346  0.9510472899104679  0.23541749803166956  1.0000
  C   C360      1.0  0.4846009993559515  0.9196201019413276  0.2975816934431657  1.0000
  H   H397      1.0  0.437142896672193  0.9256600361341787  0.2411233330887255  1.0000
  H   H398      1.0  0.4666158957540316  0.9041142314387898  0.21044853310100112  1.0000
  H   H399      1.0  0.45582903776333894  0.9491045515029934  0.194750585965867  1.0000
  H   H400      1.0  0.44772299984690794  0.9769477743682252  0.29299297240223  1.0000
  H   H401      1.0  0.48528686679532196  0.9911472601023167  0.3034872075369127  1.0000
  H   H402      1.0  0.46809759556778036  0.000584958886560516  0.2484601099681839  1.0000
  H   H403      1.0  0.5268453652847084  0.9616816570511069  0.2603105613546287  1.0000
  H   H404      1.0  0.508236528760181  0.9709926975057318  0.20647907584992886  1.0000
  H   H405      1.0  0.5187287977228081  0.9255602241833174  0.22077430525013897  1.0000
  H   H406      1.0  0.4633601751190186  0.9155493791154212  0.3167472843873468  1.0000
  H   H407      1.0  0.5013611447457186  0.929543547919495  0.32322564778827995  1.0000
  H   H408      1.0  0.49205798107946047  0.8927833637995362  0.2852125517682216  1.0000
  N   N19       1.0  0.25301784705200214  0.7446488072826241  0.8638475495838085  1.0000
  C   C361      1.0  0.24994934153099582  0.7283048319151947  0.8171828882103968  1.0000
  C   C362      1.0  0.23374802152266733  0.776650155710364  0.8668308891588091  1.0000
  C   C363      1.0  0.2843511524028862  0.7554681115355708  0.871432327677691  1.0000
  C   C364      1.0  0.2441215106390765  0.718152447064748  0.8998580377343127  1.0000
  H   H409      1.0  0.26530521252099515  0.7052222010390755  0.8129161559355246  1.0000
  H   H410      1.0  0.2552470592202358  0.748026320580693  0.7890935697685285  1.0000
  H   H411      1.0  0.2268884824778757  0.7182465441298674  0.8108279768857019  1.0000
  H   H412      1.0  0.23545810382538762  0.7897847159599768  0.9015272013931028  1.0000
  H   H413      1.0  0.2398097850468021  0.7971741547451923  0.840026637330506  1.0000
  H   H414      1.0  0.20997334795950634  0.7693247745514032  0.8611833450477231  1.0000
  H   H415      1.0  0.2875614716985618  0.7679020735335321  0.9063311412284291  1.0000
  H   H416      1.0  0.2918203396819719  0.7753742119577963  0.8447301410817089  1.0000
  H   H417      1.0  0.29945382793519515  0.7317912420361168  0.8693621601715721  1.0000
  H   H418      1.0  0.25900633806486845  0.6943668871147876  0.8997938311903416  1.0000
  H   H419      1.0  0.22104071088193075  0.7080089943765141  0.8940880293170919  1.0000
  H   H420      1.0  0.24506443195364255  0.729948322908972  0.9354044277022453  1.0000
  N   N20       1.0  0.9720627459779281  0.1861536097288552  0.779864136977962  1.0000
  C   C365      1.0  0.0016049932730692884  0.17727183971027882  0.7609732454856244  1.0000
  C   C366      1.0  0.9516516877602951  0.15524944979179733  0.7731180382702063  1.0000
  C   C367      1.0  0.9602718795521362  0.21803516021197455  0.7551633026192698  1.0000
  C   C368      1.0  0.9747157276427213  0.19410548840311637  0.8301362377993012  1.0000
  H   H421      1.0  0.01735945768440983  0.20036138724921693  0.764819099210146  1.0000
  H   H422      1.0  0.00031178725121439044  0.1707271039366849  0.7232011437834787  1.0000
  H   H423      1.0  0.011370056606737622  0.1535348241380774  0.7789972477326438  1.0000
  H   H424      1.0  0.9597770562276602  0.13056824546354306  0.7911344412958448  1.0000
  H   H425      1.0  0.929290477569443  0.16099352077152518  0.7874656155000958  1.0000
  H   H426      1.0  0.9487869925129938  0.1486689641841914  0.735589324924536  1.0000
  H   H427      1.0  0.9578725155185444  0.21282094188650835  0.7171650244009702  1.0000
  H   H428      1.0  0.9753469858729268  0.241785442150652  0.759170249395327  1.0000
  H   H429      1.0  0.9379444991749302  0.22553197359785315  0.7685196686913428  1.0000
  H   H430      1.0  0.9908308722809365  0.21634640079348633  0.8368296395409603  1.0000
  H   H431      1.0  0.982248512140516  0.17011111152545277  0.8501982589874918  1.0000
  H   H432      1.0  0.9529811851926645  0.20236379716339514  0.8449582308784458  1.0000
  N   N21       1.0  0.002026111043278326  0.4880120529145865  0.38230806159864383  1.0000
  C   C369      1.0  0.004194665848158842  0.5172558798180227  0.4170257207172595  1.0000
  C   C370      1.0  0.9708770149441328  0.4752161073374442  0.3791207672682207  1.0000
  C   C371      1.0  0.02139973785922261  0.4578710896651745  0.3966619334217803  1.0000
  C   C372      1.0  0.011687597895435577  0.5018593086298392  0.3364143561656383  1.0000
  H   H433      1.0  0.027499989760341115  0.5273157813724536  0.4205461692922415  1.0000
  H   H434      1.0  0.9968138202065668  0.5079559883960223  0.4520773327545119  1.0000
  H   H435      1.0  0.9901649384964742  0.5406578875477838  0.40690195958492614  1.0000
  H   H436      1.0  0.9683708861467247  0.45335243355290755  0.3529716162354657  1.0000
  H   H437      1.0  0.9628605020077936  0.4641700093679281  0.41295512340664026  1.0000
  H   H438      1.0  0.9556005351249993  0.4972442140533421  0.368428904484216  1.0000
  H   H439      1.0  0.04517596196595497  0.46640123846882436  0.39864938527492916  1.0000
  H   H440      1.0  0.019993943783213623  0.4350846867548329  0.37163933556188283  1.0000
  H   H441      1.0  0.014985183460886693  0.4470367808694119  0.4314334004410762  1.0000
  H   H442      1.0  0.9971918868703159  0.5241715378045997  0.32395278451203396  1.0000
  H   H443      1.0  0.011102284027684489  0.4804400316323604  0.3094252445683559  1.0000
  H   H444      1.0  0.03485864504542316  0.5125084729075635  0.33793255684099316  1.0000
  N   N22       1.0  0.24954756607123316  0.4539351428996394  0.3951715047281572  1.0000
  C   C373      1.0  0.2761137324011347  0.47644044034731586  0.3858393472340755  1.0000
  C   C374      1.0  0.25174978588597074  0.41988498852608114  0.368848074605816  1.0000
  C   C375      1.0  0.22257215861029525  0.47341363642761825  0.38026697445186225  1.0000
  C   C376      1.0  0.24777395683596876  0.44603430535103256  0.44564756320780163  1.0000
  H   H445      1.0  0.27745671795194715  0.48439112421876235  0.34851414382169715  1.0000
  H   H446      1.0  0.29692522789611103  0.4617338878851958  0.3943278308498198  1.0000
  H   H447      1.0  0.27599205729920034  0.501564345057035  0.40691958772845016  1.0000
  H   H448      1.0  0.25336934267056  0.42502357547641606  0.33065531463329983  1.0000
  H   H449      1.0  0.2718132154790382  0.404363348365105  0.37931015328428985  1.0000
  H   H450      1.0  0.23192146257869242  0.4023510972753713  0.3746648640020083  1.0000
  H   H451      1.0  0.20208279591348074  0.4572302987545231  0.38695609235088546  1.0000
  H   H452      1.0  0.22296626861986518  0.47969348338123136  0.3423516764054742  1.0000
  H   H453      1.0  0.22017378828390594  0.4993657502370902  0.3991636925237714  1.0000
  H   H454      1.0  0.22787793628901032  0.4292825637919648  0.4541825670176946  1.0000
  H   H455      1.0  0.24621134195189517  0.4712245696795817  0.4665325705401042  1.0000
  H   H456      1.0  0.26784789877970944  0.43145752003854376  0.45822008432033884  1.0000
  N   N23       1.0  0.5171786942471247  0.6862772543289051  0.9513915362993781  1.0000
  C   C377      1.0  0.4976922843825326  0.6645750946294242  0.9206681770789112  1.0000
  C   C378      1.0  0.49877559520360515  0.7086202737628384  0.9824386029064605  1.0000
  C   C379      1.0  0.5365118484799271  0.7097959709612042  0.9226810605512499  1.0000
  C   C380      1.0  0.5359432340230063  0.6621055331788419  0.9797496259735194  1.0000
  H   H457      1.0  0.510930180265163  0.6481642006468215  0.8959867768089443  1.0000
  H   H458      1.0  0.48265556460217224  0.6818494111509245  0.8995561289493987  1.0000
  H   H459      1.0  0.4834810018597233  0.64555177270432  0.9409886604782686  1.0000
  H   H460      1.0  0.5127776935670367  0.7243002192699014  0.007314527640314372  1.0000
  H   H461      1.0  0.4849255478560047  0.7279441688456445  0.9623549770658991  1.0000
  H   H462      1.0  0.4834547918774561  0.6917066788409224  0.0037578755452178925  1.0000
  H   H463      1.0  0.5520403583422508  0.7260225094946272  0.9446323250264855  1.0000
  H   H464      1.0  0.5233369134965827  0.7287871337173562  0.9009991251504152  1.0000
  H   H465      1.0  0.5505665182445525  0.693736594046203  0.8986052912678582  1.0000
  H   H466      1.0  0.5502956583463884  0.6776053138845618  0.004244553524253902  1.0000
  H   H467      1.0  0.5505241686486919  0.6453392134167032  0.9574398951830537  1.0000
  H   H468      1.0  0.5224510001705247  0.6433407870854867  0.001372096890229324  1.0000
  N   N24       1.0  0.6604934217996117  0.30326636611542424  0.49685608461928926  1.0000
  C   C381      1.0  0.6514976832239657  0.3396920285047496  0.4818014788968224  1.0000
  C   C382      1.0  0.6488915200008931  0.2763361994154132  0.46350889298428993  1.0000
  C   C383      1.0  0.6482313867610545  0.29594788289840196  0.5436692886225882  1.0000
  C   C384      1.0  0.6933125127758674  0.30128687275601196  0.4985804282918716  1.0000
  H   H469      1.0  0.6601317448245636  0.3462812911392588  0.446542796215448  1.0000
  H   H470      1.0  0.6600690453110067  0.3606018324690657  0.5061424259985542  1.0000
  H   H471      1.0  0.6268348041306718  0.3422637386315753  0.480406974786637  1.0000
  H   H472      1.0  0.6550142161098479  0.2484893607040331  0.4741361361368485  1.0000
  H   H473      1.0  0.6242246747740693  0.27755555181157693  0.4607254914188149  1.0000
  H   H474      1.0  0.6579898254033838  0.28099794460682737  0.4279002676276191  1.0000
  H   H475      1.0  0.6555031910462031  0.2692872346011988  0.5573236693830774  1.0000
  H   H476      1.0  0.6234887950567387  0.29634132194680524  0.5435264304590209  1.0000
  H   H477      1.0  0.6558678465570501  0.3166409228569583  0.5690447140942536  1.0000
  H   H478      1.0  0.7027955621749622  0.3212312830207129  0.5234903400013678  1.0000
  H   H479      1.0  0.7032971584950211  0.3066355780191243  0.4637278684863087  1.0000
  H   H480      1.0  0.7008761819208644  0.2742390425526383  0.5103664540945677  1.0000
  N   N25       1.0  0.32176906595001226  0.5065194715356496  0.11590888311850733  1.0000
  C   C385      1.0  0.3313765250846751  0.4698662969865239  0.12909321799105  1.0000
  C   C386      1.0  0.33859500758392336  0.5333584727965297  0.14354860067895436  1.0000
  C   C387      1.0  0.2896461534341456  0.5102955656859421  0.12536577658176284  1.0000
  C   C388      1.0  0.3274303794362249  0.512624903950544  0.06576627065967133  1.0000
  H   H481      1.0  0.3273563891004287  0.46451772125729923  0.1667527423792481  1.0000
  H   H482      1.0  0.35553259556157973  0.466051243541549  0.12259576760804225  1.0000
  H   H483      1.0  0.31904217788044764  0.4488809222540375  0.10909043057462786  1.0000
  H   H484      1.0  0.3629114852148107  0.531557663129451  0.13693663481069707  1.0000
  H   H485      1.0  0.3318743203367799  0.5613606420159339  0.1345088477734684  1.0000
  H   H486      1.0  0.33496284553614397  0.5295078070595688  0.1816163365542649  1.0000
  H   H487      1.0  0.2815550959793544  0.5375007426700934  0.11525945338408161  1.0000
  H   H488      1.0  0.28474775051265366  0.5064569531106697  0.16306822374885233  1.0000
  H   H489      1.0  0.27626227615198384  0.4899923187818449  0.10581659208240524  1.0000
  H   H490      1.0  0.32054460555354813  0.5401691246527781  0.054868119792261805  1.0000
  H   H491      1.0  0.31513723973144114  0.4929245171955422  0.04360630758150341  1.0000
  H   H492      1.0  0.35151384670980806  0.5103042405540726  0.05740683284766224  1.0000
  N   N26       1.0  0.1382200714407031  0.8304902880164877  0.6502699254586796  1.0000
  C   C389      1.0  0.12519966240093838  0.8152240061095707  0.6072710763415017  1.0000
  C   C390      1.0  0.17093483055412434  0.8279885233082864  0.647997873643374  1.0000
  C   C391      1.0  0.12732791266604465  0.8100432101395258  0.6911802140811116  1.0000
  C   C392      1.0  0.12960662955272426  0.8687195392262236  0.6546113602375548  1.0000
  H   H493      1.0  0.10050095019924334  0.816607364830294  0.6076322650656615  1.0000
  H   H494      1.0  0.13153866720645088  0.7864778217711994  0.6029007062002645  1.0000
  H   H495      1.0  0.13309225064449168  0.8301913573361793  0.5758248692891956  1.0000
  H   H496      1.0  0.17843116842537873  0.7994554667022284  0.6473655619769587  1.0000
  H   H497      1.0  0.17983914048744754  0.8413196980759455  0.6162044904950627  1.0000
  H   H498      1.0  0.18155934927677628  0.8413271202082147  0.6784039552698025  1.0000
  H   H499      1.0  0.13448421866743077  0.7813376688115352  0.6900375576303672  1.0000
  H   H500      1.0  0.10263251627962675  0.8102773853955272  0.6933123819547048  1.0000
  H   H501      1.0  0.13610858774645468  0.8216510195303532  0.7241946436756787  1.0000
  H   H502      1.0  0.13744395105996507  0.8848960862430603  0.6242339566968989  1.0000
  H   H503      1.0  0.1394889080744687  0.8811995724592994  0.6863780950291436  1.0000
  H   H504      1.0  0.1050521803637136  0.8716982832967815  0.6566507894422212  1.0000
  N   N27       1.0  0.11653168548194727  0.3424382509040038  0.6313004333351002  1.0000
  C   C393      1.0  0.09816929802287833  0.374674512277796  0.6394015716918945  1.0000
  C   C394      1.0  0.11956247229318152  0.3362612796569292  0.5806684951234761  1.0000
  C   C395      1.0  0.10215952407610036  0.310710659322408  0.6530184011375628  1.0000
  C   C396      1.0  0.14630437954124262  0.3479435898016615  0.6521240148670945  1.0000
  H   H505      1.0  0.108646838940875  0.39920073364109904  0.623940859755117  1.0000
  H   H506      1.0  0.0951928420844829  0.3797415549486396  0.6772953061536987  1.0000
  H   H507      1.0  0.07568644970932581  0.37163796178864206  0.6235929129762824  1.0000
  H   H508      1.0  0.13029431310081327  0.3596681449473052  0.5629994183653111  1.0000
  H   H509      1.0  0.13359135219185406  0.3123282589175494  0.5734578578657937  1.0000
  H   H510      1.0  0.09758489640085274  0.33164029455024974  0.5638268655262625  1.0000
  H   H511      1.0  0.10053698610635392  0.313577997976355  0.6915588806898256  1.0000
  H   H512      1.0  0.11498379333390765  0.2858962977561881  0.645629414386676  1.0000
  H   H513      1.0  0.07918638109487203  0.3063632243214205  0.6395368388273436  1.0000
  H   H514      1.0  0.16037753837261307  0.3236854081138681  0.6482212655897375  1.0000
  H   H515      1.0  0.14495940829725054  0.35396793968353607  0.6899903466561702  1.0000
  H   H516      1.0  0.15832967306523726  0.3706400620161492  0.6349966997048633  1.0000
  N   N28       1.0  0.6205741460717227  0.5612952723699254  0.14662713726077564  1.0000
  C   C397      1.0  0.6269247163066293  0.5839898787605612  0.18771288819525858  1.0000
  C   C398      1.0  0.6048646447198077  0.528155198116262  0.16160811323057175  1.0000
  C   C399      1.0  0.6488454911814725  0.5516773213863091  0.12379615290595436  1.0000
  C   C400      1.0  0.6017265427525361  0.5813010795006116  0.11333004374078604  1.0000
  H   H517      1.0  0.6394596287369203  0.6087146893133082  0.17790992651139323  1.0000
  H   H518      1.0  0.6405241085769114  0.5693133003499741  0.21400007295743248  1.0000
  H   H519      1.0  0.606143223636914  0.5927933032895638  0.20514119580743093  1.0000
  H   H520      1.0  0.5990232424967734  0.5107694486743449  0.13139173226168843  1.0000
  H   H521      1.0  0.6188601602044592  0.5118545917780115  0.18569651541870938  1.0000
  H   H522      1.0  0.5839436519278227  0.5345694181246976  0.18043230300043026  1.0000
  H   H523      1.0  0.6449143236066932  0.5347251584527989  0.09243392268112638  1.0000
  H   H524      1.0  0.6636339248849635  0.5364984749621704  0.14792582668232593  1.0000
  H   H525      1.0  0.6612583087545377  0.5762057153616089  0.11222496027089646  1.0000
  H   H526      1.0  0.5961876663619466  0.5646358287863648  0.08234243627477134  1.0000
  H   H527      1.0  0.6131648558772939  0.6059391649897521  0.10030229855823601  1.0000
  H   H528      1.0  0.5804374656228879  0.589800985750296  0.12941957773265456  1.0000
  N   N29       1.0  0.9867704753069667  0.6894781084757178  0.9424243611349996  1.0000
  C   C401      1.0  0.0030379678774167724  0.6994841940393055  0.8995649017873933  1.0000
  C   C402      1.0  0.006761298287685904  0.6694273981258861  0.97402052930671  1.0000
  C   C403      1.0  0.960849243878084  0.6666149802994347  0.9302298246135335  1.0000
  C   C404      1.0  0.976422277527622  0.7224527514404059  0.9659103211772918  1.0000
  H   H529      1.0  0.9883929142822471  0.7139649532980694  0.8744933551898607  1.0000
  H   H530      1.0  0.011705670187961493  0.6752863623450649  0.8813827686046203  1.0000
  H   H531      1.0  0.02242455858722814  0.717363535447917  0.907213748829645  1.0000
  H   H532      1.0  0.014578810129062437  0.6440721062855066  0.9576505006417259  1.0000
  H   H533      1.0  0.02684684419595383  0.6856977736066048  0.9830671356913272  1.0000
  H   H534      1.0  0.9953784807553526  0.6622335190464501  0.007237817166991123  1.0000
  H   H535      1.0  0.9448676134026485  0.6813712948586131  0.907556863213252  1.0000
  H   H536      1.0  0.9485250768818166  0.6576617769809392  0.9618660975369067  1.0000
  H   H537      1.0  0.9676758517076409  0.6421523912812764  0.9107139158228226  1.0000
  H   H538      1.0  0.9641175388477722  0.7158881567627491  0.9984250068209662  1.0000
  H   H539      1.0  0.9612317094939129  0.7382525321238473  0.9431430177668101  1.0000
  H   H540      1.0  0.9953595240153869  0.7403080234110176  0.9757629963413248  1.0000
  N   N30       1.0  0.5328174637447901  0.9478202126560201  0.5843591665748907  1.0000
  C   C405      1.0  0.556233199966728  0.9333215219689206  0.6152911267216644  1.0000
  C   C406      1.0  0.5460404775033881  0.9745380599687856  0.5521043290632082  1.0000
  C   C407      1.0  0.5096742865185646  0.9653552504395926  0.6126827828923487  1.0000
  C   C408      1.0  0.5193506279086545  0.9181004488081353  0.5572174115156382  1.0000
  H   H541      1.0  0.5471503818917516  0.913040939661391  0.6401912991871057  1.0000
  H   H542      1.0  0.5669792830116014  0.955039454313689  0.6361855666228018  1.0000
  H   H543      1.0  0.5740953462604478  0.9199594728245682  0.5949966087408649  1.0000
  H   H544      1.0  0.529148660746298  0.985704574795828  0.5276890798794603  1.0000
  H   H545      1.0  0.5563473803646701  0.9975510284136305  0.5711863555094435  1.0000
  H   H546      1.0  0.5638477209630465  0.9623066469775248  0.5306525916419423  1.0000
  H   H547      1.0  0.49917993103671626  0.9459617584319626  0.637433266406978  1.0000
  H   H548      1.0  0.4916737366684442  0.9765970558954156  0.5903221040723706  1.0000
  H   H549      1.0  0.5191483339877608  0.9879617194727033  0.6335517459546023  1.0000
  H   H550      1.0  0.5016792393337601  0.928059512386152  0.5332069018496713  1.0000
  H   H551      1.0  0.5090828220257699  0.8973355076034707  0.580237907720168  1.0000
  H   H552      1.0  0.5362198282802588  0.9043572451779296  0.5352887425440274  1.0000
  N   N31       1.0  0.25327831785745225  0.019436742008722252  0.7951004795324066  1.0000
  C   C409      1.0  0.2368479104565822  0.985113346496892  0.7890160953132135  1.0000
  C   C410      1.0  0.2606195948578686  0.024611039148605407  0.8448689639248839  1.0000
  C   C411      1.0  0.23464038702399562  0.049623787163227906  0.7786576838119668  1.0000
  C   C412      1.0  0.2810382933353348  0.018379882418483318  0.7677048099329714  1.0000
  H   H553      1.0  0.23074683810795318  0.9806083160862995  0.7518220724172485  1.0000
  H   H554      1.0  0.21586289127826652  0.9846267071974311  0.8094366984035604  1.0000
  H   H555      1.0  0.25034625861267173  0.9615760784665511  0.8003226652254832  1.0000
  H   H556      1.0  0.24028339310444025  0.025085461471115567  0.8668242583921958  1.0000
  H   H557      1.0  0.27516550012979674  0.0027414732989350377  0.8583400947113407  1.0000
  H   H558      1.0  0.2727058579877158  0.05049372231311278  0.8506462838697808  1.0000
  H   H559      1.0  0.24658630461472622  0.07589862171517048  0.7814998939801081  1.0000
  H   H560      1.0  0.21372994675412665  0.05169404224629637  0.7990746189844886  1.0000
  H   H561      1.0  0.2281785437584188  0.04616283675216404  0.74145421654037  1.0000
  H   H562      1.0  0.2939365662096179  0.043951776013441135  0.7707315251531746  1.0000
  H   H563      1.0  0.27627272915256323  0.014204661902842197  0.7301255408863824  1.0000
  H   H564      1.0  0.29573182472186893  0.9960423692071261  0.7792361483441297  1.0000
  N   N32       1.0  0.44488616128280284  0.23688305376030205  0.3035393660027439  1.0000
  C   C413      1.0  0.46588946950335675  0.2253028352739587  0.26707236891868313  1.0000
  C   C414      1.0  0.4540187182208809  0.22131803381628642  0.34879228608659885  1.0000
  C   C415      1.0  0.41459331883025924  0.22413028401542848  0.29175286782091314  1.0000
  C   C416      1.0  0.4450113823634715  0.27666420764985467  0.3064700529480908  1.0000
  H   H565      1.0  0.4889383112350601  0.23481147309798073  0.2745538961724374  1.0000
  H   H566      1.0  0.45951276855920087  0.2362339055654196  0.2323811651517924  1.0000
  H   H567      1.0  0.4664956460347155  0.19535885646395718  0.26413732206969076  1.0000
  H   H568      1.0  0.4385831668967689  0.22926734156941966  0.3771655193250423  1.0000
  H   H569      1.0  0.4542865741056541  0.1912660103218839  0.3474479400886903  1.0000
  H   H570      1.0  0.4767921369327834  0.23041172764757029  0.3588082100566814  1.0000
  H   H571      1.0  0.3980232903869029  0.2330294434488666  0.3180019894662083  1.0000
  H   H572      1.0  0.413544580345305  0.19417951802289424  0.28996226323526186  1.0000
  H   H573      1.0  0.40721131942855454  0.2349187327949554  0.25743740156339845  1.0000
  H   H574      1.0  0.4290245868096917  0.2864140905949368  0.3331127385102315  1.0000
  H   H575      1.0  0.4384697163896703  0.2891313817524457  0.272636040442932  1.0000
  H   H576      1.0  0.46743585371279434  0.28732884069171455  0.31578085289948077  1.0000
  N   N33       1.0  0.36125045431096675  0.058537537625488634  0.25414380252101587  1.0000
  C   C417      1.0  0.33952412463869336  0.04397910618901246  0.2879701875341665  1.0000
  C   C418      1.0  0.3589137465516892  0.0981870134297147  0.25235577985355323  1.0000
  C   C419      1.0  0.3548386046180926  0.04369792546422513  0.20739083507432937  1.0000
  C   C420      1.0  0.391645610077403  0.04847965575396129  0.26883327995990636  1.0000
  H   H577      1.0  0.3409018626481071  0.01412689441830306  0.29035606496125865  1.0000
  H   H578      1.0  0.3162871272701181  0.05047556087812821  0.2775234031071031  1.0000
  H   H579      1.0  0.3435250343679512  0.05473148220239321  0.32358805607023067  1.0000
  H   H580      1.0  0.363799878312406  0.11047587523560898  0.2868453865419639  1.0000
  H   H581      1.0  0.37480724843392943  0.10979143856104434  0.2267003521330323  1.0000
  H   H582      1.0  0.33626129701065166  0.10669588059738544  0.24123834115022447  1.0000
  H   H583      1.0  0.3714754257516344  0.05288694880086897  0.1812704513953866  1.0000
  H   H584      1.0  0.3325121242251646  0.05209995529880529  0.19451923417786088  1.0000
  H   H585      1.0  0.3547469246198411  0.013823323643717966  0.20747833207063054  1.0000
  H   H586      1.0  0.408729614763787  0.059403345578120215  0.244589380216284  1.0000
  H   H587      1.0  0.3942957918445392  0.01877178559895265  0.27036448669840013  1.0000
  H   H588      1.0  0.39706145962100065  0.058947091921840666  0.3042166409058906  1.0000
  N   N34       1.0  0.7081380842564342  0.007493845713915315  0.7488015184011971  1.0000
  C   C421      1.0  0.7314572171230933  0.033397447104325906  0.7633786738749648  1.0000
  C   C422      1.0  0.7137533266114902  0.9720431600525409  0.770618977816369  1.0000
  C   C423      1.0  0.7086079708516138  0.003749521578664039  0.6975769035338644  1.0000
  C   C424      1.0  0.6787005644720656  0.0207434962158346  0.763555174106057  1.0000
  H   H589      1.0  0.727869628144612  0.06043463044199715  0.7474397495840498  1.0000
  H   H590      1.0  0.7540360417337946  0.02418489473231178  0.7530727196223436  1.0000
  H   H591      1.0  0.7314705993058864  0.03720388366110616  0.8018385073882408  1.0000
  H   H592      1.0  0.696532395912047  0.9518590380149726  0.7602572402456177  1.0000
  H   H593      1.0  0.7357669490704731  0.9611769146283814  0.7602100538107738  1.0000
  H   H594      1.0  0.713550971270145  0.9738285360922353  0.8092940905386075  1.0000
  H   H595      1.0  0.6910874901425402  0.9845722003440147  0.6854895253408679  1.0000
  H   H596      1.0  0.7304689367573478  0.9935012985508311  0.6853586976539277  1.0000
  H   H597      1.0  0.7045259003265816  0.03003416006347348  0.6800069557565618  1.0000
  H   H598      1.0  0.6776923284873353  0.024518429835534983  0.802002303350693  1.0000
  H   H599      1.0  0.6605940527263405  0.001592978858627525  0.7536657589753748  1.0000
  H   H600      1.0  0.6735866263059173  0.047366126021893606  0.7475102604444569  1.0000
  N   N35       1.0  0.23136236039075875  0.9391649593419755  0.3995332230875328  1.0000
  C   C425      1.0  0.2321220084230004  0.9705585455203699  0.36772726987754834  1.0000
  C   C426      1.0  0.23396166434453103  0.9057025336961682  0.37211056381667795  1.0000
  C   C427      1.0  0.20294270442037843  0.9387155396052419  0.4252749022404456  1.0000
  C   C428      1.0  0.256321161884545  0.9416088105454895  0.4330423273208561  1.0000
  H   H601      1.0  0.23053227879023241  0.9963392358775649  0.3871916317814952  1.0000
  H   H602      1.0  0.21323376854439335  0.9697187200540742  0.3425869390792557  1.0000
  H   H603      1.0  0.253005978853779  0.9713277939324815  0.34693927968050475  1.0000
  H   H604      1.0  0.254790986992311  0.9055404023500973  0.35120913194185077  1.0000
  H   H605      1.0  0.23445261200164463  0.8814478890654756  0.39504230512177013  1.0000
  H   H606      1.0  0.2150334947222628  0.9025198115489553  0.34736166374966077  1.0000
  H   H607      1.0  0.20033633187563946  0.9633765426525261  0.44683085302161796  1.0000
  H   H608      1.0  0.20151512942082495  0.9151106078865665  0.44927587066922753  1.0000
  H   H609      1.0  0.18349422491962816  0.9372495014528954  0.40122604825670477  1.0000
  H   H610      1.0  0.255695024211517  0.9671181491613451  0.4532696204452895  1.0000
  H   H611      1.0  0.2782225558609217  0.9402532885278525  0.41520525236111044  1.0000
  H   H612      1.0  0.25557062133951297  0.9191164896206754  0.4587473254799079  1.0000
  N   N36       1.0  0.7972794018147572  0.5583074907936975  0.6828381776066171  1.0000
  C   C429      1.0  0.799420484750409  0.5954076292008394  0.7011747579419257  1.0000
  C   C430      1.0  0.8274727049031075  0.5447434865804569  0.6731798119451997  1.0000
  C   C431      1.0  0.7795962363527299  0.558197916699214  0.6393645729561582  1.0000
  C   C432      1.0  0.7826918211706512  0.5348166944626566  0.7177352164391856  1.0000
  H   H613      1.0  0.7771297456741993  0.6066619146633795  0.7092503204999423  1.0000
  H   H614      1.0  0.8105032858295789  0.6139725297625537  0.6760376565999267  1.0000
  H   H615      1.0  0.8126130191515354  0.5962574913672144  0.733997136908819  1.0000
  H   H616      1.0  0.8268539673087175  0.5164574170602789  0.6603688962703407  1.0000
  H   H617      1.0  0.8390935407459655  0.5614847634455572  0.6465715082706072  1.0000
  H   H618      1.0  0.8415895295794754  0.5450753802693595  0.7051137205702304  1.0000
  H   H619      1.0  0.7778792934472405  0.5305590689448242  0.6244258148433857  1.0000
  H   H620      1.0  0.7898580818494356  0.5758870945739692  0.612361530659884  1.0000
  H   H621      1.0  0.7565896340202205  0.567966742571397  0.6455078425029697  1.0000
  H   H622      1.0  0.7962233881213867  0.5329104659012893  0.7501378332803857  1.0000
  H   H623      1.0  0.7796971231945294  0.5069112280629611  0.7044222386631485  1.0000
  H   H624      1.0  0.7604116465673053  0.5450918705466717  0.7276304068279664  1.0000
  N   N37       1.0  0.7813274132172906  0.6111574053287759  0.9756633930438178  1.0000
  C   C433      1.0  0.7925251992143659  0.6163571680751945  0.023667757417966895  1.0000
  C   C434      1.0  0.7871513345924772  0.5737778247936085  0.9607636573489656  1.0000
  C   C435      1.0  0.7968004572595135  0.6364762191393081  0.9439507315358729  1.0000
  C   C436      1.0  0.7489640432024512  0.6179840045395816  0.9742245017643085  1.0000
  H   H625      1.0  0.788554348998843  0.6443047144382895  0.03603888352745588  1.0000
  H   H626      1.0  0.8169371501292009  0.6114300436619082  0.025900737740709223  1.0000
  H   H627      1.0  0.781407164969686  0.5976313679773998  0.04858247698430862  1.0000
  H   H628      1.0  0.7792536946459819  0.569018420806505  0.924493299257892  1.0000
  H   H629      1.0  0.8113998596779992  0.56768109390986  0.961806238538522  1.0000
  H   H630      1.0  0.7756929378309089  0.5538853105180432  0.9836995993124441  1.0000
  H   H631      1.0  0.7890822302690583  0.6331832808216814  0.9073398396869851  1.0000
  H   H632      1.0  0.8212646369840952  0.6319744362888463  0.9443943161698822  1.0000
  H   H633      1.0  0.7929452585938952  0.664964284500304  0.954056082561319  1.0000
  H   H634      1.0  0.7397938724956186  0.6142193431120984  0.9384847816836084  1.0000
  H   H635      1.0  0.7436666643097422  0.6459377016633449  0.9853359816487828  1.0000
  H   H636      1.0  0.7365363797045602  0.5994030649786773  0.9978231619958882  1.0000
  N   N38       1.0  0.853977826062965  0.2527005255361849  0.5917463295371307  1.0000
  C   C437      1.0  0.857064294602754  0.29236777650670215  0.5911724218510724  1.0000
  C   C438      1.0  0.8557430760549876  0.23958663164170202  0.6403396776765617  1.0000
  C   C439      1.0  0.8781576380766025  0.23667060514910396  0.5639927385825738  1.0000
  C   C440      1.0  0.8249823849830915  0.24211956763129697  0.571425440836176  1.0000
  H   H637      1.0  0.8782817588322474  0.30119339914617044  0.6077218346557552  1.0000
  H   H638      1.0  0.838436847508205  0.3055570617537365  0.6098546407732889  1.0000
  H   H639      1.0  0.8572014154499173  0.30300083510535336  0.5549397199425012  1.0000
  H   H640      1.0  0.8375315146816389  0.2506106607038299  0.6621479229842033  1.0000
  H   H641      1.0  0.8539779918290941  0.20976067361353928  0.6419260916919347  1.0000
  H   H642      1.0  0.8773808291632216  0.24695436742267554  0.6567900465037411  1.0000
  H   H643      1.0  0.8773727472096529  0.2459649277947239  0.5270246000836725  1.0000
  H   H644      1.0  0.8766767282778449  0.2066980282032398  0.5639115336269039  1.0000
  H   H645      1.0  0.9004313258324954  0.24391259338042662  0.5783007116100818  1.0000
  H   H646      1.0  0.8218334644528054  0.21233454813993471  0.5722494076192524  1.0000
  H   H647      1.0  0.8232326306780009  0.25083091484508346  0.5343595005944435  1.0000
  H   H648      1.0  0.8061359013827639  0.2542985435001492  0.5907369882244857  1.0000
  N   N39       1.0  0.3190467790713215  0.5491029945855407  0.7199615717064738  1.0000
  C   C441      1.0  0.3070835437934656  0.5470564419667362  0.6719621107329502  1.0000
  C   C442      1.0  0.2976910333941912  0.5681896939543741  0.7500374908037608  1.0000
  C   C443      1.0  0.34768207009051305  0.5688729147083983  0.7198854618757247  1.0000
  C   C444      1.0  0.32370177368815417  0.5122345070542229  0.7380629482022696  1.0000
  H   H649      1.0  0.3223886268707408  0.5323635431400343  0.6483096390972869  1.0000
  H   H650      1.0  0.30339572793789105  0.5743297432758129  0.6569305089934271  1.0000
  H   H651      1.0  0.28532946525055913  0.5324586713789853  0.671053453103858  1.0000
  H   H652      1.0  0.30525352148849755  0.5686186777378341  0.7870605695227653  1.0000
  H   H653      1.0  0.29476423532195056  0.5966851002870701  0.7389388440409271  1.0000
  H   H654      1.0  0.2754028292993909  0.5550585897708636  0.7492043354963284  1.0000
  H   H655      1.0  0.34502539523499476  0.5968195684939092  0.7064244243175216  1.0000
  H   H656      1.0  0.36447147522541495  0.5551667840900654  0.6978490885123221  1.0000
  H   H657      1.0  0.3570574332742233  0.570988982818708  0.7557432455548666  1.0000
  H   H658      1.0  0.33095682128080267  0.5124184136907307  0.7752287310832611  1.0000
  H   H659      1.0  0.3407987291384787  0.49761439332793284  0.7176943604755978  1.0000
  H   H660      1.0  0.30290315728766226  0.4960282558183172  0.7360441902685382  1.0000
  N   N40       1.0  0.44858457621828074  0.061554734970364455  0.9393880011380381  1.0000
  C   C445      1.0  0.4701282140411422  0.03849204282185581  0.9642407623026363  1.0000
  C   C446      1.0  0.44820750836922135  0.09763961531575416  0.9610258951588188  1.0000
  C   C447      1.0  0.41858218854781154  0.04516199012369215  0.94221482527604  1.0000
  C   C448      1.0  0.45750122696054046  0.0649588202992899  0.8900585378903184  1.0000
  H   H661      1.0  0.49286166805794396  0.05068578833168047  0.9638573720467027  1.0000
  H   H662      1.0  0.47160276554308805  0.011316633890555927  0.9482659256480549  1.0000
  H   H663      1.0  0.4638579068467937  0.03485961169560792  0.0014727107210767976  1.0000
  H   H664      1.0  0.43214759219252796  0.11578121440593891  0.943237932615922  1.0000
  H   H665      1.0  0.44192816989023714  0.09603722843098672  0.9984487149250123  1.0000
  H   H666      1.0  0.4705301272173702  0.11082210457281083  0.959438156720063  1.0000
  H   H667      1.0  0.4019490517544964  0.06135182115778215  0.9226476410476923  1.0000
  H   H668      1.0  0.4107733934419345  0.043223746144277486  0.9789490216640057  1.0000
  H   H669      1.0  0.41817609269958  0.0175430601430715  0.927277516500234  1.0000
  H   H670      1.0  0.44186208786812187  0.08239275894946507  0.8702985049981  1.0000
  H   H671      1.0  0.4579558217816225  0.03833614274967445  0.8724203341076385  1.0000
  H   H672      1.0  0.48012100249284523  0.07711778294281624  0.8867868602271048  1.0000
  N   N41       1.0  0.486080415970794  0.43907919264444834  0.38841867417063486  1.0000
  C   C449      1.0  0.45741578059604876  0.44082910322921004  0.41339253905059625  1.0000
  C   C450      1.0  0.48935683756788484  0.47090862080166784  0.35775562483706225  1.0000
  C   C451      1.0  0.48685845702764113  0.406031931131727  0.35986263331386  1.0000
  C   C452      1.0  0.5107789600449113  0.438531662982469  0.42248657784908844  1.0000
  H   H673      1.0  0.45411799174250994  0.41713464103417913  0.43678455901584085  1.0000
  H   H674      1.0  0.43828103479802594  0.44113106530678  0.3887708154660045  1.0000
  H   H675      1.0  0.4559156972729146  0.4654798978733529  0.4351895227161623  1.0000
  H   H676      1.0  0.4887563429091213  0.4965146195177331  0.37780903102769725  1.0000
  H   H677      1.0  0.5109120799353318  0.4703074622734122  0.3389070701022513  1.0000
  H   H678      1.0  0.4713635178656313  0.47202147004978  0.3310529871271906  1.0000
  H   H679      1.0  0.5080158504645403  0.4040686304809058  0.33998025728314846  1.0000
  H   H680      1.0  0.46841245135141446  0.40562980314039315  0.33396422977624685  1.0000
  H   H681      1.0  0.484784857411065  0.3813986290868908  0.38181595348941116  1.0000
  H   H682      1.0  0.5327786086034006  0.4374740116591448  0.4048195780270108  1.0000
  H   H683      1.0  0.5093846841656392  0.4146075379452661  0.44591505192208064  1.0000
  H   H684      1.0  0.510875494757193  0.46297507156466894  0.44482275607075106  1.0000
  N   N42       1.0  0.08645109526828487  0.25907715022589106  0.24619913167153398  1.0000
  C   C453      1.0  0.05760280899636916  0.2712548998655886  0.26482456377519364  1.0000
  C   C454      1.0  0.08332929328216032  0.2513263839926936  0.1959175837103627  1.0000
  C   C455      1.0  0.0958410428552332  0.22612707909701396  0.27118990797678055  1.0000
  C   C456      1.0  0.1090400282855124  0.2877401106213125  0.25293852258152455  1.0000
  H   H685      1.0  0.04004349427958798  0.2501998343411706  0.2609590247461247  1.0000
  H   H686      1.0  0.04966675644165064  0.2958494064397745  0.2463925064572222  1.0000
  H   H687      1.0  0.059279669934946044  0.27809667491264217  0.30247539871115314  1.0000
  H   H688      1.0  0.06502741002136814  0.23172056033844032  0.18911464566555378  1.0000
  H   H689      1.0  0.07796691463847294  0.2761230884592704  0.17576776154484153  1.0000
  H   H690      1.0  0.10410474309853823  0.23995942459840794  0.18116429076281615  1.0000
  H   H691      1.0  0.07904723070363207  0.20414254305992943  0.2679022827720978  1.0000
  H   H692      1.0  0.09902048892965087  0.23129757600840603  0.3090490469974214  1.0000
  H   H693      1.0  0.11715700053141664  0.21553082263997078  0.2572993927212186  1.0000
  H   H694      1.0  0.10245262632968233  0.31319587976004537  0.23514649301725385  1.0000
  H   H695      1.0  0.13109042281034844  0.27969605021846977  0.23902923816670243  1.0000
  H   H696      1.0  0.11193949690080118  0.2943897827195951  0.2905121138521517  1.0000
  N   N43       1.0  0.11195857390999994  0.1690846550948535  0.9202148747509483  1.0000
  C   C457      1.0  0.1237933721515655  0.13216166363946735  0.9163427330562887  1.0000
  C   C458      1.0  0.09839388304693322  0.17367287382959495  0.9666531048226417  1.0000
  C   C459      1.0  0.08921741440514823  0.17497228296511436  0.8837389314964166  1.0000
  C   C460      1.0  0.1363800735903609  0.1955440102312549  0.9141195981055527  1.0000
  H   H697      1.0  0.1340676371111284  0.12761535650669398  0.8816599475716239  1.0000
  H   H698      1.0  0.1059104684843294  0.11157589595568518  0.9209180868064093  1.0000
  H   H699      1.0  0.1411708504284513  0.12693337903323676  0.9431396406483487  1.0000
  H   H700      1.0  0.08947253733880917  0.2013065816245354  0.9709597217687039  1.0000
  H   H701      1.0  0.07964842158505661  0.15438322718652553  0.9722693442705578  1.0000
  H   H702      1.0  0.11481008289483917  0.16919802150558572  0.9951136468725624  1.0000
  H   H703      1.0  0.07977337432109022  0.2025629193869143  0.8859223177501279  1.0000
  H   H704      1.0  0.07047048736504957  0.15544079018132906  0.8870684941095797  1.0000
  H   H705      1.0  0.09884182931877909  0.17195571240199858  0.8482252983841874  1.0000
  H   H706      1.0  0.12817489792456452  0.22368164144273184  0.9173629033232918  1.0000
  H   H707      1.0  0.14683198350877152  0.19310551615208293  0.8791215129749503  1.0000
  H   H708      1.0  0.15416787629954953  0.1917791543792191  0.9406396521867745  1.0000
  N   N44       1.0  0.1512022925521493  0.5352774352739635  0.8033051597759497  1.0000
  C   C461      1.0  0.15307343525742767  0.5431768102201123  0.7528641412438006  1.0000
  C   C462      1.0  0.17673397952146747  0.5520960414394103  0.8276204149623477  1.0000
  C   C463      1.0  0.15194040071558218  0.49587049892233054  0.8107134671087053  1.0000
  C   C464      1.0  0.12315752316016187  0.5499024504203127  0.8220239620197113  1.0000
  H   H709      1.0  0.1341716230363959  0.5308232742546471  0.7334176876342422  1.0000
  H   H710      1.0  0.17406850700780058  0.5327003745276307  0.737658538082148  1.0000
  H   H711      1.0  0.15248974913097277  0.5726594758320277  0.7459121855392525  1.0000
  H   H712      1.0  0.19825706374268937  0.5413876705764815  0.8149234985164903  1.0000
  H   H713      1.0  0.1772832267888371  0.5816794044534314  0.8221491867612852  1.0000
  H   H714      1.0  0.17583501431750426  0.5473945789883198  0.86591756041478  1.0000
  H   H715      1.0  0.13298232755495532  0.4822119359707288  0.7929530931984425  1.0000
  H   H716      1.0  0.15089744670141308  0.48895912526741975  0.848429831305944  1.0000
  H   H717      1.0  0.1728546391951003  0.4841044161691705  0.7967706214127149  1.0000
  H   H718      1.0  0.12195005013126466  0.5796063438246511  0.8171966735436559  1.0000
  H   H719      1.0  0.1209654111710678  0.5444980394563959  0.8600099809076145  1.0000
  H   H720      1.0  0.10334490707095637  0.5382594676201478  0.8040660032561999  1.0000
  N   N45       1.0  0.7758327923460556  0.767536967002687  0.7939955407559227  1.0000
  C   C465      1.0  0.7714060102072168  0.7434990182444622  0.7535547585559219  1.0000
  C   C466      1.0  0.7900796434926268  0.747165047743728  0.8322270419733742  1.0000
  C   C467      1.0  0.746744144509484  0.7811045634469912  0.8098110263276806  1.0000
  C   C468      1.0  0.7950282106638803  0.7983114754561051  0.7803862667232327  1.0000
  H   H721      1.0  0.7613799475990959  0.7581367330114381  0.723533983450971  1.0000
  H   H722      1.0  0.7560944437442239  0.7207091902865904  0.7621300488966262  1.0000
  H   H723      1.0  0.7927392465432214  0.7316340679436081  0.7417281631400569  1.0000
  H   H724      1.0  0.8118575357659685  0.7359098043782666  0.8211998200664798  1.0000
  H   H725      1.0  0.7940806867936334  0.7644675036748044  0.8632078559625624  1.0000
  H   H726      1.0  0.775949976749868  0.7239314696165298  0.8433252913561471  1.0000
  H   H727      1.0  0.7490802473308374  0.7991041486605416  0.8405156569216143  1.0000
  H   H728      1.0  0.7313593790043498  0.7586198613547382  0.819357167528426  1.0000
  H   H729      1.0  0.7355673070708252  0.7967921255456629  0.7818386793280488  1.0000
  H   H730      1.0  0.7986455686219909  0.8172461115061757  0.8099044073076492  1.0000
  H   H731      1.0  0.7848512120076533  0.8143049414554623  0.751631034285295  1.0000
  H   H732      1.0  0.8171891340649761  0.7891391262844065  0.7682215790479245  1.0000
  N   N46       1.0  0.7818835697697925  0.8991572078729538  0.19396867417143704  1.0000
  C   C469      1.0  0.7712782654104565  0.9078492735477764  0.14651096567138944  1.0000
  C   C470      1.0  0.7561417423983712  0.8922445658351881  0.22475766456447666  1.0000
  C   C471      1.0  0.7993297215538837  0.9298450939169589  0.21232632197485968  1.0000
  C   C472      1.0  0.8008866505043631  0.8668159319725851  0.19249357071628692  1.0000
  H   H733      1.0  0.7902282485607937  0.9133957710901661  0.12256036184786478  1.0000
  H   H734      1.0  0.7568836644100644  0.9321654543620342  0.14656157386414925  1.0000
  H   H735      1.0  0.7580451648323806  0.8852285636320787  0.13149681247687495  1.0000
  H   H736      1.0  0.7634738985598722  0.8853351287638982  0.26075632726267495  1.0000
  H   H737      1.0  0.7417279283888609  0.9164526437698471  0.2276246863970417  1.0000
  H   H738      1.0  0.7421206163686146  0.8695537308212606  0.21186692124498863  1.0000
  H   H739      1.0  0.8194764701599655  0.9353889659847142  0.1909078427683919  1.0000
  H   H740      1.0  0.8070293302981564  0.924245158508398  0.24831565598067606  1.0000
  H   H741      1.0  0.7858735370363866  0.9549133681403863  0.2138774096909728  1.0000
  H   H742      1.0  0.7885918269221995  0.843023251018644  0.17869166547912352  1.0000
  H   H743      1.0  0.8093568313827598  0.85965676644656  0.22780915045577288  1.0000
  H   H744      1.0  0.8208289524229482  0.8712889474134158  0.17015384341181505  1.0000
  N   N47       1.0  0.5816637268498671  0.799446358965492  0.3392021738189189  1.0000
  C   C473      1.0  0.5939464910062225  0.8067948718760155  0.3860679662409213  1.0000
  C   C474      1.0  0.5505111805503872  0.8118499187065626  0.3369205480272182  1.0000
  C   C475      1.0  0.5826202173916726  0.7603241428188585  0.3298861225938926  1.0000
  C   C476      1.0  0.5996065806118351  0.8187792812050482  0.30388492572999487  1.0000
  H   H745      1.0  0.6176527460448283  0.7984455295561061  0.388721274073468  1.0000
  H   H746      1.0  0.5812462209868902  0.7922658822042131  0.4136151287677329  1.0000
  H   H747      1.0  0.5933181117208848  0.8360877298895948  0.39429925273211  1.0000
  H   H748      1.0  0.5405410756492638  0.8067614268496356  0.30197287781123766  1.0000
  H   H749      1.0  0.5362964811702019  0.7974312311015496  0.36278309711057505  1.0000
  H   H750      1.0  0.5488118902983259  0.8411759756030442  0.3443071621540857  1.0000
  H   H751      1.0  0.6057945536067432  0.7499133197808672  0.33114250646201054  1.0000
  H   H752      1.0  0.5736318143989964  0.7538810569181095  0.29467348764115153  1.0000
  H   H753      1.0  0.5692030356414662  0.744759303358368  0.35562399373666603  1.0000
  H   H754      1.0  0.591272353156114  0.8134557954165967  0.2680032747727576  1.0000
  H   H755      1.0  0.6233341205020537  0.8103366012670243  0.3052299518664241  1.0000
  H   H756      1.0  0.5993639955307417  0.8484161894647612  0.30970906722652386  1.0000
  N   N48       1.0  0.7396806899990029  0.2879937432900958  0.7813727334028351  1.0000
  C   C477      1.0  0.7518819885439982  0.2826593263939561  0.7341558798501557  1.0000
  C   C478      1.0  0.7072119863019417  0.281452138657864  0.7806281590866759  1.0000
  C   C479      1.0  0.7457808977050352  0.325387879161721  0.796493365900202  1.0000
  C   C480      1.0  0.7538448073611775  0.2624389793949599  0.8140824049730639  1.0000
  H   H757      1.0  0.7765142073185111  0.2854872425907471  0.7337944591105766  1.0000
  H   H758      1.0  0.7426695544145339  0.30253792045831257  0.7090378764017842  1.0000
  H   H759      1.0  0.7464785166186799  0.25534059124680225  0.7205391082286483  1.0000
  H   H760      1.0  0.6957974846542085  0.29983872270115947  0.7557222627661478  1.0000
  H   H761      1.0  0.7018776916508376  0.25332149451775854  0.7698700045717215  1.0000
  H   H762      1.0  0.6971159349811139  0.28551817219037123  0.8155510134112666  1.0000
  H   H763      1.0  0.7370731176321988  0.3304512477564656  0.8321070156215356  1.0000
  H   H764      1.0  0.7352274952253705  0.34536746850857253  0.7726820827094562  1.0000
  H   H765      1.0  0.7700654243930136  0.33144492421164073  0.7969311760741737  1.0000
  H   H766      1.0  0.7452838204911016  0.2657036257863362  0.8501416724616687  1.0000
  H   H767      1.0  0.778427104819415  0.26607692948376105  0.81501088681381  1.0000
  H   H768      1.0  0.7494902736586054  0.23401957341695048  0.8036811803090829  1.0000
