data_image0
_chemical_formula_structural       FeS2FeS2FeSFeS3FeS2FeS2FeSFeS3FeS2FeS2FeSFeS3FeS2FeS2FeSFeS3FeS2FeS2FeSFeS3FeS2FeS2FeSFeS3C6H4C6H4C6H4C6H4C6H4C6H4C6H4C6H4C6H4C6H4C6H4C6H4FeS2FeS2FeSFeS3FeS2FeS2FeSFeS3FeS2FeS2FeSFeS3FeS2FeS2FeSFeS3FeS2FeS2FeSFeS3FeS2FeS2FeSFeS3C6H4C6H4C6H4C6H4C6H4C6H4C6H4C6H4C6H4C6H4C6H4C6H4FeS2FeS2FeSFeS3FeS2FeS2FeSFeS3FeS2FeS2FeSFeS3FeS2FeS2FeSFeS3FeS2FeS2FeSFeS3FeS2FeS2FeSFeS3C6H4C6H4C6H4C6H4C6H4C6H4C6H4C6H4C6H4C6H4C6H4C6H4FeS2FeS2FeSFeS3FeS2FeS2FeSFeS3FeS2FeS2FeSFeS3FeS2FeS2FeSFeS3FeS2FeS2FeSFeS3FeS2FeS2FeSFeS3C6H4C6H4C6H4C6H4C6H4C6H4C6H4C6H4C6H4C6H4C6H4C6H4NC4H12NC4H12NC4H12NC4H12NC4H12NC4H12NC4H12NC4H12NC4H12NC4H12NC4H12NC4H12NC4H12NC4H12NC4H12NC4H12NC4H12NC4H12NC4H12NC4H12NC4H12NC4H12NC4H12NC4H12NC4H12NC4H12NC4H12NC4H12NC4H12NC4H12NC4H12NC4H12NC4H12NC4H12NC4H12NC4H12NC4H12NC4H12NC4H12NC4H12NC4H12NC4H12NC4H12NC4H12NC4H12NC4H12NC4H12NC4H12
_chemical_formula_sum              "Fe96 S192 C480 H768 N48"
_cell_length_a       30.85229162205156
_cell_length_b       41.88236452416418
_cell_length_c       37.49770533738311
_cell_angle_alpha    89.87706625724907
_cell_angle_beta     89.81138076654915
_cell_angle_gamma    90.10607090339666

_space_group_name_H-M_alt    "P 1"
_space_group_IT_number       1

loop_
  _space_group_symop_operation_xyz
  'x, y, z'

loop_
  _atom_site_type_symbol
  _atom_site_label
  _atom_site_symmetry_multiplicity
  _atom_site_fract_x
  _atom_site_fract_y
  _atom_site_fract_z
  _atom_site_occupancy
  Fe  Fe1       1.0  0.3882521008982997  0.2405518713285936  0.20339521773151403  1.0000
  S   S1        1.0  0.40376543894035144  0.291551298492484  0.21592328687457615  1.0000
  S   S2        1.0  0.4364632359905829  0.20594252199057136  0.18077813188271413  1.0000
  Fe  Fe2       1.0  0.29422045446515505  0.24712908940848777  0.22414540351239587  1.0000
  S   S3        1.0  0.30058728570052046  0.29886656301115355  0.2381097838997201  1.0000
  S   S4        1.0  0.23374749414356466  0.2190450011279791  0.23487311274046543  1.0000
  Fe  Fe3       1.0  0.34102779694677343  0.30240106501243713  0.18862124686543255  1.0000
  S   S5        1.0  0.34090510999373314  0.3465209464013876  0.15450448426270288  1.0000
  Fe  Fe4       1.0  0.3624314980735216  0.28388215070765405  0.26434645313720806  1.0000
  S   S6        1.0  0.3787561327465547  0.3064007547421736  0.31675073877525745  1.0000
  S   S7        1.0  0.32870163145123493  0.25175238433264474  0.17164449432673012  1.0000
  S   S8        1.0  0.35285101562749516  0.2316526747203877  0.2547444225859638  1.0000
  Fe  Fe5       1.0  0.9294087552891392  0.2858852035278342  0.19276493536886233  1.0000
  S   S9        1.0  0.9441741622885642  0.24335595243995742  0.15857818277603203  1.0000
  S   S10       1.0  0.8900408999839773  0.32853778949678736  0.17659342102714376  1.0000
  Fe  Fe6       1.0  0.9845856859033708  0.2620963342248037  0.25387849445500477  1.0000
  S   S11       1.0  0.0037572051592311695  0.21703197537218827  0.22598058509427532  1.0000
  S   S12       1.0  0.010696449138468012  0.2780297114955339  0.30660726503733293  1.0000
  Fe  Fe7       1.0  0.012459470544525342  0.24881865664189373  0.1780536498712077  1.0000
  S   S13       1.0  0.0703793937313546  0.25172747691127567  0.14157568161229828  1.0000
  Fe  Fe8       1.0  0.9339469339287105  0.21552840571260212  0.20912613806036065  1.0000
  S   S14       1.0  0.8889446210089357  0.17351671473095936  0.2103951870792642  1.0000
  S   S15       1.0  0.9986148773290766  0.29399962922175665  0.20748762480143323  1.0000
  S   S16       1.0  0.9137691823721145  0.2576637699087957  0.24182046704096277  1.0000
  Fe  Fe9       1.0  0.8568562808288506  0.06214836542721546  0.062420110960266006  1.0000
  S   S17       1.0  0.7338997574999009  0.5464072579044138  0.20859291435073463  1.0000
  S   S18       1.0  0.9210245701634154  0.08002599920141362  0.08160291878839739  1.0000
  Fe  Fe10      1.0  0.7428695843492964  0.09685809077470194  0.5396290306894416  1.0000
  S   S19       1.0  0.6965894878803724  0.5654368688432646  0.5956019729644294  1.0000
  S   S20       1.0  0.7094458087172578  0.1137140367511283  0.48974551766236596  1.0000
  Fe  Fe11      1.0  0.6806703443895854  0.5514919735363415  0.16860543446763399  1.0000
  S   S21       1.0  0.616944678629704  0.5292711626129342  0.18391692108128668  1.0000
  Fe  Fe12      1.0  0.7593862499991842  0.5400013333350222  0.604619359633788  1.0000
  S   S22       1.0  0.7588743993961086  0.48741746701947913  0.6158376525326491  1.0000
  S   S23       1.0  0.810439311159182  0.09774334856021154  0.03980978883815012  1.0000
  S   S24       1.0  0.8133776857857694  0.10646453240600488  0.5492547327997714  1.0000
  Fe  Fe13      1.0  0.5558747167875541  0.09479001857703964  0.30148671613577616  1.0000
  S   S25       1.0  0.42664300905447844  0.5537761934795311  0.33145210341341463  1.0000
  S   S26       1.0  0.5497469960872872  0.1481180875234302  0.3045505505353723  1.0000
  Fe  Fe14      1.0  0.5763463309550545  0.037408682824191075  0.34751053532651377  1.0000
  S   S27       1.0  0.5164538554754039  0.5306362800103185  0.3727841988159281  1.0000
  S   S28       1.0  0.5946918207543596  0.017279130989303004  0.40108708168802354  1.0000
  Fe  Fe15      1.0  0.49059433260421226  0.5750035740737873  0.3465504645638618  1.0000
  S   S29       1.0  0.5276831851694207  0.6063112597406155  0.3086665393287355  1.0000
  Fe  Fe16      1.0  0.44978821005764213  0.5111781099521984  0.3621589039761303  1.0000
  S   S30       1.0  0.4314405543763154  0.46168164582914123  0.34494639079760336  1.0000
  S   S31       1.0  0.6178484881688654  0.06829098070483242  0.3121921761930981  1.0000
  S   S32       1.0  0.5162725949819597  0.06665708251795777  0.34089033659480134  1.0000
  Fe  Fe17      1.0  0.2172154313702382  0.35961805522493795  0.4435909955161948  1.0000
  S   S33       1.0  0.24013570668918494  0.409925047813144  0.45296803510915984  1.0000
  S   S34       1.0  0.2003767354169677  0.3369188009491921  0.3913230609933209  1.0000
  Fe  Fe18      1.0  0.2315600773567751  0.3391175824088122  0.5194672459866069  1.0000
  S   S35       1.0  0.25493142040083694  0.3871972211945585  0.5364478200923367  1.0000
  S   S36       1.0  0.23174330503072188  0.29611677114704416  0.5549044357052773  1.0000
  Fe  Fe19      1.0  0.200535782491528  0.40626478666254673  0.5031925328166037  1.0000
  S   S37       1.0  0.1682747886887798  0.44971205894486765  0.5262149197162206  1.0000
  Fe  Fe20      1.0  0.2925831608948363  0.38714173034477695  0.48546105949237645  1.0000
  S   S38       1.0  0.36187460098855334  0.40323065966895566  0.48885486295898795  1.0000
  S   S39       1.0  0.17289480754064493  0.35773596742503566  0.4911912319276096  1.0000
  S   S40       1.0  0.2737476949248842  0.33731036925915425  0.47122052703568906  1.0000
  Fe  Fe21      1.0  0.9113278042810967  0.40783835684293546  0.39989086044661143  1.0000
  S   S41       1.0  0.8825935184159932  0.44772845164853203  0.43225970776437567  1.0000
  S   S42       1.0  0.9222778013934244  0.40970366973795613  0.34078079837528  1.0000
  Fe  Fe22      1.0  0.9163689490414606  0.3626311445194956  0.46249583031112296  1.0000
  S   S43       1.0  0.8870130405274476  0.39802183082623294  0.49981762205054064  1.0000
  S   S44       1.0  0.9367715974249443  0.315860622303554  0.4858784655959702  1.0000
  Fe  Fe23      1.0  0.8413418794507562  0.40878484747659105  0.45554326591220023  1.0000
  S   S45       1.0  0.7714595538768464  0.41303123916153905  0.47054550306440984  1.0000
  Fe  Fe24      1.0  0.9314501417348704  0.4330356088562308  0.4735673441269205  1.0000
  S   S46       1.0  0.9655214757042565  0.46738655368856225  0.5101303045622567  1.0000
  S   S47       1.0  0.8662354165200808  0.3697922512998246  0.4203006857637468  1.0000
  S   S48       1.0  0.9641197348362486  0.39685361594050483  0.4388678092539603  1.0000
  C   C1        1.0  0.11176916400306068  0.45317315880759595  0.5221402859837148  1.0000
  C   C2        1.0  0.0911928866936864  0.4799211088191438  0.5367184549444469  1.0000
  C   C3        1.0  0.046260794366006275  0.48378281085773117  0.5333330823705458  1.0000
  C   C4        1.0  0.021570909468507482  0.460902547506227  0.5153520208762467  1.0000
  C   C5        1.0  0.042020492513653585  0.4337037825973324  0.501635754843217  1.0000
  C   C6        1.0  0.08710415904284162  0.42990529817863793  0.504798974951395  1.0000
  H   H1        1.0  0.11013043809412147  0.4979102168481814  0.5503179505544217  1.0000
  H   H2        1.0  0.030783024488932886  0.5047443388383648  0.5442965688868555  1.0000
  H   H3        1.0  0.023371099389221772  0.4155673501480579  0.48848369902067984  1.0000
  H   H4        1.0  0.10269109352217075  0.4091732178971129  0.493444690820864  1.0000
  C   C7        1.0  0.4146114931922108  0.44228255070128936  0.3839897226922242  1.0000
  C   C8        1.0  0.3760362321836086  0.4246764921359594  0.38442195450542194  1.0000
  C   C9        1.0  0.36021026923692306  0.41223887739597226  0.41667125202528643  1.0000
  C   C10       1.0  0.3831488366031013  0.4168279723318715  0.44825623035092965  1.0000
  C   C11       1.0  0.42233694702965313  0.4336238728992349  0.4476728061033659  1.0000
  C   C12       1.0  0.4378480842297648  0.44662606206411065  0.4155973301433323  1.0000
  H   H5        1.0  0.3574699471722711  0.42178761392866165  0.360237243971595  1.0000
  H   H6        1.0  0.32970719226302025  0.39985508561640937  0.41746529667613275  1.0000
  H   H7        1.0  0.44002075848430117  0.4374560684937508  0.4721753457651734  1.0000
  H   H8        1.0  0.4675426407225665  0.4604277743508567  0.41539543783410776  1.0000
  C   C13       1.0  0.7635618387832356  0.46628792821910353  0.5758619374741676  1.0000
  C   C14       1.0  0.737457360409603  0.4394936901113663  0.5700607772378747  1.0000
  C   C15       1.0  0.7399239849495505  0.4231083694481544  0.5375722454850295  1.0000
  C   C16       1.0  0.7692114144468383  0.4330824867580013  0.5112710096351148  1.0000
  C   C17       1.0  0.7965781422663463  0.45909553592198865  0.5176031071356713  1.0000
  C   C18       1.0  0.7935279736640865  0.47583566280632456  0.5498230108066365  1.0000
  H   H9        1.0  0.7148209982777606  0.4317520204663699  0.5904447368555279  1.0000
  H   H10       1.0  0.7194438696445877  0.4025329742714249  0.5329046941167339  1.0000
  H   H11       1.0  0.8197246791997485  0.46650685093995853  0.4974721683850667  1.0000
  H   H12       1.0  0.8151419116019406  0.49557917755708997  0.5548472954803731  1.0000
  C   C19       1.0  0.6758822389110429  0.08697085440225295  0.4666040533696629  1.0000
  C   C20       1.0  0.6576811809562386  0.09669051688346343  0.43421022723174535  1.0000
  C   C21       1.0  0.6322740939948523  0.07549937597087708  0.41424602856129306  1.0000
  C   C22       1.0  0.6249162542107124  0.04444566728169708  0.42660412643470075  1.0000
  C   C23       1.0  0.5823459892591873  0.5723248766509924  0.5149600326526218  1.0000
  C   C24       1.0  0.6254139922780456  0.5822287240285452  0.5187882017821  1.0000
  H   H13       1.0  0.663444539566952  0.12064567349038874  0.4243483592679923  1.0000
  H   H14       1.0  0.6182990398842911  0.08329926110626129  0.3893195870076635  1.0000
  H   H15       1.0  0.5625836408588463  0.567992607950656  0.538380698021163  1.0000
  H   H16       1.0  0.6383005405801132  0.5862785870601931  0.5450292916468983  1.0000
  C   C25       1.0  0.5904057439946777  0.5509034412525746  0.2175852469814028  1.0000
  C   C26       1.0  0.6595256749993965  0.08717559141060117  0.15981583973329  1.0000
  C   C27       1.0  0.644014974824212  0.0687362389604016  0.18851708611095452  1.0000
  C   C28       1.0  0.550213441891537  0.5848772875092356  0.2730612937933295  1.0000
  C   C29       1.0  0.5766948516900704  0.6008036458491005  0.24843570633740547  1.0000
  C   C30       1.0  0.5970038752641302  0.5838017850807702  0.22092432655578687  1.0000
  H   H17       1.0  0.6520297180682453  0.1123843530226785  0.15847720309323596  1.0000
  H   H18       1.0  0.6247729206851117  0.07973781071090635  0.20929973184556488  1.0000
  H   H19       1.0  0.5819034357466227  0.6262638005156052  0.25074817061213944  1.0000
  H   H20       1.0  0.6172916414494083  0.5962674822486511  0.20200983826563207  1.0000
  C   C31       1.0  0.8799829390742212  0.327476758961007  0.13070039451355558  1.0000
  C   C32       1.0  0.8793307776578156  0.3559064524826214  0.11110246668652918  1.0000
  C   C33       1.0  0.8774237023645783  0.35494545170624325  0.0738077235806911  1.0000
  C   C34       1.0  0.9595285091087397  0.32539411710048816  0.5272530570536405  1.0000
  C   C35       1.0  0.97423238737246  0.35649582462096774  0.5334429357931597  1.0000
  C   C36       1.0  0.9882408203269167  0.36551649089398025  0.5673710537645041  1.0000
  H   H21       1.0  0.8818969954342463  0.37865469230044463  0.12448957181431278  1.0000
  H   H22       1.0  0.8767849125738285  0.37690317153759323  0.05875581478750869  1.0000
  H   H23       1.0  0.9745560063612112  0.3737789896481584  0.5121017593044622  1.0000
  H   H24       1.0  0.9991033114399471  0.3897362653885468  0.5719562005208384  1.0000
  C   C37       1.0  0.9903742936107988  0.3165080281340631  0.31382841911214604  1.0000
  C   C38       1.0  0.004481737750741122  0.33457973854098483  0.3428686335466059  1.0000
  C   C39       1.0  0.9846654631763759  0.36389918653013714  0.35049438516293596  1.0000
  C   C40       1.0  0.9506600544299157  0.3750470541772036  0.3292412908952288  1.0000
  C   C41       1.0  0.9375062845177898  0.3573218905801746  0.2997257762278013  1.0000
  C   C42       1.0  0.9576118014843102  0.3283289991779588  0.29181506268691043  1.0000
  H   H25       1.0  0.03014696999105393  0.3257784523383431  0.3598392077849185  1.0000
  H   H26       1.0  0.9959501335311516  0.37793360613718435  0.37268057693613743  1.0000
  H   H27       1.0  0.910559817752659  0.3652013420222405  0.2838078170314747  1.0000
  H   H28       1.0  0.9464301314868604  0.3147129160794281  0.26935281252967536  1.0000
  C   C43       1.0  0.9129332623540932  0.10567922991404766  0.11786318363295983  1.0000
  C   C44       1.0  0.9461268645664148  0.1261720813477982  0.12899904269803852  1.0000
  C   C45       1.0  0.9391021337461697  0.14719724657551905  0.1575584442228291  1.0000
  C   C46       1.0  0.8992846211261665  0.14700731191671737  0.17550253266274712  1.0000
  C   C47       1.0  0.8663205132255658  0.12635113199615347  0.1645442129928117  1.0000
  C   C48       1.0  0.8728829334694609  0.10611858912341367  0.13541358952013777  1.0000
  H   H29       1.0  0.9771067805374282  0.12603215867895357  0.11538241941979413  1.0000
  H   H30       1.0  0.9646390336179469  0.16324649328619978  0.16593080990844944  1.0000
  H   H31       1.0  0.8353477726930912  0.12661692130470956  0.17806389966014058  1.0000
  H   H32       1.0  0.8469440856074484  0.09084387778710523  0.12666192965436776  1.0000
  C   C49       1.0  0.3211041336552226  0.3387843284675566  0.11155181931195507  1.0000
  C   C50       1.0  0.33502596281444713  0.3574388964031152  0.08259630431159137  1.0000
  C   C51       1.0  0.31959268503234894  0.3062479579221439  0.5554261891497397  1.0000
  C   C52       1.0  0.2856617968991327  0.2847406983975918  0.5619803150360314  1.0000
  C   C53       1.0  0.2948954772442697  0.25401655431683845  0.5743444419489782  1.0000
  C   C54       1.0  0.29402146180416844  0.3125583375204762  0.10566089371516423  1.0000
  H   H33       1.0  0.355969607663269  0.3777780325161391  0.0870828554004075  1.0000
  H   H34       1.0  0.31276774519614625  0.3300897582780803  0.5459839028554683  1.0000
  H   H35       1.0  0.2689810046529385  0.23711083133769706  0.5788808633172846  1.0000
  H   H36       1.0  0.2822193448210094  0.2985737896619661  0.12791920035334808  1.0000
  C   C55       1.0  0.32951389804903086  0.31401553337989163  0.33833230851500284  1.0000
  C   C56       1.0  0.325750073817502  0.34028787598679355  0.3610487943336471  1.0000
  C   C57       1.0  0.28576365551523153  0.3472100718959807  0.377034264921133  1.0000
  C   C58       1.0  0.24977038990160633  0.32785850753116297  0.3707176641670106  1.0000
  C   C59       1.0  0.2537402449944869  0.30118061874675767  0.34866246518085037  1.0000
  C   C60       1.0  0.29353775232282225  0.29439255746894455  0.3321780990287466  1.0000
  H   H37       1.0  0.3533742701351618  0.3556554284865837  0.36564245053219496  1.0000
  H   H38       1.0  0.28206942104618193  0.3678681201955076  0.3937670505441565  1.0000
  H   H39       1.0  0.22631730778156162  0.2855253632365213  0.34481092640957445  1.0000
  H   H40       1.0  0.29650458301902066  0.2737012409492817  0.3151090000464787  1.0000
  C   C61       1.0  0.19052744222688295  0.22609438029182213  0.20573170564099086  1.0000
  C   C62       1.0  0.1934076557617102  0.2490654670693499  0.17863987288691138  1.0000
  C   C63       1.0  0.15685286007482624  0.2560161507665324  0.15773445735813912  1.0000
  C   C64       1.0  0.11745165200565788  0.2402872311631814  0.1643068866050204  1.0000
  C   C65       1.0  0.11514534889815131  0.21679853404833327  0.19073203135452535  1.0000
  C   C66       1.0  0.15160935040912885  0.20964354382833508  0.2113062949652014  1.0000
  H   H41       1.0  0.22347742064078488  0.2618128865471928  0.1741889279663951  1.0000
  H   H42       1.0  0.15880417590518503  0.2741661219383136  0.13720761660598665  1.0000
  H   H43       1.0  0.08533043176211752  0.20387113522071848  0.1951445454855592  1.0000
  H   H44       1.0  0.14942659874573466  0.19163677571833101  0.23198603319683073  1.0000
  C   C67       1.0  0.4716586731240694  0.19205904974644572  0.21393753906960572  1.0000
  C   C68       1.0  0.49735978739213105  0.16516320568629747  0.20746273803369503  1.0000
  C   C69       1.0  0.5221910195119727  0.15184882577357203  0.2350194355064171  1.0000
  C   C70       1.0  0.5218572548872108  0.16573982597665965  0.26891293875918076  1.0000
  C   C71       1.0  0.4973761322063176  0.19332652564035396  0.2749729188027335  1.0000
  C   C72       1.0  0.4720501408289333  0.20635956843338188  0.24760029547193618  1.0000
  H   H45       1.0  0.49735957056066304  0.1542018923153128  0.18136404837869705  1.0000
  H   H46       1.0  0.5418947669625394  0.13105144828833654  0.22994924267928007  1.0000
  H   H47       1.0  0.4972461633380781  0.20421972963162696  0.3011191568863755  1.0000
  H   H48       1.0  0.4525796803744981  0.22731203556319296  0.2526916012898417  1.0000
  Fe  Fe25      1.0  0.45314128936704173  0.15619645815331118  0.6595796191443475  1.0000
  S   S49       1.0  0.4811305015878234  0.20564814948678062  0.6604542465542734  1.0000
  S   S50       1.0  0.4999626083299778  0.11554487714232343  0.6534447352425544  1.0000
  Fe  Fe26      1.0  0.36174383316184844  0.17899134150046353  0.6732844791278945  1.0000
  S   S51       1.0  0.38212021354465475  0.23023114334885392  0.6756406969878475  1.0000
  S   S52       1.0  0.2924700754054993  0.16550221951456828  0.6846966939056257  1.0000
  Fe  Fe27      1.0  0.42287040830664363  0.2186084864326592  0.6280137318259573  1.0000
  S   S53       1.0  0.42497907561998  0.25533190604413103  0.5842390419184782  1.0000
  Fe  Fe28      1.0  0.43795126718178773  0.21272782077392763  0.7077896459302261  1.0000
  S   S54       1.0  0.460625937589501  0.23867378968537484  0.7565984407824177  1.0000
  S   S55       1.0  0.3982430848974678  0.16830463040956153  0.6227298070992396  1.0000
  S   S56       1.0  0.41447044678536593  0.16229023456661412  0.7098191564485173  1.0000
  Fe  Fe29      1.0  0.02273966785264947  0.3121325609582211  0.6678396644802151  1.0000
  S   S57       1.0  0.06636934338257672  0.2789523884920601  0.6383049101699382  1.0000
  S   S58       1.0  0.0023251782481759076  0.3556832033560798  0.6381097513416998  1.0000
  Fe  Fe30      1.0  0.02658678715761753  0.27370398804920015  0.7354987438415099  1.0000
  S   S59       1.0  0.07194498448099118  0.23739062060967622  0.7121986373280951  1.0000
  S   S60       1.0  0.9997548312671276  0.26686573364079935  0.7907109537784558  1.0000
  Fe  Fe31      1.0  0.10577521597046524  0.27967367893462114  0.6880490544368413  1.0000
  S   S61       1.0  0.17596337013776453  0.2889441527925759  0.6773783403787754  1.0000
  Fe  Fe32      1.0  0.028553080574967193  0.2399478448910738  0.6645052635792179  1.0000
  S   S62       1.0  0.01474376183618098  0.19429504761835076  0.6352322079790566  1.0000
  S   S63       1.0  0.0649597575160823  0.31595017503062717  0.7159843286467391  1.0000
  S   S64       1.0  0.9803792715835085  0.27321276864449806  0.6895694493763355  1.0000
  Fe  Fe33      1.0  0.7927569847148593  0.12114854712543245  0.6042008234398314  1.0000
  S   S65       1.0  0.7859960895517234  0.5765806128887323  0.6420865394468694  1.0000
  S   S66       1.0  0.8140464291903333  0.16704001756431636  0.629676494191716  1.0000
  Fe  Fe34      1.0  0.8002578652080684  0.06136534816290551  0.9971354005444824  1.0000
  S   S67       1.0  0.7216020142806884  0.5359884808136599  0.12217584143839066  1.0000
  S   S68       1.0  0.7947002307238762  0.07266329931131055  0.939111423065817  1.0000
  Fe  Fe35      1.0  0.7262190791791834  0.6043022099349127  0.628718211463273  1.0000
  S   S69       1.0  0.6926326518735542  0.6325658159795007  0.671611980265052  1.0000
  Fe  Fe36      1.0  0.7760731116664965  0.5355383659289351  0.16140133569594228  1.0000
  S   S70       1.0  0.8211290675195527  0.493565497920594  0.15867294082772587  1.0000
  S   S71       1.0  0.722087480009508  0.11625226787334267  0.5923192458239224  1.0000
  S   S72       1.0  0.8514235336369407  0.02800835146935743  0.016702038749046633  1.0000
  Fe  Fe37      1.0  0.5332375609109853  0.019671146648295276  0.8189409104775566  1.0000
  S   S73       1.0  0.5356937985866304  0.5986212349573153  0.8180535548718645  1.0000
  S   S74       1.0  0.47406894639096236  0.02303876317288989  0.7846034069239431  1.0000
  Fe  Fe38      1.0  0.5839107496505903  0.050753466064560986  0.8785445405454325  1.0000
  S   S75       1.0  0.5580360012546353  0.5473987014591398  0.8816147228622845  1.0000
  S   S76       1.0  0.5954283172948612  0.09194059189634195  0.9150526058523086  1.0000
  Fe  Fe39      1.0  0.5948456226698619  0.5757778129519909  0.8411447653448451  1.0000
  S   S77       1.0  0.6394545338199069  0.5485072191569379  0.804825391827482  1.0000
  Fe  Fe40      1.0  0.4996209841841417  0.5730921418172085  0.861667490984396  1.0000
  S   S78       1.0  0.43818882346448457  0.5463938693341419  0.848869443875996  1.0000
  S   S79       1.0  0.5914481905763658  0.05189748003971228  0.8191484688179269  1.0000
  S   S80       1.0  0.5219407387612469  0.02325299703248462  0.877825885213664  1.0000
  Fe  Fe41      1.0  0.3089310100924626  0.3365502704604198  0.8712851970792671  1.0000
  S   S81       1.0  0.32113820512588054  0.38901061188038  0.8653244209383609  1.0000
  S   S82       1.0  0.296976587335181  0.304763326727725  0.8242777265133936  1.0000
  Fe  Fe42      1.0  0.30465415088224707  0.3392343206721295  0.952002545469272  1.0000
  S   S83       1.0  0.31686453840494544  0.391957250539441  0.953667760079059  1.0000
  S   S84       1.0  0.28867612417126265  0.3072604874384307  0.9985513284829582  1.0000
  Fe  Fe43      1.0  0.27071501697949857  0.39437464393930255  0.9078272045430794  1.0000
  S   S85       1.0  0.21941080237241528  0.4318566732634882  0.903274090096808  1.0000
  Fe  Fe44      1.0  0.3666514040305249  0.3824149320574674  0.9112477846995694  1.0000
  S   S86       1.0  0.43093561716220097  0.4076551603486319  0.9153829740864763  1.0000
  S   S87       1.0  0.2538189660296041  0.34256922134227774  0.90958244475421  1.0000
  S   S88       1.0  0.3589897189466731  0.32898586635163046  0.9137254044467877  1.0000
  Fe  Fe45      1.0  0.9482291481639201  0.3994659622291598  0.9207401831564483  1.0000
  S   S89       1.0  0.9809462122211345  0.4393024952224323  0.9502562326358008  1.0000
  S   S90       1.0  0.9529789270579767  0.3992266040883351  0.8608563392332761  1.0000
  Fe  Fe46      1.0  0.9166025306584473  0.3675270810540549  0.9883676337657384  1.0000
  S   S91       1.0  0.947297351856184  0.4041930051994792  0.023770085794910356  1.0000
  S   S92       1.0  0.8823039000024602  0.3239898770961179  0.009680083175314325  1.0000
  Fe  Fe47      1.0  0.920945968139539  0.43938726500969666  0.9842862689920784  1.0000
  S   S93       1.0  0.8898878809015389  0.4859107608270085  0.00015149325606889086  1.0000
  Fe  Fe48      1.0  0.004187652992074575  0.40078041442472073  0.9869867661230419  1.0000
  S   S94       1.0  0.07049347406313733  0.393847462028973  0.01034275297362175  1.0000
  S   S95       1.0  0.885793113016192  0.4029318876065691  0.9513814728741484  1.0000
  S   S96       1.0  0.9762264012345867  0.36081340675888646  0.9549186229006775  1.0000
  C   C73       1.0  0.17929542204511997  0.42390172855502883  0.9351621661129362  1.0000
  C   C74       1.0  0.18734959976521925  0.402365381987059  0.9628996846850792  1.0000
  C   C75       1.0  0.15416012709726568  0.39425738588706144  0.9868806927236008  1.0000
  C   C76       1.0  0.11265815072050778  0.40712230758558776  0.9826616521048573  1.0000
  C   C77       1.0  0.10490790829452168  0.4291900375285459  0.9553902965318584  1.0000
  C   C78       1.0  0.1383353025218148  0.43780187478635196  0.9318140757540145  1.0000
  H   H49       1.0  0.21895170809079031  0.39157708062855573  0.965747556636556  1.0000
  H   H50       1.0  0.16035500078504206  0.37722922504249984  0.008011042316039552  1.0000
  H   H51       1.0  0.07319785167991677  0.4396444265011965  0.9524223052012637  1.0000
  H   H52       1.0  0.13208610909513596  0.45460496195368116  0.9104849398062009  1.0000
  C   C79       1.0  0.4356776415334727  0.5081611398665099  0.8680734798991405  1.0000
  C   C80       1.0  0.40743769331065244  0.4853614446378567  0.8538406687911622  1.0000
  C   C81       1.0  0.4056147426565417  0.4544802450960345  0.8683551575932469  1.0000
  C   C82       1.0  0.43249078769354504  0.44614007102887276  0.8968388375204099  1.0000
  C   C83       1.0  0.4612172727763542  0.4688124098486968  0.9107209957707778  1.0000
  C   C84       1.0  0.46236730271589854  0.49989034488454503  0.8967023353037945  1.0000
  H   H53       1.0  0.38704778651190175  0.49155131704413835  0.8314398082042386  1.0000
  H   H54       1.0  0.38413777565067997  0.43698142286004993  0.856924789808062  1.0000
  H   H55       1.0  0.4818720941900124  0.4625659693127105  0.9329520883449687  1.0000
  H   H56       1.0  0.4832447262330485  0.5175727942758457  0.9086460399332545  1.0000
  C   C85       1.0  0.8424228531897664  0.49124482058949304  0.11528054059059767  1.0000
  C   C86       1.0  0.8516107716555453  0.46151623846936135  0.09997963753406491  1.0000
  C   C87       1.0  0.8674565076934958  0.45973189817395543  0.06491671396827625  1.0000
  C   C88       1.0  0.8744816285843952  0.4876591826760025  0.045186804530447766  1.0000
  C   C89       1.0  0.865529837099762  0.5173376996663683  0.060588549054433116  1.0000
  C   C90       1.0  0.8491633310933075  0.5191166170571596  0.09542260742168174  1.0000
  H   H57       1.0  0.8450324920279125  0.43978596091516187  0.1145833446793949  1.0000
  H   H58       1.0  0.8727508543203353  0.4367343213520121  0.052754886179929406  1.0000
  H   H59       1.0  0.8710572362623844  0.5390062299511172  0.04547296962722669  1.0000
  H   H60       1.0  0.8422772492011127  0.5421220408657057  0.10701249870858565  1.0000
  C   C91       1.0  0.7407376726480267  0.0832903137433254  0.9310619396295005  1.0000
  C   C92       1.0  0.7145068631038053  0.09436870708913056  0.9589595610304059  1.0000
  C   C93       1.0  0.6701054304650382  0.09941626886935684  0.9533501687232157  1.0000
  C   C94       1.0  0.6517843252633378  0.09231976920353213  0.9202348205941234  1.0000
  C   C95       1.0  0.6240256729853213  0.582273359188065  0.03557061305802067  1.0000
  C   C96       1.0  0.6612331066148475  0.5898343884774181  0.0550949516223489  1.0000
  H   H61       1.0  0.7283829061945544  0.0988549192063506  0.9849111728719281  1.0000
  H   H62       1.0  0.6497769707939983  0.10767932769519126  0.974924280831726  1.0000
  H   H63       1.0  0.596981818244963  0.5706323613409948  0.04874389870788165  1.0000
  H   H64       1.0  0.6625491688057437  0.5840299845440861  0.08316382450679405  1.0000
  C   C97       1.0  0.6806027201641396  0.6090761345186547  0.7091895471952201  1.0000
  C   C98       1.0  0.6417493260132938  0.0246337999260704  0.7050429781952192  1.0000
  C   C99       1.0  0.6463292301861604  0.01441444286690019  0.7404344531257266  1.0000
  C   C100      1.0  0.6565852053675861  0.5719733758288508  0.7685723572141591  1.0000
  C   C101      1.0  0.6732450537705105  0.5573439917538323  0.7378969212930951  1.0000
  C   C102      1.0  0.6850267489344265  0.5758664958701458  0.7081271243773194  1.0000
  H   H65       1.0  0.6098009485910418  0.026506829953554464  0.6934550110667759  1.0000
  H   H66       1.0  0.6179540942624735  0.008328307114203069  0.7559776920303252  1.0000
  H   H67       1.0  0.6764359360417135  0.5316382337999599  0.7369211943989619  1.0000
  H   H68       1.0  0.6970075081444376  0.5643577807880115  0.6842583179671385  1.0000
  C   C103      1.0  0.9877268201436034  0.3434155001182156  0.5952473663538578  1.0000
  C   C104      1.0  0.9747302240087714  0.31188892909168675  0.5888967115151252  1.0000
  C   C105      1.0  0.9606223662383342  0.30284997196217717  0.5548189544704574  1.0000
  C   C106      1.0  0.876669461572798  0.32563609190335485  0.05608965311031788  1.0000
  C   C107      1.0  0.8744532595290194  0.2972602969995795  0.07575269276014174  1.0000
  C   C108      1.0  0.8758030878924716  0.2982136462175101  0.11311053618023936  1.0000
  H   H69       1.0  0.9741624793041369  0.29467162184911594  0.6104018923574857  1.0000
  H   H70       1.0  0.9491924277086291  0.2787666757560802  0.5501842476983769  1.0000
  H   H71       1.0  0.8734697626963452  0.2745960311791021  0.062007698542464684  1.0000
  H   H72       1.0  0.8745656784590284  0.27635680416375147  0.12828705480503233  1.0000
  C   C109      1.0  0.9830203491580908  0.30317331520309804  0.8094388410619209  1.0000
  C   C110      1.0  0.9697443849067368  0.304281000784748  0.8451594664776261  1.0000
  C   C111      1.0  0.959193633764185  0.33362067107566035  0.8609868501277033  1.0000
  C   C112      1.0  0.9619429706736348  0.36186167368375716  0.841101077879501  1.0000
  C   C113      1.0  0.9739434578868765  0.36055825763627347  0.8051102628564385  1.0000
  C   C114      1.0  0.9843032305048504  0.3312626420262164  0.7892676337408544  1.0000
  H   H73       1.0  0.9681809162338461  0.28254459839449575  0.8607607566299349  1.0000
  H   H74       1.0  0.9487889422842374  0.33433243813727503  0.8884805248321576  1.0000
  H   H75       1.0  0.9756590522361984  0.3823232450457055  0.7895543928473296  1.0000
  H   H76       1.0  0.9933252469514388  0.3305302331089559  0.7614691610452112  1.0000
  C   C115      1.0  0.8697461379868772  0.17471944095854686  0.6265782998408337  1.0000
  C   C116      1.0  0.8994069331089909  0.1500072361735536  0.6208501857714372  1.0000
  C   C117      1.0  0.9441328440329696  0.15629466556450178  0.6222846073283866  1.0000
  C   C118      1.0  0.9591017534404557  0.1872826711911053  0.6291601659158043  1.0000
  C   C119      1.0  0.9293648475269577  0.21212975897762706  0.6332765669580042  1.0000
  C   C120      1.0  0.8847884517560781  0.20581390577173853  0.6323743696850641  1.0000
  H   H77       1.0  0.8878755297065001  0.1259316722243182  0.6163625625953478  1.0000
  H   H78       1.0  0.9670337884002915  0.13699695887136454  0.6188987427397974  1.0000
  H   H79       1.0  0.940597997024691  0.2362617653716534  0.6370131457097603  1.0000
  H   H80       1.0  0.8618480049856821  0.22502585168034434  0.6362514213396118  1.0000
  C   C121      1.0  0.3716287333905766  0.26652183897275555  0.5748661445683492  1.0000
  C   C122      1.0  0.3625991078695779  0.297122050740394  0.5618416447337111  1.0000
  C   C123      1.0  0.32371467198503434  0.3488341100725552  0.0476117655050361  1.0000
  C   C124      1.0  0.29804877652090517  0.3217952524438822  0.04171270154864959  1.0000
  C   C125      1.0  0.28240824368017187  0.3041733049324627  0.0708325939443204  1.0000
  C   C126      1.0  0.33780468110894124  0.24497197946456883  0.5809220833637543  1.0000
  H   H81       1.0  0.3887605623336155  0.3139177387577469  0.5573326007217472  1.0000
  H   H82       1.0  0.33608734885020397  0.36243155733659616  0.02525790489522639  1.0000
  H   H83       1.0  0.26202592717395057  0.28350940676246283  0.06636887854827744  1.0000
  H   H84       1.0  0.34474192118953756  0.22116005966319743  0.5904778188526476  1.0000
  C   C127      1.0  0.41568906216933305  0.2546304673494402  0.7789777520686426  1.0000
  C   C128      1.0  0.4210688368348796  0.27989215285789826  0.8029907016648311  1.0000
  C   C129      1.0  0.38467600632628385  0.2946847649641804  0.8182924603496913  1.0000
  C   C130      1.0  0.34299421580779893  0.2840862278823815  0.809603394063612  1.0000
  C   C131      1.0  0.33781019827977626  0.25804138748810346  0.7866803010063289  1.0000
  C   C132      1.0  0.3740782947348883  0.24331551261433448  0.7714029298915833  1.0000
  H   H85       1.0  0.45325252908909236  0.28863386727145496  0.8089577350643866  1.0000
  H   H86       1.0  0.3888287887244497  0.3148613653169911  0.8359173026163021  1.0000
  H   H87       1.0  0.30561291084493203  0.24948490068127016  0.780323635826343  1.0000
  H   H88       1.0  0.36967728116174536  0.22335310992497295  0.7535326243536574  1.0000
  C   C133      1.0  0.2591230898880431  0.19926485157785084  0.6824651578736192  1.0000
  C   C134      1.0  0.2707526118150377  0.22480680859997965  0.6604792243165104  1.0000
  C   C135      1.0  0.24484147820705338  0.2521403270253054  0.6589563932648655  1.0000
  C   C136      1.0  0.20707439933946992  0.25406487606556377  0.6794355745131447  1.0000
  C   C137      1.0  0.19491000935787883  0.22839194773423935  0.7012201753414143  1.0000
  C   C138      1.0  0.22087593563378424  0.20088133322795193  0.7026001117430795  1.0000
  H   H89       1.0  0.29944374235703747  0.22316401949504516  0.6441761490126402  1.0000
  H   H90       1.0  0.25361951160704677  0.2715722178860466  0.6413445591011216  1.0000
  H   H91       1.0  0.16615198791319408  0.22993083169356332  0.71761255722899  1.0000
  H   H92       1.0  0.21186972677108437  0.18115852338979652  0.7198035106297705  1.0000
  C   C139      1.0  0.49256526492115277  0.08789907383128628  0.6880734226104331  1.0000
  C   C140      1.0  0.5284599367656679  0.07264940425652998  0.7032261892651909  1.0000
  C   C141      1.0  0.5230010250654169  0.05257300535042985  0.7329219685669154  1.0000
  C   C142      1.0  0.4815675265718569  0.047348008772567285  0.7470382225054262  1.0000
  C   C143      1.0  0.44561519797673826  0.06186174439172265  0.7312580581344768  1.0000
  C   C144      1.0  0.4511584429107745  0.08238534357303817  0.7020384647573944  1.0000
  H   H93       1.0  0.5606256557243834  0.07701108920199817  0.6926638667221868  1.0000
  H   H94       1.0  0.5508550327416283  0.041219271893318865  0.7448688692123844  1.0000
  H   H95       1.0  0.4134730820312265  0.057742364621845566  0.7419855883458291  1.0000
  H   H96       1.0  0.4232646572728321  0.09376842797175591  0.6901141021294656  1.0000
  Fe  Fe49      1.0  0.2758482921467406  0.7004181497862795  0.24095285162494712  1.0000
  S   S97       1.0  0.3232372529435031  0.7268510585433337  0.2065704648624566  1.0000
  S   S98       1.0  0.28501811985612585  0.6473935319228571  0.24464894768217077  1.0000
  Fe  Fe50      1.0  0.22636763920472025  0.7603397658913909  0.25851509275681345  1.0000
  S   S99       1.0  0.27043236553829936  0.7922960456100172  0.22673172241339307  1.0000
  S   S100      1.0  0.16801327772965885  0.7801406580261147  0.28643561228425296  1.0000
  Fe  Fe51      1.0  0.26570128057316145  0.7532564660904997  0.18595493117551734  1.0000
  S   S101      1.0  0.26161383793735193  0.7623965933496751  0.12717121771268308  1.0000
  Fe  Fe52      1.0  0.32365078655878504  0.7629956950961025  0.2502859929611205  1.0000
  S   S102      1.0  0.3891033628081839  0.7811308899336338  0.26601725597122017  1.0000
  S   S103      1.0  0.21780894034290543  0.723342639375756  0.2160044997124375  1.0000
  S   S104      1.0  0.28052112023632364  0.7347784175326793  0.2865594328218154  1.0000
  Fe  Fe53      1.0  0.9046363157700242  0.7829333978802792  0.12943184950660608  1.0000
  S   S105      1.0  0.965736127236559  0.7634883460193906  0.15272615347937804  1.0000
  S   S106      1.0  0.8765654766437238  0.7733440463071056  0.07561758928864992  1.0000
  Fe  Fe54      1.0  0.8809267186526814  0.8192123351137874  0.19567733036951787  1.0000
  S   S107      1.0  0.9394204163969703  0.803056209416806  0.22641179756767577  1.0000
  S   S108      1.0  0.8236519019611752  0.8480297237836291  0.2128603081706773  1.0000
  Fe  Fe55      1.0  0.9749629456396548  0.8126004938216148  0.17503008960787533  1.0000
  S   S109      1.0  0.04037102012214855  0.8357854057074877  0.1707927478179415  1.0000
  Fe  Fe56      1.0  0.9257233293032566  0.7552517766256336  0.2017506787969055  1.0000
  S   S110      1.0  0.9324034718094201  0.7073350957620853  0.22743413471895502  1.0000
  S   S111      1.0  0.9177183712677154  0.8331406807942978  0.14660657812149333  1.0000
  S   S112      1.0  0.8636779069185745  0.7704170229057347  0.17641915115139425  1.0000
  Fe  Fe57      1.0  0.7476188929668183  0.5976320073623618  0.19561183330941567  1.0000
  S   S113      1.0  0.8077989186641489  0.03708999552854553  0.09685718523747457  1.0000
  S   S114      1.0  0.7534653830604287  0.6352518710776994  0.23769444877210152  1.0000
  Fe  Fe58      1.0  0.731580310972291  0.588894563327298  0.5498203590284375  1.0000
  S   S115      1.0  0.7452745966827137  0.04624357933748802  0.5583726627110156  1.0000
  S   S116      1.0  0.7072849040848002  0.5940364651239612  0.49346557939736785  1.0000
  Fe  Fe59      1.0  0.7604474499613156  0.06997428673417039  0.07026155186320482  1.0000
  S   S117      1.0  0.709065998898984  0.09693066773165504  0.10001405190648342  1.0000
  Fe  Fe60      1.0  0.8141344262631451  0.057184187711435186  0.572848919738187  1.0000
  S   S118      1.0  0.8638928540758399  0.01999622245623711  0.5591984706024751  1.0000
  S   S119      1.0  0.6915211763965501  0.6036747513565687  0.15859284688432304  1.0000
  S   S120      1.0  0.7923190444792787  0.5603550053126372  0.5564760725779949  1.0000
  Fe  Fe61      1.0  0.4039502073597162  0.5718293628405483  0.38453741823601306  1.0000
  S   S121      1.0  0.536717547620605  0.065330289891675  0.2541204497851593  1.0000
  S   S122      1.0  0.3394175316177509  0.594826735863166  0.3948825983469145  1.0000
  Fe  Fe62      1.0  0.4862002734431447  0.5512581400867258  0.4221537844325723  1.0000
  S   S123      1.0  0.5590163775560896  0.0030644632806400285  0.30417394122793673  1.0000
  S   S124      1.0  0.5135490511006624  0.5501377848595818  0.4773453341857148  1.0000
  Fe  Fe63      1.0  0.5954350540330587  0.03629883100674203  0.26792775633708316  1.0000
  S   S125      1.0  0.6410008500463142  0.013563219764571421  0.22845004795504942  1.0000
  Fe  Fe64      1.0  0.5021823274203735  0.03492210629359316  0.2944833503745446  1.0000
  S   S126      1.0  0.4373004026518551  0.013292658764270326  0.2818119518782391  1.0000
  S   S127      1.0  0.4659068810677665  0.5972598478074185  0.39696617629450154  1.0000
  S   S128      1.0  0.42197341723567433  0.5276831903984277  0.41413347084336066  1.0000
  Fe  Fe65      1.0  0.3395823073290749  0.8878734756082794  0.4240008642725458  1.0000
  S   S129      1.0  0.29588717789889424  0.9104881899727653  0.38374346095693107  1.0000
  S   S130      1.0  0.4009323155357313  0.8641790699759  0.40627181543769497  1.0000
  Fe  Fe66      1.0  0.284977166267368  0.9082586427089808  0.4871530826767846  1.0000
  S   S131      1.0  0.23678480456303697  0.9329978888760188  0.45238578082017716  1.0000
  S   S132      1.0  0.2673489201859212  0.9075479475154916  0.5452639279864893  1.0000
  Fe  Fe67      1.0  0.24267679912894394  0.8900838767681407  0.4176419617739869  1.0000
  S   S133      1.0  0.18146415671643312  0.8675258430579736  0.39840892621975166  1.0000
  Fe  Fe68      1.0  0.294186968690138  0.9513494428252759  0.42217984059530733  1.0000
  S   S134      1.0  0.2985343663209854  0.0027345775444640452  0.405490447748967  1.0000
  S   S135      1.0  0.2864716404981232  0.863431264585934  0.4546335455171377  1.0000
  S   S136      1.0  0.3425606227714296  0.9305648841065751  0.4601187285031543  1.0000
  Fe  Fe69      1.0  0.9197457208793376  0.9781916787269388  0.3190713206429355  1.0000
  S   S137      1.0  0.9729076818498328  0.014549498484460743  0.32248000476854133  1.0000
  S   S138      1.0  0.8644519926338685  0.9821419612158724  0.2807938358867903  1.0000
  Fe  Fe70      1.0  0.9530353005738849  0.9396208281093299  0.38172317748646944  1.0000
  S   S139      1.0  0.009357571281628951  0.9724136179892015  0.3907000097913933  1.0000
  S   S140      1.0  0.9359652420605364  0.8963058764493014  0.414377857982222  1.0000
  Fe  Fe71      1.0  0.9617002962837481  0.011593082327252091  0.38143549526000964  1.0000
  S   S141      1.0  0.9613293045373826  0.054762860156023496  0.41646352470460696  1.0000
  Fe  Fe72      1.0  0.015558712982021827  0.9720393087421533  0.3311633741518135  1.0000
  S   S142      1.0  0.08149333032032202  0.968530972239285  0.30646638843412016  1.0000
  S   S143      1.0  0.9043041052028511  0.9790423787071422  0.3774091169931584  1.0000
  S   S144      1.0  0.9633361868269164  0.9356056620880692  0.32270465712569174  1.0000
  C   C145      1.0  0.15410217678374977  0.8932154874926325  0.36949706128835125  1.0000
  C   C146      1.0  0.10889072948186218  0.8919043001472919  0.3674653347412049  1.0000
  C   C147      1.0  0.08645182300444021  0.9144189386516657  0.34697812987306126  1.0000
  C   C148      1.0  0.1093417227099116  0.9378006600251192  0.3279836916560494  1.0000
  C   C149      1.0  0.15464608908386523  0.93798758376946  0.3284145173861068  1.0000
  C   C150      1.0  0.17700556518149035  0.9160392965647013  0.34968718873358234  1.0000
  H   H97       1.0  0.09111507617286761  0.8742895397455909  0.3828633023682821  1.0000
  H   H98       1.0  0.051437200306289066  0.9140715544975014  0.3466633320584051  1.0000
  H   H99       1.0  0.17244609481641548  0.9560095523659147  0.31368997707202906  1.0000
  H   H100      1.0  0.21192669672314432  0.9169327194244565  0.3509164560866258  1.0000
  C   C151      1.0  0.3986361427423712  0.011412279984110985  0.31619343013411527  1.0000
  C   C152      1.0  0.36572341601901637  0.9884609149150115  0.31424363139771444  1.0000
  C   C153      1.0  0.33494356512711393  0.9857971020033387  0.3416520841790457  1.0000
  C   C154      1.0  0.3362000661503507  0.006695767987280554  0.3706373106009246  1.0000
  C   C155      1.0  0.36819399565409877  0.030424727584064115  0.3720301011618106  1.0000
  C   C156      1.0  0.399746718563828  0.03254047440242669  0.3450421719747329  1.0000
  H   H101      1.0  0.36442792650503414  0.9723141292010413  0.2917674311989495  1.0000
  H   H102      1.0  0.3097938793191819  0.9678702973138547  0.3400413988825368  1.0000
  H   H103      1.0  0.3691546524754322  0.046665652735836005  0.39442927734059313  1.0000
  H   H104      1.0  0.4247417783255033  0.05050363270974856  0.34670675837489945  1.0000
  C   C157      1.0  0.8943733096294626  0.02979631436410357  0.5211936953996842  1.0000
  C   C158      1.0  0.907686519616857  0.005511417472432223  0.4980417400306935  1.0000
  C   C159      1.0  0.9296956354199701  0.01308412540752557  0.46640843644902014  1.0000
  C   C160      1.0  0.9385296612291119  0.04495608543060703  0.457879092328933  1.0000
  C   C161      1.0  0.9266382084490628  0.06916752246974767  0.481602003514414  1.0000
  C   C162      1.0  0.9046809854009487  0.061569552619760604  0.5133238633382025  1.0000
  H   H105      1.0  0.8999750065340253  0.9808762826025827  0.5039268273706986  1.0000
  H   H106      1.0  0.9393774776284728  0.9942196193248763  0.4484785135421475  1.0000
  H   H107      1.0  0.9337984367490718  0.09383834566215521  0.47522025945022506  1.0000
  H   H108      1.0  0.895925185296535  0.0803140774344484  0.5317077977214543  1.0000
  C   C163      1.0  0.6516447208225183  0.5865321106055545  0.4887446396951515  1.0000
  C   C164      1.0  0.6338972987312081  0.5827831785689023  0.4546368303139573  1.0000
  C   C165      1.0  0.5904148856301088  0.5734669620548751  0.4507219244752794  1.0000
  C   C166      1.0  0.5650032067560178  0.5674635891211327  0.48099892511919595  1.0000
  C   C167      1.0  0.6424386933731269  0.03484828378112015  0.45935736335036076  1.0000
  C   C168      1.0  0.6679272290678444  0.056081602694500354  0.47932900983075405  1.0000
  H   H109      1.0  0.6540269623942231  0.5863923909677893  0.4313385090046644  1.0000
  H   H110      1.0  0.5770323463095006  0.5697949325955014  0.42442483763753264  1.0000
  H   H111      1.0  0.6366732146080746  0.010860589801600984  0.4690776297333976  1.0000
  H   H112      1.0  0.6815247921371065  0.04840661324528739  0.5043440009936438  1.0000
  C   C169      1.0  0.6859590067624267  0.0732669220124893  0.13368261444722107  1.0000
  C   C170      1.0  0.5630029859671555  0.5351029980021524  0.24174907798226974  1.0000
  C   C171      1.0  0.5431863293390929  0.5520244090882529  0.26968328133814384  1.0000
  C   C172      1.0  0.6548642212636008  0.03638284430128502  0.19088803977583818  1.0000
  C   C173      1.0  0.6797801303304318  0.02228104337899106  0.16391738520938834  1.0000
  C   C174      1.0  0.6953761146773304  0.0406824307546505  0.13539816303389407  1.0000
  H   H113      1.0  0.5576658774186629  0.5096725079056095  0.23915838413904075  1.0000
  H   H114      1.0  0.5225385427054907  0.5396056894302312  0.28852318990898496  1.0000
  H   H115      1.0  0.6878279960297987  0.997171824272551  0.165545227057973  1.0000
  H   H116      1.0  0.7150987575679286  0.029656657852162205  0.11500832889671675  1.0000
  C   C175      1.0  0.9182890961036266  0.7769728808425852  0.044174810152568744  1.0000
  C   C176      1.0  0.910355693397054  0.7920759429661519  0.011575648922814263  1.0000
  C   C177      1.0  0.9446300531339787  0.7977989644073284  0.9877984828181625  1.0000
  C   C178      1.0  0.9712948519461928  0.8878506198275923  0.4498498008117781  1.0000
  C   C179      1.0  0.012324404379314924  0.9019966396712821  0.4517178590289389  1.0000
  C   C180      1.0  0.03956643335473986  0.8955581534239889  0.48073060486935837  1.0000
  H   H117      1.0  0.8780839680100073  0.8002768245720109  0.005136507213385544  1.0000
  H   H118      1.0  0.9385870745902801  0.8102213663462003  0.9629875113415496  1.0000
  H   H119      1.0  0.023484557114532345  0.9174135244741931  0.4305869251074785  1.0000
  H   H120      1.0  0.07124430398654291  0.9066024521409046  0.4820985012959939  1.0000
  C   C181      1.0  0.8361493539044035  0.8856946386593919  0.23004311393268073  1.0000
  C   C182      1.0  0.879188750265096  0.8956018246577485  0.23418362329900702  1.0000
  C   C183      1.0  0.8881874576513087  0.9254193613541062  0.2496151897167694  1.0000
  C   C184      1.0  0.8541502208123072  0.9452815914471601  0.2605295946643343  1.0000
  C   C185      1.0  0.811246048595803  0.9355155665332162  0.2556652208075402  1.0000
  C   C186      1.0  0.8022780079698515  0.9056953934028904  0.24063581404373457  1.0000
  H   H121      1.0  0.9054540604027715  0.8802864858468037  0.2256768550152685  1.0000
  H   H122      1.0  0.9213806022146036  0.9332604259211954  0.25253154848733284  1.0000
  H   H123      1.0  0.7848464030264006  0.9506684728397197  0.264274457618993  1.0000
  H   H124      1.0  0.7689842549377677  0.898010012040595  0.23751184381560533  1.0000
  C   C187      1.0  0.8032489050791968  0.6550837162457257  0.23488722328122483  1.0000
  C   C188      1.0  0.8411296176690841  0.6382007424280619  0.2270050385984834  1.0000
  C   C189      1.0  0.8809481442073661  0.6543267843712394  0.22524721545221527  1.0000
  C   C190      1.0  0.8826512382823362  0.6874113831342087  0.23034555348776775  1.0000
  C   C191      1.0  0.8446342337742732  0.7043405293531877  0.2376132499855448  1.0000
  C   C192      1.0  0.8050132702211087  0.6880905304715328  0.24040900022974515  1.0000
  H   H125      1.0  0.8398825012329667  0.612646252480589  0.22297781289160779  1.0000
  H   H126      1.0  0.9104218360417701  0.6412284066472121  0.21974242050537987  1.0000
  H   H127      1.0  0.8459391354569612  0.7298345560235869  0.24195531081235844  1.0000
  H   H128      1.0  0.7756781400976639  0.7011504324438844  0.2464559745348925  1.0000
  C   C193      1.0  0.2463747802691013  0.8016409153092818  0.11774544073641274  1.0000
  C   C194      1.0  0.22650641802211008  0.8204928170379912  0.14376174118358648  1.0000
  C   C195      1.0  0.3003419712314044  0.8924053699526403  0.6104511548448804  1.0000
  C   C196      1.0  0.3095356709582867  0.897023307983823  0.5741877680769224  1.0000
  C   C197      1.0  0.35166967721913367  0.892284636669389  0.5614360156976755  1.0000
  C   C198      1.0  0.25716529507835706  0.8149459603911048  0.08472875977543133  1.0000
  H   H129      1.0  0.2174516604625043  0.8101345411364953  0.16894590720036523  1.0000
  H   H130      1.0  0.267904541788138  0.8963430216623062  0.6204760763061888  1.0000
  H   H131      1.0  0.3588923765886963  0.8957204753526864  0.5334515800271777  1.0000
  H   H132      1.0  0.27254343172699297  0.8004085711679473  0.06448016585150818  1.0000
  C   C199      1.0  0.3906709075231856  0.8039936012099412  0.3052011826886751  1.0000
  C   C200      1.0  0.35272461944966854  0.815182983379942  0.3215675860549371  1.0000
  C   C201      1.0  0.35541822666808887  0.8338922410019158  0.3526706967681051  1.0000
  C   C202      1.0  0.39597812765548646  0.8409710516565364  0.3675127292830999  1.0000
  C   C203      1.0  0.43363377885182486  0.8295101332621359  0.35118393027682937  1.0000
  C   C204      1.0  0.4310056986171245  0.8112860668482702  0.3200147146766555  1.0000
  H   H133      1.0  0.32152552149348346  0.8098254198890447  0.3099673140007382  1.0000
  H   H134      1.0  0.3263081435929033  0.8428400314423254  0.365179063095652  1.0000
  H   H135      1.0  0.46498952983467834  0.83483796582417  0.3625937015854507  1.0000
  H   H136      1.0  0.46037379564163317  0.8026912215429942  0.3074676255902969  1.0000
  C   C205      1.0  0.13152390672391687  0.7943928372116752  0.2543715370376162  1.0000
  C   C206      1.0  0.1439367513523109  0.7956280123244907  0.21853114356049  1.0000
  C   C207      1.0  0.11591213574916659  0.8083458874774767  0.19285805615601478  1.0000
  C   C208      1.0  0.07462661477512111  0.8188060724749213  0.20283848031154322  1.0000
  C   C209      1.0  0.061698024621805514  0.8170118966491102  0.2386296171836881  1.0000
  C   C210      1.0  0.09039928219150938  0.8052302598876204  0.2644846683727214  1.0000
  H   H137      1.0  0.17516349999303854  0.786610578364216  0.21062618758206045  1.0000
  H   H138      1.0  0.1259799335943288  0.8093998708199504  0.16522309195031581  1.0000
  H   H139      1.0  0.029959641781719837  0.825332845195029  0.24652551415948434  1.0000
  H   H140      1.0  0.08066415615861076  0.8042679920434023  0.2922134913104488  1.0000
  C   C211      1.0  0.29397300633483325  0.6316295078464624  0.28729204852266577  1.0000
  C   C212      1.0  0.311203790829646  0.6008918981397229  0.29032188039402945  1.0000
  C   C213      1.0  0.32321681647673306  0.5889426685833267  0.3237279664818959  1.0000
  C   C214      1.0  0.31788809587447725  0.6076455041263217  0.35421625885465424  1.0000
  C   C215      1.0  0.29845491634828886  0.6377248389142217  0.3515520985097931  1.0000
  C   C216      1.0  0.286627927225781  0.6497759143269539  0.3180148015829194  1.0000
  H   H141      1.0  0.31628805124140835  0.5866020621350211  0.2666568902911016  1.0000
  H   H142      1.0  0.3367029037599912  0.5652517219307257  0.32581277031980604  1.0000
  H   H143      1.0  0.2939755797727376  0.6521146306954435  0.3751945185600639  1.0000
  H   H144      1.0  0.2720735658623575  0.6730655705373768  0.3159434310515521  1.0000
  Fe  Fe73      1.0  0.3787462780339132  0.7831303003518921  0.7431833940284631  1.0000
  S   S145      1.0  0.4325052331740193  0.8188235775732392  0.7369544956405102  1.0000
  S   S146      1.0  0.3886762771039383  0.7299290214903636  0.7466904731015637  1.0000
  Fe  Fe74      1.0  0.3093921173002685  0.8341740490376148  0.7481900361169522  1.0000
  S   S147      1.0  0.3570790138480724  0.8743149851103157  0.7419776993573592  1.0000
  S   S148      1.0  0.2400666139559314  0.8479846879284381  0.758795123710295  1.0000
  Fe  Fe75      1.0  0.3872131746074653  0.8438243165490591  0.6997828470942383  1.0000
  S   S149      1.0  0.4160362668049617  0.8653556854782853  0.6503255758343772  1.0000
  Fe  Fe76      1.0  0.3978806241944609  0.8461349370719724  0.7794920646716701  1.0000
  S   S150      1.0  0.43446143300104584  0.8715878887914146  0.8223537150940204  1.0000
  S   S151      1.0  0.3356469879244727  0.805927844333604  0.7020384361164931  1.0000
  S   S152      1.0  0.3480133534118032  0.8081525844068556  0.7895300984666386  1.0000
  Fe  Fe77      1.0  0.02850800495454675  0.8385306764971246  0.5876457834642481  1.0000
  S   S153      1.0  0.03095764943294399  0.7850955900674406  0.5900046322315387  1.0000
  S   S154      1.0  0.05963095539307428  0.8682869312977856  0.5448032323462053  1.0000
  Fe  Fe78      1.0  0.9837973337958655  0.8440916256843537  0.6597084747783847  1.0000
  S   S155      1.0  0.9820845725845997  0.7911919692824061  0.6685867441125237  1.0000
  S   S156      1.0  0.9524499472150914  0.877328317849869  0.698699012551228  1.0000
  Fe  Fe79      1.0  0.050144175080338416  0.792821201603099  0.6472028125183205  1.0000
  S   S157      1.0  0.10527309647005412  0.7656151352809005  0.6716987988570247  1.0000
  Fe  Fe80      1.0  0.9628367772207136  0.788595209285224  0.6110051350653287  1.0000
  S   S158      1.0  0.9033244511898909  0.7640113415358831  0.5902556030173165  1.0000
  S   S159      1.0  0.05331819973642782  0.8460377518943547  0.6429190172748842  1.0000
  S   S160      1.0  0.9590336437119197  0.8416339063704468  0.6039757427062583  1.0000
  Fe  Fe81      1.0  0.8139143355098902  0.5993422559783376  0.5930024875700817  1.0000
  S   S161      1.0  0.7985580218651697  0.07241186726059512  0.6289423134605282  1.0000
  S   S162      1.0  0.8840029281088295  0.6143726040893963  0.5954862699009973  1.0000
  Fe  Fe82      1.0  0.7379773430948573  0.5879144431342336  0.11621168536158244  1.0000
  S   S163      1.0  0.7457469656751591  0.03661939516008683  0.025354068806447305  1.0000
  S   S164      1.0  0.7442711256474521  0.6114573686556325  0.062485223097190845  1.0000
  Fe  Fe83      1.0  0.7291917019159992  0.06611628061560726  0.6121968040393976  1.0000
  S   S165      1.0  0.6710334395027813  0.045804776804023506  0.6406311774533366  1.0000
  Fe  Fe84      1.0  0.797804836301285  0.006100782581324848  0.04893837386659339  1.0000
  S   S166      1.0  0.7860188712133336  0.9533995284353706  0.05140590268001577  1.0000
  S   S167      1.0  0.7559881975903342  0.6301332119533476  0.5821249394948873  1.0000
  S   S168      1.0  0.795631577340492  0.5865706227009695  0.15237983487348283  1.0000
  Fe  Fe85      1.0  0.5471642363674468  0.6364079906799247  0.859232647257415  1.0000
  S   S169      1.0  0.571042875090782  0.9742000062271645  0.8216674272778047  1.0000
  S   S170      1.0  0.5431766335964148  0.688765756339373  0.8464671285791094  1.0000
  Fe  Fe86      1.0  0.5670292384184166  0.5892867998678952  0.917689333743103  1.0000
  S   S171      1.0  0.6257032006010227  0.007787939076563832  0.8869716502341124  1.0000
  S   S172      1.0  0.5752688747411477  0.5774761028016815  0.9757147619255263  1.0000
  Fe  Fe87      1.0  0.6287425154205389  0.006492357369481727  0.8273189947784572  1.0000
  S   S173      1.0  0.6928823510352452  0.9996388486939853  0.8001233960615016  1.0000
  Fe  Fe88      1.0  0.5643808222274942  0.9800811991189282  0.8808234643542869  1.0000
  S   S174      1.0  0.546675634763  0.9383450717014831  0.9152490026123281  1.0000
  S   S175      1.0  0.6099752984751048  0.6156774264750734  0.8790826141928746  1.0000
  S   S176      1.0  0.5052356086742621  0.6131813725303564  0.9007906376598144  1.0000
  Fe  Fe89      1.0  0.31994699085716605  0.8876816937991009  0.9923961244357846  1.0000
  S   S177      1.0  0.339733502461468  0.9337807733109352  0.9670639043053357  1.0000
  S   S178      1.0  0.3381307821389015  0.8417740589006484  0.9663559325149075  1.0000
  Fe  Fe90      1.0  0.27008591734250526  0.9196188906855934  0.05135368651292227  1.0000
  S   S179      1.0  0.28577287096220144  0.9691349530704456  0.03217256104591559  1.0000
  S   S180      1.0  0.22785404888929012  0.907839933131508  0.0985364155522257  1.0000
  Fe  Fe91      1.0  0.271852475642728  0.9492067464978137  0.9778958165757503  1.0000
  S   S181      1.0  0.23020804419754298  0.9714007270484126  0.9359733004296177  1.0000
  Fe  Fe92      1.0  0.3525306836602861  0.9495865352861353  0.023108204993698145  1.0000
  S   S182      1.0  0.4119299243097901  0.9791019882537702  0.032882362732131964  1.0000
  S   S183      1.0  0.250371577521223  0.9013940928472219  0.9977027782367612  1.0000
  S   S184      1.0  0.33869786466271284  0.9017915782786584  0.04780361646704123  1.0000
  Fe  Fe93      1.0  0.0292202796239176  0.8905639888369705  0.8835604966722699  1.0000
  S   S185      1.0  0.9881039357611469  0.9296257792032968  0.9067619820922949  1.0000
  S   S186      1.0  0.07011789528403134  0.8938665315977177  0.8341830932394678  1.0000
  Fe  Fe94      1.0  0.011482768951922795  0.8447611784991312  0.9439414644830681  1.0000
  S   S187      1.0  0.9684084600653067  0.8788862446786329  0.9730298932153498  1.0000
  S   S188      1.0  0.030016606606554808  0.798310642184807  0.968603273530324  1.0000
  Fe  Fe95      1.0  0.9414717631726838  0.8898233710209608  0.9189655619223677  1.0000
  S   S189      1.0  0.8696308283766024  0.8948145515823939  0.9127509503915501  1.0000
  Fe  Fe96      1.0  0.018256008382258937  0.9152241536032756  0.9586258054250331  1.0000
  S   S190      1.0  0.045031877322906366  0.9475279403433925  0.00015061904201574272  1.0000
  S   S191      1.0  0.9797926198186394  0.8517440040000086  0.8909779228518835  1.0000
  S   S192      1.0  0.06416525152271046  0.8802129437129655  0.9343508021311298  1.0000
  C   C217      1.0  0.17787816517740884  0.9696347039422628  0.9540878477368017  1.0000
  C   C218      1.0  0.14162272141000423  0.9696394715361544  0.9318321909798417  1.0000
  C   C219      1.0  0.10043915360324696  0.9634551825740034  0.9461595965151842  1.0000
  C   C220      1.0  0.09541393000096221  0.9586209557621428  0.9828946327818655  1.0000
  C   C221      1.0  0.1311738414273076  0.9606387221145576  0.005401366553165365  1.0000
  C   C222      1.0  0.1724587139677621  0.965607014270288  0.9909034369792898  1.0000
  H   H145      1.0  0.1454273960161294  0.9734400335005853  0.9034929301156768  1.0000
  H   H146      1.0  0.07268428746093614  0.962149791702497  0.9286970527273679  1.0000
  H   H147      1.0  0.1273690529885847  0.9569965713668438  0.03381940385972748  1.0000
  H   H148      1.0  0.20010430153437456  0.9659347038650493  0.008342216560373927  1.0000
  C   C223      1.0  0.5122772980399544  0.9493524274403804  0.9502971018329623  1.0000
  C   C224      1.0  0.48509317056234186  0.9264145004768166  0.9658150504364208  1.0000
  C   C225      1.0  0.45462695444420015  0.9354023189121652  0.991713534277632  1.0000
  C   C226      1.0  0.4520495133338692  0.967253639277501  0.0026653412402162235  1.0000
  C   C227      1.0  0.48014829654731495  0.9900327491117366  0.987937798857973  1.0000
  C   C228      1.0  0.5102162907706473  0.9811109296711349  0.9616735178629008  1.0000
  H   H149      1.0  0.4868560192896153  0.9018396512698803  0.9571290294239778  1.0000
  H   H150      1.0  0.4329169513420217  0.9177293173767118  0.0030175439243460556  1.0000
  H   H151      1.0  0.47756737009046  0.014740335373787827  0.9959904081643202  1.0000
  H   H152      1.0  0.5315242567103879  0.9988193506456168  0.9500584296872842  1.0000
  C   C229      1.0  0.8102223695286113  0.9357333075269539  0.014058905500195173  1.0000
  C   C230      1.0  0.8532952358009018  0.9427246351181919  0.005186845073110513  1.0000
  C   C231      1.0  0.8721070909515226  0.9293141722067388  0.974605016688814  1.0000
  C   C232      1.0  0.8475999815386421  0.9093088258678709  0.9525961371174614  1.0000
  C   C233      1.0  0.8046357596208291  0.9021212287320731  0.9616447207972487  1.0000
  C   C234      1.0  0.7860933506573076  0.9150532330727053  0.9925778898615537  1.0000
  H   H153      1.0  0.8722580180274764  0.9582504130497311  0.022078542136897417  1.0000
  H   H154      1.0  0.9052552441865765  0.9350515871173343  0.9675988642795462  1.0000
  H   H155      1.0  0.7856874394849359  0.8866277230621742  0.9446502226281809  1.0000
  H   H156      1.0  0.7526995354355427  0.9097390428272145  0.9992384905270332  1.0000
  C   C235      1.0  0.6965211950501397  0.6045021294471038  0.03829655609582128  1.0000
  C   C236      1.0  0.6941902898104579  0.6121011715011572  0.0018916259218260123  1.0000
  C   C237      1.0  0.6567465179102658  0.6045098435631313  0.9822515410189174  1.0000
  C   C238      1.0  0.6217076059171233  0.589395079932359  0.9991388348806466  1.0000
  C   C239      1.0  0.6782822400181261  0.08219380739324933  0.8921181262515425  1.0000
  C   C240      1.0  0.7228649658205367  0.07829537445657575  0.8973277143718689  1.0000
  H   H157      1.0  0.7214306948565019  0.623500550995854  0.9888011229121709  1.0000
  H   H158      1.0  0.6551074461132539  0.6100698975897078  0.9541183738430316  1.0000
  H   H159      1.0  0.6643558362028329  0.07687921960347355  0.8663770843922177  1.0000
  H   H160      1.0  0.7429958898404633  0.07005118496834162  0.8755724406270449  1.0000
  C   C241      1.0  0.6783267377946954  0.03265041347617803  0.6846920262215718  1.0000
  C   C242      1.0  0.665262115241928  0.6237583926759129  0.7402510684876205  1.0000
  C   C243      1.0  0.6528443555090668  0.6052211184171483  0.7698041249009582  1.0000
  C   C244      1.0  0.6875684648935962  0.011729632574638993  0.7554909538777457  1.0000
  C   C245      1.0  0.7242913480103139  0.01918029185870207  0.7349970834297218  1.0000
  C   C246      1.0  0.7196590194666493  0.029875732905857877  0.6996459443766441  1.0000
  H   H161      1.0  0.6628342748426347  0.6494783242356369  0.7414172767616553  1.0000
  H   H162      1.0  0.6407583402192433  0.6166326012596975  0.7937108228468137  1.0000
  H   H163      1.0  0.756229785922114  0.017076086139495628  0.7465503994068261  1.0000
  H   H164      1.0  0.7480035910665687  0.03578106343257814  0.6839719449862222  1.0000
  C   C247      1.0  0.025987349076116883  0.8747684865196602  0.5078473109166435  1.0000
  C   C248      1.0  0.9854241738045754  0.8599613204908471  0.5055702435668611  1.0000
  C   C249      1.0  0.9580937438036564  0.8665493820162571  0.47663508557686984  1.0000
  C   C250      1.0  0.9865758375586452  0.7877005736849808  0.9962469513069449  1.0000
  C   C251      1.0  0.9941388778931955  0.7712837225706459  0.028107449802952322  1.0000
  C   C252      1.0  0.9600591079186381  0.766282772320957  0.05228463194431199  1.0000
  H   H165      1.0  0.9750918886191595  0.8433448572903357  0.5259955880467018  1.0000
  H   H166      1.0  0.9266242701528014  0.8551932828050206  0.4751102046417096  1.0000
  H   H167      1.0  0.02649690230931956  0.7633135777491762  0.034617098002715396  1.0000
  H   H168      1.0  0.9661689524242554  0.7540564144264347  0.07711587494396266  1.0000
  C   C253      1.0  0.985311015664338  0.8847142358366071  0.7357785579137425  1.0000
  C   C254      1.0  0.9661919050858728  0.8894285007619469  0.7692438766600092  1.0000
  C   C255      1.0  0.9922026328391857  0.8932634507113792  0.7995249669340694  1.0000
  C   C256      1.0  0.037356131596543385  0.8928207225098812  0.7962212054806658  1.0000
  C   C257      1.0  0.056474756159370365  0.8893434251647206  0.7626047113802636  1.0000
  C   C258      1.0  0.030476585602607686  0.885079392324903  0.7324139861207558  1.0000
  H   H169      1.0  0.9312408725194479  0.8893853402287544  0.7718804231644211  1.0000
  H   H170      1.0  0.9772297088326591  0.8962477337465706  0.8254182208493545  1.0000
  H   H171      1.0  0.09136522706993233  0.8895210255325084  0.7599700906246443  1.0000
  H   H172      1.0  0.04542079308953362  0.8823242759125826  0.7065741219066043  1.0000
  C   C259      1.0  0.892171812455131  0.6556099378528634  0.5905381839891556  1.0000
  C   C260      1.0  0.8606409381654506  0.6744166005297567  0.5741996726105343  1.0000
  C   C261      1.0  0.8651150305151467  0.7076654376112775  0.5735581041424981  1.0000
  C   C262      1.0  0.901382009385109  0.7222590859328223  0.588863782536638  1.0000
  C   C263      1.0  0.93397309943942  0.7034423774180957  0.6039540025070058  1.0000
  C   C264      1.0  0.9294069521975862  0.6700318724567035  0.6046511688039407  1.0000
  H   H173      1.0  0.8326026688897771  0.663455935001222  0.5621958720768324  1.0000
  H   H174      1.0  0.8401546481625194  0.7221978620109141  0.5614548053030154  1.0000
  H   H175      1.0  0.9622027350600156  0.7146645000279803  0.6155820091453328  1.0000
  H   H176      1.0  0.954123506649393  0.6554901268011464  0.6170355285392992  1.0000
  C   C265      1.0  0.37512806584907643  0.877740722700947  0.6211343762221034  1.0000
  C   C266      1.0  0.33294499640232406  0.8823387165493254  0.6338110963087499  1.0000
  C   C267      1.0  0.2190203426615691  0.8529659856142997  0.1373931752543427  1.0000
  C   C268      1.0  0.23174840696640853  0.8666126975279138  0.10497107168685993  1.0000
  C   C269      1.0  0.2501330711301428  0.8474431429972483  0.07844702492887534  1.0000
  C   C270      1.0  0.38460519350175665  0.8830196652735771  0.5850348882576046  1.0000
  H   H177      1.0  0.3254916521335475  0.8783962203948847  0.6616747997399323  1.0000
  H   H178      1.0  0.2050630324461724  0.867578992142549  0.15810713962878253  1.0000
  H   H179      1.0  0.26021183735879044  0.8576386298712281  0.053374511817111614  1.0000
  H   H180      1.0  0.41722124576546843  0.8793662782574972  0.5751907196858416  1.0000
  C   C271      1.0  0.4069832840106663  0.866315323930412  0.8627062900624676  1.0000
  C   C272      1.0  0.42944003778974793  0.8680800414487324  0.8949837117115182  1.0000
  C   C273      1.0  0.40796574824066284  0.8612290628393292  0.9270987226020827  1.0000
  C   C274      1.0  0.3643081140303418  0.8522540101529178  0.9267581871914041  1.0000
  C   C275      1.0  0.34159936008531877  0.8513460322764738  0.8946072170538465  1.0000
  C   C276      1.0  0.3628160019321378  0.858819867467724  0.8626368392338972  1.0000
  H   H181      1.0  0.4636783029808109  0.8738836437629803  0.8951189505210626  1.0000
  H   H182      1.0  0.4253790956337298  0.862181217685438  0.9520872868420998  1.0000
  H   H183      1.0  0.30777350543601345  0.8445946543020185  0.8944430203049034  1.0000
  H   H184      1.0  0.34505998759277223  0.858640304271223  0.8379014659095596  1.0000
  C   C277      1.0  0.2029738801829713  0.825069521174293  0.7343995001137942  1.0000
  C   C278      1.0  0.21415390306771018  0.7947799076054548  0.7218271362593225  1.0000
  C   C279      1.0  0.18372103735651168  0.776500903004072  0.7030041043353875  1.0000
  C   C280      1.0  0.1423121397771212  0.788658065517799  0.6961782993239674  1.0000
  C   C281      1.0  0.13113277060124928  0.8189521853168237  0.7088844309155842  1.0000
  C   C282      1.0  0.1613883109341323  0.8370550883529188  0.7280681102490297  1.0000
  H   H185      1.0  0.24605261355483207  0.7851986466943439  0.7270333335538368  1.0000
  H   H186      1.0  0.19248214185166868  0.7530074550374142  0.6934247227820455  1.0000
  H   H187      1.0  0.09906664733152049  0.8283312408407647  0.7044866645153623  1.0000
  H   H188      1.0  0.15274993380341237  0.860497372419087  0.7377489884182316  1.0000
  C   C283      1.0  0.4313038737325266  0.718511371900013  0.7747218987523217  1.0000
  C   C284      1.0  0.43331651791665615  0.687137609148074  0.7876941280806872  1.0000
  C   C285      1.0  0.46720359644337967  0.6778191830048244  0.8103639627279893  1.0000
  C   C286      1.0  0.49937626369820726  0.6998181463930097  0.8196373785540731  1.0000
  C   C287      1.0  0.49760623930699893  0.7310098990789591  0.806346290280562  1.0000
  C   C288      1.0  0.46347606235613165  0.740402829246823  0.7841567265831458  1.0000
  H   H189      1.0  0.40835796873115154  0.6701403326667857  0.7805237407290073  1.0000
  H   H190      1.0  0.46838788189492697  0.6536726953361928  0.820631670698654  1.0000
  H   H191      1.0  0.5228006308830384  0.747953011438262  0.8131333963903458  1.0000
  H   H192      1.0  0.462407820222311  0.7645102684414796  0.7740868579485186  1.0000
  N   N1        1.0  0.37096182430930097  0.8366538490943711  0.15632313020427846  1.0000
  C   C289      1.0  0.33346593685114334  0.8582597868151212  0.1523198368183758  1.0000
  C   C290      1.0  0.3580493189445361  0.8038405134319356  0.14647512744628166  1.0000
  C   C291      1.0  0.385712745251774  0.8370049010406719  0.19380621644592844  1.0000
  C   C292      1.0  0.4064710153481922  0.8474807809232999  0.13263226269539308  1.0000
  H   H193      1.0  0.3057720398780021  0.8505008748405987  0.16937158952111875  1.0000
  H   H194      1.0  0.32180353003696827  0.8587806926536653  0.12426707786270264  1.0000
  H   H195      1.0  0.34176835360709157  0.8832334646426938  0.159773944865653  1.0000
  H   H196      1.0  0.3459938811767384  0.8026182040218087  0.11852434016339797  1.0000
  H   H197      1.0  0.385458206139351  0.7867706568845854  0.14901044035755184  1.0000
  H   H198      1.0  0.3314678588853969  0.7948686075208642  0.16391589718023614  1.0000
  H   H199      1.0  0.4133490290519305  0.820367898874505  0.19811703398314973  1.0000
  H   H200      1.0  0.35940045070013193  0.8293471697637547  0.21237940877254435  1.0000
  H   H201      1.0  0.39632994711374414  0.8612592464817315  0.2021559270713329  1.0000
  H   H202      1.0  0.416808259985863  0.872285948119111  0.1391132664216952  1.0000
  H   H203      1.0  0.39622888110731885  0.8473440830991104  0.10414077828533541  1.0000
  H   H204      1.0  0.43537723780654  0.8317615226247645  0.13502055433983928  1.0000
  N   N2        1.0  0.13478599896421062  0.372569947303709  0.6095824978020671  1.0000
  C   C293      1.0  0.10037508071263757  0.3748023321919703  0.5823569702981836  1.0000
  C   C294      1.0  0.16330020144209056  0.34528259572438735  0.6012428989143621  1.0000
  C   C295      1.0  0.11501681044352141  0.3677462433827909  0.6451074379003808  1.0000
  C   C296      1.0  0.16048454154598413  0.4023678961868191  0.6095270979685056  1.0000
  H   H205      1.0  0.07773072471451847  0.3948225760049777  0.5880924730006996  1.0000
  H   H206      1.0  0.08075021679792327  0.3524888143761054  0.5812657672375283  1.0000
  H   H207      1.0  0.11416194514314082  0.3790009454498109  0.5552857719246866  1.0000
  H   H208      1.0  0.18987310773097743  0.34271184140914956  0.6210440552507612  1.0000
  H   H209      1.0  0.14510480696730776  0.32230418464330857  0.6012242282235035  1.0000
  H   H210      1.0  0.1784432813992327  0.3480599479746126  0.5745007466309073  1.0000
  H   H211      1.0  0.1400358700861184  0.3654923752635353  0.6662795163095382  1.0000
  H   H212      1.0  0.09542682138755576  0.34549842447202656  0.6458026057600024  1.0000
  H   H213      1.0  0.09286773568109274  0.3877095551568136  0.6522584790372064  1.0000
  H   H214      1.0  0.18599998185554223  0.4019384347351699  0.6303905694695788  1.0000
  H   H215      1.0  0.13961664803705887  0.42363459610286963  0.6141799235057562  1.0000
  H   H216      1.0  0.17696388798139195  0.40608032385479614  0.5834267828920571  1.0000
  N   N3        1.0  0.23039611571167695  0.7793383215329012  0.3818408871163869  1.0000
  C   C297      1.0  0.211503348395097  0.7904029923554851  0.41589220308247193  1.0000
  C   C298      1.0  0.22972946249635218  0.8056887413564363  0.35557088255611136  1.0000
  C   C299      1.0  0.20447678439597183  0.7522518537893234  0.368296907584331  1.0000
  C   C300      1.0  0.27568428620286123  0.7691276813300111  0.3876303512144488  1.0000
  H   H217      1.0  0.21155490477745298  0.7712238998006306  0.43642881331407546  1.0000
  H   H218      1.0  0.1773595225301574  0.7984396695288873  0.4122654522330629  1.0000
  H   H219      1.0  0.22973773289108768  0.8111451097890614  0.4267031878459007  1.0000
  H   H220      1.0  0.24837193925918943  0.82675260595993  0.3650660954252486  1.0000
  H   H221      1.0  0.24357929061158234  0.7982166270615548  0.3294851466819653  1.0000
  H   H222      1.0  0.1959913385794243  0.8139405447628447  0.35039777931296656  1.0000
  H   H223      1.0  0.21718470489577246  0.7434407391663816  0.3423826964119936  1.0000
  H   H224      1.0  0.17021554441263098  0.7594468754435052  0.3634283424435875  1.0000
  H   H225      1.0  0.20422045816554224  0.7318369104474748  0.38729597516219116  1.0000
  H   H226      1.0  0.2910467835435462  0.7610769166354429  0.3623063995620602  1.0000
  H   H227      1.0  0.2775406215819427  0.7490302471466622  0.40700968219159317  1.0000
  H   H228      1.0  0.2958523805608131  0.7890835587053194  0.39816151076223216  1.0000
  N   N4        1.0  0.8465256218111822  0.6736139268644097  0.10734303570435068  1.0000
  C   C301      1.0  0.8325115014418085  0.6885558034391247  0.07353981119912212  1.0000
  C   C302      1.0  0.8824244128630337  0.6923890475322235  0.12286657242734894  1.0000
  C   C303      1.0  0.8614329177525479  0.6406958489210857  0.10032539373085565  1.0000
  C   C304      1.0  0.809639285392165  0.6728001707139011  0.13260814149127137  1.0000
  H   H229      1.0  0.8057184076683183  0.6747169473966297  0.06093424196744567  1.0000
  H   H230      1.0  0.8596943429696958  0.6901011480492074  0.054004493211453834  1.0000
  H   H231      1.0  0.8206965257561593  0.7133573624815629  0.07792166449933458  1.0000
  H   H232      1.0  0.8931943803966174  0.6823158029616213  0.1489169728382308  1.0000
  H   H233      1.0  0.9110695641244959  0.6931948836505613  0.10475480497863597  1.0000
  H   H234      1.0  0.8725192211626104  0.7175003194228344  0.1276114583440874  1.0000
  H   H235      1.0  0.88908085332545  0.6403946182684335  0.08119545726647721  1.0000
  H   H236      1.0  0.8350097621435761  0.6258451709269574  0.08869455490899349  1.0000
  H   H237      1.0  0.8723398972991395  0.6287634128221989  0.12530259474170136  1.0000
  H   H238      1.0  0.8188678878271588  0.661338723332555  0.15825444039272907  1.0000
  H   H239      1.0  0.7817715726793204  0.6590581086464848  0.1215526075626334  1.0000
  H   H240      1.0  0.797967100187442  0.6972671184815707  0.1389689290769225  1.0000
  N   N5        1.0  0.019780028431868768  0.3252578058411987  0.07763128335141922  1.0000
  C   C305      1.0  0.005308698887674934  0.32104378492572005  0.040418108707251266  1.0000
  C   C306      1.0  0.008551092917219227  0.3577066504549452  0.08999505614993912  1.0000
  C   C307      1.0  0.06721916424055885  0.32067700372901603  0.07965147965057873  1.0000
  C   C308      1.0  0.9978170011264754  0.3015089484497208  0.1005436411035252  1.0000
  H   H241      1.0  0.012263048879632032  0.2965551780157787  0.030553139240456998  1.0000
  H   H242      1.0  0.021896269963533666  0.3381160930297469  0.022220319450661608  1.0000
  H   H243      1.0  0.9698413103446467  0.32511857665471106  0.03779669366764837  1.0000
  H   H244      1.0  0.02448476929217258  0.3763476015561654  0.07327283018590047  1.0000
  H   H245      1.0  0.9729615928061536  0.361895955930101  0.08875498106855985  1.0000
  H   H246      1.0  0.018913931140698947  0.36160124883510203  0.11803229555985223  1.0000
  H   H247      1.0  0.08481541555370797  0.3383672490384517  0.06266321931506824  1.0000
  H   H248      1.0  0.07672357340235547  0.296332861022353  0.07067757425957488  1.0000
  H   H249      1.0  0.07914437744770075  0.3233211831589875  0.10747913728326113  1.0000
  H   H250      1.0  0.9621327057774939  0.30440748502663706  0.09964932572986909  1.0000
  H   H251      1.0  0.007970323701107729  0.3039476108481306  0.12881307019636717  1.0000
  H   H252      1.0  0.005457784959970846  0.2766778061129117  0.09208685890781985  1.0000
  N   N6        1.0  0.42609859051987203  0.7599339352803552  0.8944443975453766  1.0000
  C   C309      1.0  0.40040713216923474  0.7723802773835402  0.9247200668624438  1.0000
  C   C310      1.0  0.43783026652476603  0.7865449622742169  0.8703164093423629  1.0000
  C   C311      1.0  0.4000847770765053  0.7361801466293024  0.8747141429273514  1.0000
  C   C312      1.0  0.4660239403370722  0.7446907370213198  0.9079641318609156  1.0000
  H   H253      1.0  0.3914045211432345  0.7530913455065202  0.9438201503430621  1.0000
  H   H254      1.0  0.3697898796398564  0.7837185393594855  0.9154929203138823  1.0000
  H   H255      1.0  0.4186393915340107  0.7908704260321182  0.9398631611745332  1.0000
  H   H256      1.0  0.45734796189955895  0.8050245595266852  0.8842793980291737  1.0000
  H   H257      1.0  0.4573978080494548  0.7782102278634846  0.8472552059513727  1.0000
  H   H258      1.0  0.40852221195205446  0.7983889088209621  0.8593265270094274  1.0000
  H   H259      1.0  0.39025569328391657  0.7158611915493049  0.8921372709541294  1.0000
  H   H260      1.0  0.4186878510210948  0.7260377362962576  0.8520016760827889  1.0000
  H   H261      1.0  0.3701507761319562  0.7470223648102589  0.8634572814198971  1.0000
  H   H262      1.0  0.45852258385702216  0.724147665651143  0.9258475696288225  1.0000
  H   H263      1.0  0.48630437904042434  0.7618919075894737  0.9231922353644043  1.0000
  H   H264      1.0  0.48642899884216567  0.7353378452381164  0.8857736421045149  1.0000
  N   N7        1.0  0.7974590209548496  0.047033272906025436  0.42759061077734994  1.0000
  C   C313      1.0  0.7953124341439978  0.06356392774586661  0.4623249221776808  1.0000
  C   C314      1.0  0.7555318199028931  0.050488703184891515  0.40898943152425765  1.0000
  C   C315      1.0  0.8066304049352473  0.01280747395384041  0.43353551966366427  1.0000
  C   C316      1.0  0.832389154246158  0.06129110377980118  0.40563246123951635  1.0000
  H   H265      1.0  0.78975135403949  0.08966071904962458  0.4589390738796312  1.0000
  H   H266      1.0  0.8258371586230079  0.06064248312126752  0.4776413502352387  1.0000
  H   H267      1.0  0.7684005759898672  0.054150643720524805  0.4791596992501913  1.0000
  H   H268      1.0  0.756324628986885  0.03930735055412149  0.3821094562604387  1.0000
  H   H269      1.0  0.7287375600312191  0.03892695222292897  0.42423404676403337  1.0000
  H   H270      1.0  0.7465842661339573  0.07608504339531041  0.40563128521741115  1.0000
  H   H271      1.0  0.83832523765935  0.009423910114880085  0.4471219927981157  1.0000
  H   H272      1.0  0.808015760946469  0.9994518041735827  0.40792166601045776  1.0000
  H   H273      1.0  0.7813183737281708  0.0014649023128943117  0.450627213614614  1.0000
  H   H274      1.0  0.8642861795964094  0.05966279798575136  0.4192646380139457  1.0000
  H   H275      1.0  0.8262545058159473  0.08703219761863656  0.40027653767067173  1.0000
  H   H276      1.0  0.8358148868214433  0.04890600915792098  0.3795401163169847  1.0000
  N   N8        1.0  0.8897913085709224  0.8414972144115231  0.3310797771170336  1.0000
  C   C317      1.0  0.8707310848266329  0.8217366421801011  0.3025064908195548  1.0000
  C   C318      1.0  0.935214444797823  0.849377050120987  0.32186747683106565  1.0000
  C   C319      1.0  0.8886630659824017  0.823552961385009  0.36507144685524756  1.0000
  C   C320      1.0  0.864575798409532  0.8713102447087339  0.33483442567293265  1.0000
  H   H277      1.0  0.888429491952587  0.7987651122339771  0.29924470921481544  1.0000
  H   H278      1.0  0.8718775578604404  0.8343502121929186  0.2764097033685244  1.0000
  H   H279      1.0  0.8361133262171138  0.8159875887555049  0.3080118718339713  1.0000
  H   H280      1.0  0.9508135369935103  0.8637225775600732  0.3433212439824236  1.0000
  H   H281      1.0  0.9550297490766458  0.8274349458297335  0.3181086710930221  1.0000
  H   H282      1.0  0.9371919740513305  0.8635148607311548  0.2967192417923983  1.0000
  H   H283      1.0  0.9027876636167702  0.8377882045583311  0.3872584840332122  1.0000
  H   H284      1.0  0.907601355910069  0.8010114449750098  0.36321333868201416  1.0000
  H   H285      1.0  0.8548982065946911  0.8172308373489774  0.37288927725094284  1.0000
  H   H286      1.0  0.878255599075019  0.8869552744534613  0.35596650798674917  1.0000
  H   H287      1.0  0.8301877523196421  0.866340064503623  0.3419456125300512  1.0000
  H   H288      1.0  0.8645689667196765  0.8853591081746774  0.30963387992397007  1.0000
  N   N9        1.0  0.7938945787356415  0.048231410481939234  0.22101561363392155  1.0000
  C   C321      1.0  0.7690457136780458  0.07301263279519653  0.2018728280524894  1.0000
  C   C322      1.0  0.8407001342693942  0.05250317435597673  0.21374296728496606  1.0000
  C   C323      1.0  0.7800376544785341  0.01626633570146918  0.20883243747526634  1.0000
  C   C324      1.0  0.7856213918945426  0.05110809054017728  0.25973063038447664  1.0000
  H   H289      1.0  0.778533980557254  0.09741627770473633  0.21054079735640993  1.0000
  H   H290      1.0  0.7336863978875248  0.0704495207540332  0.20701592188770565  1.0000
  H   H291      1.0  0.7740995261303457  0.07151925433412831  0.1724999443082094  1.0000
  H   H292      1.0  0.8480872151184357  0.05021866031560095  0.18477768739032321  1.0000
  H   H293      1.0  0.852361432246865  0.0764012412921693  0.22252775895080412  1.0000
  H   H294      1.0  0.8604102332152379  0.03426122365990314  0.22802773795301787  1.0000
  H   H295      1.0  0.7996483766066923  0.9971315584910797  0.2215736565123845  1.0000
  H   H296      1.0  0.783643030434127  0.013698740772500217  0.17943884459050344  1.0000
  H   H297      1.0  0.7454377018018243  0.011540441054796789  0.21571439165245246  1.0000
  H   H298      1.0  0.8034979201304573  0.032531891465812805  0.2749852792009572  1.0000
  H   H299      1.0  0.75049147353069  0.04808784818650058  0.2660055636595458  1.0000
  H   H300      1.0  0.7960449869957499  0.07481671949575319  0.2699695580616598  1.0000
  N   N10       1.0  0.9272743409923822  0.9384415663806873  0.589985188599336  1.0000
  C   C325      1.0  0.9471363279500863  0.9181716913235263  0.5621435842762402  1.0000
  C   C326      1.0  0.9482694261922208  0.9701914193251986  0.5896328227707507  1.0000
  C   C327      1.0  0.9332018725320758  0.9235660323445501  0.6254109840134767  1.0000
  C   C328      1.0  0.8804192870601094  0.9418592087236453  0.5828343705921735  1.0000
  H   H301      1.0  0.9306080557704721  0.8946220847587563  0.5602989977124966  1.0000
  H   H302      1.0  0.9820814162935741  0.9136274244453095  0.567563726436437  1.0000
  H   H303      1.0  0.9450019857985711  0.9294563698143106  0.5352768144228679  1.0000
  H   H304      1.0  0.9329465977715372  0.986596755262558  0.6093192382647801  1.0000
  H   H305      1.0  0.9833849624188932  0.9684605421397938  0.5959940260710893  1.0000
  H   H306      1.0  0.9453749763058455  0.9818472904741126  0.5630781970286702  1.0000
  H   H307      1.0  0.9162421191177496  0.9001573513788672  0.6273632586879001  1.0000
  H   H308      1.0  0.9199655257376897  0.9388156040721946  0.6471477192603684  1.0000
  H   H309      1.0  0.9680410869290039  0.9192723402359094  0.6313891819540597  1.0000
  H   H310      1.0  0.8646679421647205  0.9581674279732686  0.602401170910147  1.0000
  H   H311      1.0  0.8633607271273085  0.9184526763014064  0.5842433467315062  1.0000
  H   H312      1.0  0.8745539026839048  0.951982696388445  0.5558575561960443  1.0000
  N   N11       1.0  0.4245037753807682  0.6682610804593256  0.2851062913180231  1.0000
  C   C329      1.0  0.3906948249174696  0.6926818256436701  0.27944702390174936  1.0000
  C   C330      1.0  0.4676820972649111  0.6833880981579694  0.282048047576004  1.0000
  C   C331      1.0  0.42025449421248184  0.642924743732908  0.2579202211429223  1.0000
  C   C332      1.0  0.41937372505139  0.6540588574605726  0.3209895688174278  1.0000
  H   H313      1.0  0.3576696506882516  0.6820498596207738  0.2807167811471871  1.0000
  H   H314      1.0  0.3942174075493123  0.7042727299238385  0.2528811906935535  1.0000
  H   H315      1.0  0.39240052566838457  0.7119442208441311  0.2998183877904452  1.0000
  H   H316      1.0  0.4725286570813527  0.6943682834850432  0.2552727295484845  1.0000
  H   H317      1.0  0.471963823018563  0.7025196140572765  0.30230077630510593  1.0000
  H   H318      1.0  0.4940538188827212  0.6656572636148297  0.2860008150625975  1.0000
  H   H319      1.0  0.38782208725369155  0.6312162658520474  0.25932799335601736  1.0000
  H   H320      1.0  0.44519549957330984  0.6239659067935271  0.26162383712221726  1.0000
  H   H321      1.0  0.42398286163675153  0.6526723080211484  0.23045351664434424  1.0000
  H   H322      1.0  0.44440821178799195  0.635520451919174  0.3260869104669466  1.0000
  H   H323      1.0  0.38723814632553616  0.6423186864635805  0.32401827525022936  1.0000
  H   H324      1.0  0.42219488475389  0.6723532053384476  0.34231404857070846  1.0000
  N   N12       1.0  0.4063622237289793  0.9677285353631822  0.8747056270296827  1.0000
  C   C333      1.0  0.44660533524552964  0.9505570764914162  0.8652835011823903  1.0000
  C   C334      1.0  0.3694700255852465  0.9451867450629331  0.8740205689831821  1.0000
  C   C335      1.0  0.398864605906757  0.9937363315376182  0.848784071056761  1.0000
  C   C336      1.0  0.4105228594349024  0.9813680217486177  0.9108390064029738  1.0000
  H   H325      1.0  0.47501119468138003  0.966768896062992  0.8643810450568619  1.0000
  H   H326      1.0  0.44419106991014656  0.9389096891615938  0.8387714311694855  1.0000
  H   H327      1.0  0.4542902223777984  0.9316728100725841  0.8851661838539354  1.0000
  H   H328      1.0  0.3385025885042714  0.9572060309067152  0.881271927144435  1.0000
  H   H329      1.0  0.3656574770943103  0.9341965968360022  0.8472014814682834  1.0000
  H   H330      1.0  0.37436904867612525  0.9253494083787286  0.8933801279944219  1.0000
  H   H331      1.0  0.39719904501557  0.9845272179124055  0.8209986521669778  1.0000
  H   H332      1.0  0.4255649362515995  0.011646356876450879  0.849487827676492  1.0000
  H   H333      1.0  0.36813593156366886  0.006648174958144847  0.85452401856433  1.0000
  H   H334      1.0  0.3806568727030313  0.9942977008172708  0.9191254182804425  1.0000
  H   H335      1.0  0.43818764923978754  0.9983602125718246  0.9124871373822062  1.0000
  H   H336      1.0  0.4164257766013132  0.9623657221815077  0.9309371670411046  1.0000
  N   N13       1.0  0.2916403905364443  0.5111451463597833  0.4459997528520822  1.0000
  C   C337      1.0  0.30825444883677605  0.5398574832346382  0.46434603665213914  1.0000
  C   C338      1.0  0.31862743431537965  0.48330166338569797  0.45551997133066163  1.0000
  C   C339      1.0  0.2934125939727414  0.5162718627384767  0.40697570146518935  1.0000
  C   C340      1.0  0.24629554251112998  0.5051208374033086  0.45711366179457497  1.0000
  H   H337      1.0  0.28912384960379367  0.5614740153154866  0.457221152487553  1.0000
  H   H338      1.0  0.342446167721975  0.54502869306935  0.4566193330213005  1.0000
  H   H339      1.0  0.30722873923605715  0.5369827834956078  0.49383613390863756  1.0000
  H   H340      1.0  0.3070604716527694  0.46131374693145727  0.44201791954024133  1.0000
  H   H341      1.0  0.35308037276960086  0.4868639824828364  0.4475362296601415  1.0000
  H   H342      1.0  0.31811440961454  0.47847905235707483  0.4847352439770887  1.0000
  H   H343      1.0  0.2739404621500231  0.5374391811595388  0.39884017326980475  1.0000
  H   H344      1.0  0.2810483301295547  0.49515023279639725  0.3921798761041201  1.0000
  H   H345      1.0  0.3271889051034422  0.5208002167004663  0.397682875887507  1.0000
  H   H346      1.0  0.22507368096612276  0.5258225411905172  0.4507883940610749  1.0000
  H   H347      1.0  0.24377212021378727  0.5005071318319088  0.4863391836184812  1.0000
  H   H348      1.0  0.23253066517177087  0.4838451817764842  0.44342305216148376  1.0000
  N   N14       1.0  0.9150958820188991  0.26822245445258935  0.39245150592328143  1.0000
  C   C341      1.0  0.921407969402636  0.2338115605829988  0.3854999345217216  1.0000
  C   C342      1.0  0.8832308229874075  0.272394749560425  0.42159116738938057  1.0000
  C   C343      1.0  0.8989472309347349  0.28399987930156156  0.35979529059741744  1.0000
  C   C344      1.0  0.9569199174268278  0.28265405019626594  0.40290259638864284  1.0000
  H   H349      1.0  0.9455365386891975  0.22993986489810972  0.3637135149043291  1.0000
  H   H350      1.0  0.8905999827243488  0.2221227614713292  0.3773042590928074  1.0000
  H   H351      1.0  0.9335339057906348  0.22121592483249133  0.4096655349447356  1.0000
  H   H352      1.0  0.8776414846581955  0.29812929991972803  0.4273131971542469  1.0000
  H   H353      1.0  0.8513838071058689  0.26147918262171943  0.4149621309608333  1.0000
  H   H354      1.0  0.8947860154747039  0.2613711015395457  0.4469054514235457  1.0000
  H   H355      1.0  0.8967144584509514  0.3103797583814608  0.36326299655503486  1.0000
  H   H356      1.0  0.8662706160895441  0.2750562923204233  0.3522857412749882  1.0000
  H   H357      1.0  0.9208507208427281  0.2794984621895058  0.33674702420045477  1.0000
  H   H358      1.0  0.9691565783933441  0.2723098028589494  0.42832197499892016  1.0000
  H   H359      1.0  0.9538644773646536  0.3088865871391591  0.4071240292717447  1.0000
  H   H360      1.0  0.982224968716063  0.27878343365958  0.38218315772650396  1.0000
  N   N15       1.0  0.6805598701758758  0.5991534918394892  0.3219216778798441  1.0000
  C   C345      1.0  0.6979089609346685  0.5742218809024782  0.34586583314925906  1.0000
  C   C346      1.0  0.6361970180316568  0.6076620416895742  0.3333625304141771  1.0000
  C   C347      1.0  0.6795235847607155  0.5869391626973459  0.28497956995532947  1.0000
  C   C348      1.0  0.7086508921974219  0.6277577405462978  0.323415534814096  1.0000
  H   H361      1.0  0.731324464243604  0.5671666723491435  0.33783226604403677  1.0000
  H   H362      1.0  0.6773330620839272  0.5523508280657107  0.3453023729733435  1.0000
  H   H363      1.0  0.6993133450607452  0.5826966047562694  0.37397217218549367  1.0000
  H   H364      1.0  0.6355736707317438  0.6171731031955415  0.3610487544732379  1.0000
  H   H365      1.0  0.6218556105591345  0.626133805775001  0.31556732520597336  1.0000
  H   H366      1.0  0.6141728462381646  0.5865673030429505  0.33263133960169583  1.0000
  H   H367      1.0  0.6682299269568668  0.605565679245809  0.2659279685463489  1.0000
  H   H368      1.0  0.6574648756420062  0.5659930115762871  0.2822878661804013  1.0000
  H   H369      1.0  0.7123545551550549  0.5796140667973245  0.27584353502994974  1.0000
  H   H370      1.0  0.6968703645190015  0.6468061126517112  0.30506315474751344  1.0000
  H   H371      1.0  0.7424378715235446  0.6221317473078987  0.3149397174199011  1.0000
  H   H372      1.0  0.7099782449172686  0.6379087390416307  0.3507840286296372  1.0000
  N   N16       1.0  0.12249342294284116  0.9117269182233633  0.2167959361379542  1.0000
  C   C349      1.0  0.07829590245798168  0.9082141630486168  0.23170470762082915  1.0000
  C   C350      1.0  0.13782534358317777  0.9448216288733889  0.22214378509524954  1.0000
  C   C351      1.0  0.12179548495901393  0.9045633111221768  0.17819794377568288  1.0000
  C   C352      1.0  0.15202767801280492  0.8893461571878  0.2351587937152241  1.0000
  H   H373      1.0  0.06494666784805858  0.8839856254788362  0.22660011655578144  1.0000
  H   H374      1.0  0.05545105783359361  0.9257614267737965  0.21982693892070623  1.0000
  H   H375      1.0  0.0779431975680751  0.9119299775463381  0.26106966844037194  1.0000
  H   H376      1.0  0.13937630527022526  0.9508903129046236  0.2509483868058522  1.0000
  H   H377      1.0  0.170839320990247  0.9484593393804246  0.21076639976221298  1.0000
  H   H378      1.0  0.11572082613738055  0.9624138117688764  0.2093867307483785  1.0000
  H   H379      1.0  0.15386556898249126  0.9091654203941777  0.16545277346923515  1.0000
  H   H380      1.0  0.09745533788377814  0.9194488976739528  0.1640195348023084  1.0000
  H   H381      1.0  0.11332237306432047  0.8791198659876811  0.17329235388686343  1.0000
  H   H382      1.0  0.18553777667154225  0.8908605526839886  0.22424112327220164  1.0000
  H   H383      1.0  0.1409340668926471  0.8642057737773089  0.23224518807918687  1.0000
  H   H384      1.0  0.15356371190781237  0.8942953867329809  0.2643182444923917  1.0000
  N   N17       1.0  0.8178887796788274  0.6802523619246  0.6860819123652887  1.0000
  C   C353      1.0  0.8653612509240323  0.6843950771506262  0.6830610193456937  1.0000
  C   C354      1.0  0.7993182427455616  0.6768618026939298  0.6500715950524056  1.0000
  C   C355      1.0  0.7986933673749596  0.7084450100838827  0.7036817344881742  1.0000
  C   C356      1.0  0.8081082204185661  0.6512433704900148  0.7072101897288905  1.0000
  H   H385      1.0  0.8807126854878302  0.6633328482611818  0.6700454830233712  1.0000
  H   H386      1.0  0.8806639416080608  0.6874300858803218  0.7096468750187157  1.0000
  H   H387      1.0  0.8738170245656951  0.7057285625703179  0.6665714577160073  1.0000
  H   H388      1.0  0.8131563193187268  0.6557437291549782  0.6362165975696183  1.0000
  H   H389      1.0  0.7635078745917376  0.6736933273645007  0.6510998069830951  1.0000
  H   H390      1.0  0.8061686566811971  0.698214205619318  0.6332106736281786  1.0000
  H   H391      1.0  0.8118479470560974  0.7117451660076878  0.7310271426520409  1.0000
  H   H392      1.0  0.7628105765566785  0.7060150009178682  0.7060352686097894  1.0000
  H   H393      1.0  0.8055170256724835  0.7306941403510882  0.6882717710362576  1.0000
  H   H394      1.0  0.7724918754134591  0.6473345487992278  0.7098167968218856  1.0000
  H   H395      1.0  0.821671934000032  0.6528163228786602  0.7345988145268635  1.0000
  H   H396      1.0  0.8218204043858472  0.6295012919765361  0.6943891958392677  1.0000
  N   N18       1.0  0.20406110865881377  0.8930130001429394  0.8580730455356201  1.0000
  C   C357      1.0  0.17802228351899307  0.9224947483103639  0.8553932949020949  1.0000
  C   C358      1.0  0.17945712280456672  0.8660359619204716  0.8427448835756081  1.0000
  C   C359      1.0  0.21361515087977723  0.8864231065784609  0.8960099636330774  1.0000
  C   C360      1.0  0.24506546010052976  0.8972091414021972  0.8380961482064121  1.0000
  H   H397      1.0  0.1690863645895062  0.927836778413065  0.8272582805879329  1.0000
  H   H398      1.0  0.19596095207214903  0.943461763354128  0.8661286033428025  1.0000
  H   H399      1.0  0.14714057488909926  0.9203235956411948  0.870705369777989  1.0000
  H   H400      1.0  0.19873357847917994  0.8436025138649852  0.8430840491463889  1.0000
  H   H401      1.0  0.14876945125253815  0.8617505973854174  0.8577100984481323  1.0000
  H   H402      1.0  0.17063307417945084  0.870810992231538  0.8144165277566869  1.0000
  H   H403      1.0  0.23241988332101338  0.8639851938121998  0.8992893921479719  1.0000
  H   H404      1.0  0.1832914829516885  0.8840975245209878  0.9120199184472961  1.0000
  H   H405      1.0  0.2328424540278704  0.906113556334663  0.9081638446797676  1.0000
  H   H406      1.0  0.2388240404255102  0.9026991848825779  0.8094692365805789  1.0000
  H   H407      1.0  0.26500315420118126  0.8750891130054662  0.8387463786395136  1.0000
  H   H408      1.0  0.2648135645306098  0.9170266077965336  0.8492941494548878  1.0000
  N   N19       1.0  0.14117038943462687  0.9995529753551459  0.4198308692912299  1.0000
  C   C361      1.0  0.15990132570044607  0.009054306078472463  0.4544603834362213  1.0000
  C   C362      1.0  0.1221636660862584  0.9672287092379522  0.4229922001191888  1.0000
  C   C363      1.0  0.17561656549122107  0.9995092776373732  0.39229870609772244  1.0000
  C   C364      1.0  0.10692523683604914  0.022425286844712122  0.409479406148042  1.0000
  H   H409      1.0  0.18605382906467588  0.9923763194752262  0.46281439856167633  1.0000
  H   H410      1.0  0.13489659945518317  0.009184727326024156  0.4759275563797332  1.0000
  H   H411      1.0  0.174548618275716  0.0333390508143554  0.4530484433870775  1.0000
  H   H412      1.0  0.10682663686356174  0.9597737597025517  0.3976229774886631  1.0000
  H   H413      1.0  0.1470755396723368  0.948968549056831  0.42955570356198297  1.0000
  H   H414      1.0  0.0966717739690679  0.9661395137275592  0.44404121573525324  1.0000
  H   H415      1.0  0.16215344881608787  0.994336431722089  0.3654518659076051  1.0000
  H   H416      1.0  0.20085573439342683  0.9812331711220359  0.39802206364364545  1.0000
  H   H417      1.0  0.19252263762993702  0.02298083723717692  0.3906650960880634  1.0000
  H   H418      1.0  0.09241055296426537  0.015999155738094517  0.38323630383395035  1.0000
  H   H419      1.0  0.11992776107385626  0.047132454766096954  0.4069974440483496  1.0000
  H   H420      1.0  0.07999333546054775  0.02287518465947369  0.4293549187193543  1.0000
  N   N20       1.0  0.10025429900657135  0.35549288055266565  0.8717513974151643  1.0000
  C   C365      1.0  0.06479807740059407  0.3788961790343386  0.8759882419856598  1.0000
  C   C366      1.0  0.11366943662067364  0.343753683722778  0.9072308291980468  1.0000
  C   C367      1.0  0.1375950538411359  0.370967884265596  0.8538935698035465  1.0000
  C   C368      1.0  0.08493514741964403  0.32835679958244934  0.8499826197094451  1.0000
  H   H421      1.0  0.03632402343603092  0.36817760975117053  0.8898332429025642  1.0000
  H   H422      1.0  0.05318839251678309  0.3879717941084662  0.8497756788466769  1.0000
  H   H423      1.0  0.07515193609864901  0.3998938535523074  0.8919337854784316  1.0000
  H   H424      1.0  0.08613579971736884  0.3324516743859564  0.9218242618774118  1.0000
  H   H425      1.0  0.14026678804325043  0.3259064859341094  0.9051423213612181  1.0000
  H   H426      1.0  0.12579090274207871  0.36359853016976224  0.9240977536010481  1.0000
  H   H427      1.0  0.128734057991561  0.3799373515428225  0.826946181310761  1.0000
  H   H428      1.0  0.16526046762080737  0.3541275798518668  0.8507609402151117  1.0000
  H   H429      1.0  0.14969905079739765  0.3917138189228294  0.869541402629999  1.0000
  H   H430      1.0  0.11106067355056815  0.31048215768798737  0.8455694618085509  1.0000
  H   H431      1.0  0.07338121442756629  0.33641592885084276  0.8233371684733677  1.0000
  H   H432      1.0  0.05735501414927291  0.31578396615377824  0.863124448235053  1.0000
  N   N21       1.0  0.5162119568146418  0.1528584513286866  0.7869767040384243  1.0000
  C   C369      1.0  0.5349311652542741  0.17933863620698678  0.8079299201539165  1.0000
  C   C370      1.0  0.5364940927480397  0.1224433745610921  0.7978824844751424  1.0000
  C   C371      1.0  0.5244347972296015  0.1584975944594802  0.7486049527469684  1.0000
  C   C372      1.0  0.4689719165175142  0.15111612520683063  0.7934788121424621  1.0000
  H   H433      1.0  0.5201318650037691  0.20265212191457663  0.8004244716151161  1.0000
  H   H434      1.0  0.5705059920897105  0.18142233268237018  0.8034676098681092  1.0000
  H   H435      1.0  0.5294059812512188  0.17584379863793997  0.8370292105235482  1.0000
  H   H436      1.0  0.5223821270438247  0.10191922748996844  0.7831106984562367  1.0000
  H   H437      1.0  0.5720277692587951  0.12254474957449794  0.7925687564256945  1.0000
  H   H438      1.0  0.5317576302630375  0.11767063084347175  0.82687573905028  1.0000
  H   H439      1.0  0.5099117295099266  0.1393680982581008  0.7319428055495095  1.0000
  H   H440      1.0  0.5597244122416172  0.1592445035293081  0.7424637330082212  1.0000
  H   H441      1.0  0.5102481123051272  0.18155328129390264  0.7396073936699377  1.0000
  H   H442      1.0  0.4537987379074322  0.1314510714435421  0.7778692397503593  1.0000
  H   H443      1.0  0.45261003167388214  0.17376909954076009  0.7856628627206775  1.0000
  H   H444      1.0  0.4615508025649551  0.14679114883101935  0.8221365102699433  1.0000
  N   N22       1.0  0.87365218670059  0.42561972339600007  0.22746433725205528  1.0000
  C   C373      1.0  0.8465834518929853  0.4082476760092325  0.2537005832655692  1.0000
  C   C374      1.0  0.8720580416086334  0.4602214053633763  0.2350612940856387  1.0000
  C   C375      1.0  0.857012063457117  0.4196108623715434  0.1912064084293137  1.0000
  C   C376      1.0  0.9189491020805651  0.4143732512885471  0.22977215007193563  1.0000
  H   H445      1.0  0.8469410681974375  0.3820599946238554  0.248530738595518  1.0000
  H   H446      1.0  0.8122426951843282  0.4162724547010421  0.252620561937992  1.0000
  H   H447      1.0  0.8583680933783862  0.41213638790989765  0.2814294047819126  1.0000
  H   H448      1.0  0.8914393182490755  0.47412495531062676  0.21526208470202568  1.0000
  H   H449      1.0  0.8382805340563031  0.46948345068832953  0.23355239295153996  1.0000
  H   H450      1.0  0.8848289658723761  0.46563133396498  0.26213635628199317  1.0000
  H   H451      1.0  0.877150476904792  0.43203528655759316  0.17077678909273275  1.0000
  H   H452      1.0  0.8231928620658883  0.4284321188865629  0.18812642908295696  1.0000
  H   H453      1.0  0.8569918816709907  0.39367423447410216  0.18481652208827737  1.0000
  H   H454      1.0  0.9213534178357989  0.388409152823508  0.22354469277429723  1.0000
  H   H455      1.0  0.9324275621212302  0.4181478911203077  0.2569992688204661  1.0000
  H   H456      1.0  0.9402552747281269  0.4273030150783668  0.21056057499908065  1.0000
  N   N23       1.0  0.3954884543543134  0.10818238768861632  0.2599703157847765  1.0000
  C   C377      1.0  0.380356016074391  0.14129099288676117  0.25439556394692553  1.0000
  C   C378      1.0  0.4167855196668509  0.09643649727995096  0.22715810386367044  1.0000
  C   C379      1.0  0.35808703854346235  0.0874418986174601  0.2686925593191732  1.0000
  C   C380      1.0  0.42686488873606104  0.10744420695037826  0.2896525832118786  1.0000
  H   H457      1.0  0.3639670057740463  0.15087347181654565  0.27858630496520187  1.0000
  H   H458      1.0  0.35710623563290866  0.14295331350957863  0.23182285814897058  1.0000
  H   H459      1.0  0.40782631855546814  0.15756592695210303  0.24808925017825315  1.0000
  H   H460      1.0  0.42839759334625505  0.07140222768234894  0.23050920958577453  1.0000
  H   H461      1.0  0.3943062305361235  0.09690472729654331  0.20402587002142078  1.0000
  H   H462      1.0  0.4454714616114865  0.11129898287201945  0.22007199752347079  1.0000
  H   H463      1.0  0.36829082541691793  0.062141507080807123  0.272161269037011  1.0000
  H   H464      1.0  0.33335790578512153  0.08795256703747412  0.24715916371733113  1.0000
  H   H465      1.0  0.3420011721319743  0.09495369612779081  0.2939245864268606  1.0000
  H   H466      1.0  0.43958741430061415  0.08293372782359998  0.29389752967730726  1.0000
  H   H467      1.0  0.4119741430349267  0.11554529768371213  0.3151209759652525  1.0000
  H   H468      1.0  0.45526561271797095  0.1231476187572631  0.2842151253926884  1.0000
  N   N24       1.0  0.9173420408434859  0.1960139585915726  0.7452812901172589  1.0000
  C   C381      1.0  0.9158198119099582  0.1927775567790099  0.7845304348047191  1.0000
  C   C382      1.0  0.8997067013550522  0.2274847948662916  0.7349532704163971  1.0000
  C   C383      1.0  0.89117668613611  0.17045295463230187  0.7286890353536746  1.0000
  C   C384      1.0  0.9627699276799173  0.1934540676480148  0.7329713670186453  1.0000
  H   H469      1.0  0.8820186043181134  0.19456748208612237  0.794794909429097  1.0000
  H   H470      1.0  0.9352124595653772  0.21191833138204313  0.797697880979431  1.0000
  H   H471      1.0  0.9292138984575746  0.169428350671797  0.7933737435593752  1.0000
  H   H472      1.0  0.8654289682665864  0.23021380145205633  0.7437317934062851  1.0000
  H   H473      1.0  0.9187111406016749  0.24732745434992642  0.747112762550071  1.0000
  H   H474      1.0  0.9004350804617163  0.23080654903740305  0.7054959806237656  1.0000
  H   H475      1.0  0.8923807219430788  0.1719702490277938  0.6990655177784978  1.0000
  H   H476      1.0  0.8564323204413703  0.17201645785148398  0.7366023801295899  1.0000
  H   H477      1.0  0.903136630274949  0.14632510662435969  0.7362099483285218  1.0000
  H   H478      1.0  0.9769586765016148  0.16981082506781509  0.7396992097134754  1.0000
  H   H479      1.0  0.9835802151803256  0.21207988499894093  0.7453633418284288  1.0000
  H   H480      1.0  0.9653026987204228  0.19643179402967337  0.7035769062333219  1.0000
  N   N25       1.0  0.3983777863348841  0.25107799392736485  0.0675980835328227  1.0000
  C   C385      1.0  0.42703489910072057  0.2518737325776714  0.03594232171509604  1.0000
  C   C386      1.0  0.3536388458406881  0.24354797985983445  0.0563490316510824  1.0000
  C   C387      1.0  0.39922841004287396  0.28258388349664554  0.0852709729207829  1.0000
  C   C388      1.0  0.4135136748776797  0.22636611847147775  0.09281420356041932  1.0000
  H   H481      1.0  0.4269153744653204  0.228570153090005  0.02172891695731538  1.0000
  H   H482      1.0  0.4611079521218905  0.25739224228089586  0.04345521205012348  1.0000
  H   H483      1.0  0.416350237311806  0.2704714882223238  0.01653665825043693  1.0000
  H   H484      1.0  0.330698384887583  0.2440905271250553  0.07934265673858243  1.0000
  H   H485      1.0  0.3417290507360268  0.2610535252157985  0.03626979542122699  1.0000
  H   H486      1.0  0.3514416619590928  0.21948916395172546  0.04397740458568622  1.0000
  H   H487      1.0  0.37806642484452857  0.2829264328919999  0.10935263230329938  1.0000
  H   H488      1.0  0.3876675292100544  0.3017637661979142  0.06706666375593828  1.0000
  H   H489      1.0  0.4324602394447461  0.2891368132522458  0.09409842789598243  1.0000
  H   H490      1.0  0.3916930442877821  0.22461080502735598  0.11644141660887282  1.0000
  H   H491      1.0  0.4465656493548107  0.2317649639364143  0.10307347178609312  1.0000
  H   H492      1.0  0.414499879120661  0.2023400075740231  0.08026811572779247  1.0000
  N   N26       1.0  0.14100223641163914  0.20430564907951984  0.5913264024642811  1.0000
  C   C389      1.0  0.09894473129558733  0.20766771644789275  0.5729209359921388  1.0000
  C   C390      1.0  0.13346870344418282  0.19565941633607  0.6290765155959404  1.0000
  C   C391      1.0  0.16496225858627983  0.23484341665606906  0.5893705284672884  1.0000
  C   C392      1.0  0.1668395986068421  0.17900496696843715  0.573963958122412  1.0000
  H   H493      1.0  0.10332514747842712  0.21415072798735862  0.5443490931377586  1.0000
  H   H494      1.0  0.0786534613784835  0.22652993141244743  0.5854506469295275  1.0000
  H   H495      1.0  0.0797115906052932  0.185147925412323  0.5742281701167993  1.0000
  H   H496      1.0  0.11582404362613796  0.21484841015715053  0.6434803701524047  1.0000
  H   H497      1.0  0.1135972306747519  0.17353900720279317  0.6316128250404227  1.0000
  H   H498      1.0  0.1645509075566148  0.19154429734100686  0.6433121215550197  1.0000
  H   H499      1.0  0.19720461070977674  0.23290703865933243  0.6022234240944835  1.0000
  H   H500      1.0  0.14740263415905225  0.25442114243485164  0.603193360016099  1.0000
  H   H501      1.0  0.17054788496424256  0.2425233279204638  0.5612882782677001  1.0000
  H   H502      1.0  0.19878616620698067  0.17590833515966103  0.5873775383202324  1.0000
  H   H503      1.0  0.17342819560384962  0.18482951638746178  0.5454762788751873  1.0000
  H   H504      1.0  0.1497416608473514  0.15558818187305393  0.5750034401919308  1.0000
  N   N27       1.0  0.4756741427345259  0.9347804014104769  0.7177655215604901  1.0000
  C   C393      1.0  0.46090738694959876  0.9360460293925029  0.7552791998637028  1.0000
  C   C394      1.0  0.4933944668425119  0.9027363407299899  0.7101369386325764  1.0000
  C   C395      1.0  0.5096688893175784  0.9591889899573293  0.7118574102610967  1.0000
  C   C396      1.0  0.4386422436407454  0.9411203416982642  0.6938332431541407  1.0000
  H   H505      1.0  0.4470527098350244  0.959828551597964  0.7618608218141256  1.0000
  H   H506      1.0  0.4880912975380613  0.9314999011028086  0.7740943224030026  1.0000
  H   H507      1.0  0.4355542293235202  0.9177361024836304  0.7607856284083984  1.0000
  H   H508      1.0  0.5040158726815663  0.9006236626240155  0.6818175895370497  1.0000
  H   H509      1.0  0.5215864313505096  0.8971384230856275  0.7274888173567153  1.0000
  H   H510      1.0  0.4685387002550208  0.8838304202999928  0.7146106801225528  1.0000
  H   H511      1.0  0.49718167894850285  0.983658047473465  0.7172045386262912  1.0000
  H   H512      1.0  0.5218274883926559  0.958810012780347  0.6838791707393221  1.0000
  H   H513      1.0  0.5379233263038127  0.9554005581731188  0.7297882875242019  1.0000
  H   H514      1.0  0.44839183919762216  0.9395636160277978  0.6652516499215136  1.0000
  H   H515      1.0  0.42475190228243426  0.9652864767568157  0.6984309468935586  1.0000
  H   H516      1.0  0.4122111138573559  0.9233007516562087  0.6978063184926631  1.0000
  N   N28       1.0  0.32718508774476945  0.3208028056412396  0.7004791536069386  1.0000
  C   C397      1.0  0.3288192529272182  0.31343847633237987  0.6619107955605429  1.0000
  C   C398      1.0  0.36992605179029237  0.3145330898521205  0.7167407235031298  1.0000
  C   C399      1.0  0.29400744230173037  0.3006118335185199  0.7179778755853019  1.0000
  C   C400      1.0  0.3158139034750081  0.354751058955739  0.7055292529001967  1.0000
  H   H517      1.0  0.3355026993271946  0.28770127733393025  0.657140003208887  1.0000
  H   H518      1.0  0.3547004713159481  0.3272355528274984  0.6479859422898162  1.0000
  H   H519      1.0  0.29750562413317266  0.3189417538165137  0.6485945982183532  1.0000
  H   H520      1.0  0.3960020341667121  0.32898003461649716  0.7039969800011477  1.0000
  H   H521      1.0  0.36975748733575686  0.3200214723850093  0.7457893254442404  1.0000
  H   H522      1.0  0.3792460910691398  0.2890393087456256  0.7141153606999775  1.0000
  H   H523      1.0  0.3015862035567601  0.27473369306368867  0.7151744589371812  1.0000
  H   H524      1.0  0.26132715668829304  0.3047049493065283  0.7064845632352644  1.0000
  H   H525      1.0  0.2915092493319993  0.3057686482989227  0.7470037395202177  1.0000
  H   H526      1.0  0.31434625062052163  0.3609318391485217  0.7344255985225762  1.0000
  H   H527      1.0  0.2834923574641486  0.36020033231215176  0.6939142677759311  1.0000
  H   H528      1.0  0.3400742259502762  0.37075687601718965  0.6926228336775441  1.0000
  N   N29       1.0  0.7847781045375244  0.9812807306445104  0.8862460027231633  1.0000
  C   C401      1.0  0.8138914205681448  0.9822729840791357  0.917439244609565  1.0000
  C   C402      1.0  0.7403921936526962  0.9898846062593247  0.8975171235620756  1.0000
  C   C403      1.0  0.784557030176519  0.9487459512675659  0.8710059629953137  1.0000
  C   C404      1.0  0.8001158290363584  0.004283744826511836  0.8590229324043008  1.0000
  H   H529      1.0  0.8170327420844846  0.006910691154629722  0.9281510482720807  1.0000
  H   H530      1.0  0.8469518540094969  0.9735611327424727  0.9105670632902901  1.0000
  H   H531      1.0  0.8012879058578876  0.9671124633931564  0.9395017146084341  1.0000
  H   H532      1.0  0.7180020718219042  0.9905745147796278  0.8743121064054489  1.0000
  H   H533      1.0  0.727053628625699  0.9723977509777313  0.917068655639085  1.0000
  H   H534      1.0  0.7396420687855545  0.013830438605476168  0.9102695747766716  1.0000
  H   H535      1.0  0.7625793965462797  0.947212134493077  0.8475193343902918  1.0000
  H   H536      1.0  0.7735805118879715  0.9307271889071745  0.8909682281725871  1.0000
  H   H537      1.0  0.8175645781238932  0.9413875006000358  0.8621490736743286  1.0000
  H   H538      1.0  0.7785006613501136  0.004376143329602122  0.8352402949471107  1.0000
  H   H539      1.0  0.833405285239207  0.9983785512827671  0.8497043321156356  1.0000
  H   H540      1.0  0.800720801691002  0.029068908765399467  0.8697518768617911  1.0000
  N   N30       1.0  0.5421159395095255  0.6586788028087067  0.7140416074962623  1.0000
  C   C405      1.0  0.5216830694338445  0.6876478954375003  0.6990482835703031  1.0000
  C   C406      1.0  0.5675755932878035  0.6674438762634088  0.7458647599408246  1.0000
  C   C407      1.0  0.5711196204409085  0.6441198231254389  0.6871445343743411  1.0000
  C   C408      1.0  0.5080688483143585  0.6354923734530711  0.7242828364149675  1.0000
  H   H541      1.0  0.5022606486511035  0.682041567595207  0.67488173591331  1.0000
  H   H542      1.0  0.5464123404929312  0.7058215300184199  0.6913967000017918  1.0000
  H   H543      1.0  0.4993016468935637  0.6990184697090336  0.718696699896121  1.0000
  H   H544      1.0  0.5951511044500905  0.6834783274839952  0.7389608855343859  1.0000
  H   H545      1.0  0.5474151242945441  0.6801630391901271  0.7657610619355871  1.0000
  H   H546      1.0  0.5808265650795269  0.646014046362704  0.7595002654091909  1.0000
  H   H547      1.0  0.5866237667150729  0.6219932625553831  0.6975607389607871  1.0000
  H   H548      1.0  0.5978787546855034  0.6606351714035661  0.6792855474869859  1.0000
  H   H549      1.0  0.5532530298854733  0.6375903743616433  0.6624768214168476  1.0000
  H   H550      1.0  0.5223365727534983  0.6132890255696387  0.7356276779978574  1.0000
  H   H551      1.0  0.4878567220512814  0.6286001366320886  0.7009978515546078  1.0000
  H   H552      1.0  0.4859536666588111  0.64557945206682  0.7448602862842829  1.0000
  N   N31       1.0  0.8782872089190109  0.4162029314058092  0.6115871205411892  1.0000
  C   C409      1.0  0.9113859222716905  0.42926991806905807  0.5869470135493066  1.0000
  C   C410      1.0  0.8591737798706709  0.44258055510273014  0.632471916509379  1.0000
  C   C411      1.0  0.8985541091425554  0.3929029742926199  0.6360123213161231  1.0000
  C   C412      1.0  0.8440697002973492  0.4000052359465487  0.5908232641510972  1.0000
  H   H553      1.0  0.9255976985745462  0.4102378914604577  0.5700695804791251  1.0000
  H   H554      1.0  0.938520777250208  0.4408464097258329  0.6015390106484533  1.0000
  H   H555      1.0  0.8973516050361449  0.447306579456758  0.5684349877012759  1.0000
  H   H556      1.0  0.8323198038386475  0.43408253509984535  0.6500178871378098  1.0000
  H   H557      1.0  0.883796325158154  0.4543345028234926  0.649661647108249  1.0000
  H   H558      1.0  0.8454025761753304  0.4612838769818198  0.6147509646282727  1.0000
  H   H559      1.0  0.8748712898664434  0.3835337977758789  0.655894019468063  1.0000
  H   H560      1.0  0.9261414201427841  0.4036200982145944  0.6509069847810749  1.0000
  H   H561      1.0  0.9116449242248622  0.3720432628721954  0.6211548453534584  1.0000
  H   H562      1.0  0.8174485898761676  0.39109594938652165  0.6083135600930496  1.0000
  H   H563      1.0  0.857225107875057  0.3792163765136222  0.5757952558768012  1.0000
  H   H564      1.0  0.8294580088671429  0.4163668553343786  0.5709209000574813  1.0000
  N   N32       1.0  0.18133174137790917  0.8382027893884207  0.5864954975388164  1.0000
  C   C413      1.0  0.22193279543373684  0.8304481896655134  0.5673968675596198  1.0000
  C   C414      1.0  0.18732246146784554  0.8328969874596275  0.6251495977380713  1.0000
  C   C415      1.0  0.14604698218496043  0.8174583791608228  0.5733857084066845  1.0000
  C   C416      1.0  0.16988122345339715  0.8719921791503077  0.580064916744137  1.0000
  H   H565      1.0  0.23067283593429586  0.8048548148417397  0.5706016656329846  1.0000
  H   H566      1.0  0.2495719626453744  0.8447575205062802  0.5776453633700688  1.0000
  H   H567      1.0  0.2193190378899636  0.8357973359972908  0.5383787471776775  1.0000
  H   H568      1.0  0.21414238288677373  0.8478311606945607  0.6359364767375315  1.0000
  H   H569      1.0  0.15744026925790539  0.8389898595905965  0.6403187054658228  1.0000
  H   H570      1.0  0.19515843474773562  0.8075021520882301  0.6311187260076346  1.0000
  H   H571      1.0  0.15324303996701624  0.7917424773728241  0.5779330316401164  1.0000
  H   H572      1.0  0.1401852826510166  0.8212082769417245  0.5443758896937265  1.0000
  H   H573      1.0  0.11505017312398345  0.8227354406489376  0.5872898484600363  1.0000
  H   H574      1.0  0.13880005298144524  0.8784245712358788  0.5933741904168117  1.0000
  H   H575      1.0  0.16587904365495101  0.877040735328484  0.551074356453607  1.0000
  H   H576      1.0  0.1954112702623539  0.888422904557201  0.5901370274134047  1.0000
  N   N33       1.0  0.05135186059569308  0.7896622249004688  0.7937234889339068  1.0000
  C   C417      1.0  0.05556664122858712  0.7549846819915524  0.8002002784269922  1.0000
  C   C418      1.0  0.03400323134307204  0.7950405649262677  0.7575013546488525  1.0000
  C   C419      1.0  0.09438045112036941  0.8049834876512615  0.7968653475972917  1.0000
  C   C420      1.0  0.021488468740335387  0.8036226078097352  0.8203320361797234  1.0000
  H   H577      1.0  0.07779260422084122  0.7437562305104509  0.7803654829577539  1.0000
  H   H578      1.0  0.023657873993479184  0.7426873518068008  0.7981403635169904  1.0000
  H   H579      1.0  0.06873732417800471  0.7500318521720992  0.8272682829866103  1.0000
  H   H580      1.0  0.0011772372233747053  0.7843914892620371  0.754362585114688  1.0000
  H   H581      1.0  0.031078993490970097  0.8209454927400491  0.751414792950006  1.0000
  H   H582      1.0  0.05531280844292774  0.7843082668538104  0.7367309658502753  1.0000
  H   H583      1.0  0.0926746999517214  0.8310175175662162  0.7909177626842695  1.0000
  H   H584      1.0  0.1181903584732904  0.7942540981498134  0.7780249557850004  1.0000
  H   H585      1.0  0.10768915818101088  0.8023956702235232  0.8242492206959549  1.0000
  H   H586      1.0  0.9885111033041807  0.79293133438595  0.8186482760147685  1.0000
  H   H587      1.0  0.017867929047105546  0.8297907280091782  0.8162369107225265  1.0000
  H   H588      1.0  0.033440401015433885  0.800004337306163  0.8480445947928403  1.0000
  N   N34       1.0  0.8014606876551403  0.8581607106478758  0.09544425193423896  1.0000
  C   C421      1.0  0.7593782062918591  0.8657512870235937  0.0787830501255713  1.0000
  C   C422      1.0  0.7977420832612844  0.8275942996211615  0.11499249636250479  1.0000
  C   C423      1.0  0.81341053250022  0.8838725844233495  0.12056558292542773  1.0000
  C   C424      1.0  0.8351244551404136  0.8553975705843598  0.06742938837881729  1.0000
  H   H589      1.0  0.7608747025741522  0.8888158895905148  0.06409511300690562  1.0000
  H   H590      1.0  0.7332233609335111  0.8678892040867467  0.0991397881074548  1.0000
  H   H591      1.0  0.7496157356553613  0.847028096204034  0.05936318373496818  1.0000
  H   H592      1.0  0.8288811810801763  0.821073421491587  0.12773661119476123  1.0000
  H   H593      1.0  0.7730622265235838  0.8288961751407531  0.13667757394757643  1.0000
  H   H594      1.0  0.7889854246625057  0.8075893088118783  0.09686490152087204  1.0000
  H   H595      1.0  0.8449997755004204  0.8789548388885978  0.13366926765228582  1.0000
  H   H596      1.0  0.788937188442767  0.8863926510307725  0.14227739592054534  1.0000
  H   H597      1.0  0.8161932769286455  0.9073557840925275  0.10672440287347375  1.0000
  H   H598      1.0  0.8672908590997276  0.8493836336805295  0.07896300759265529  1.0000
  H   H599      1.0  0.8388301191315204  0.8780729355960691  0.052146238762957875  1.0000
  H   H600      1.0  0.8272152157844531  0.8361438906485922  0.048056189040343034  1.0000
  N   N35       1.0  0.4747990079605077  0.9509802507927975  0.38676732591028246  1.0000
  C   C425      1.0  0.5164346500360962  0.9393993422117011  0.3721454395449619  1.0000
  C   C426      1.0  0.4754418819363876  0.9862375025831744  0.3881750928055738  1.0000
  C   C427      1.0  0.46844491407302985  0.9380213337312887  0.423112872898591  1.0000
  C   C428      1.0  0.43890471075749465  0.9402889252360007  0.363620035283708  1.0000
  H   H601      1.0  0.517629806116417  0.9128323961947944  0.3718072480351198  1.0000
  H   H602      1.0  0.5444080932985468  0.9481747508649345  0.38816485962912217  1.0000
  H   H603      1.0  0.5214558092021614  0.9478606384225241  0.3442859300433632  1.0000
  H   H604      1.0  0.44464577388665655  0.9957842348975535  0.39938159088552316  1.0000
  H   H605      1.0  0.5024895454749366  0.9952101135236894  0.4050581939874299  1.0000
  H   H606      1.0  0.4798750640890524  0.9967472623562998  0.3611097787010671  1.0000
  H   H607      1.0  0.43714636300974336  0.9461221643774168  0.4348294539722215  1.0000
  H   H608      1.0  0.49489917535275685  0.9456852330452371  0.44131777445253983  1.0000
  H   H609      1.0  0.46772887133812263  0.9114184058805003  0.4230115815893214  1.0000
  H   H610      1.0  0.406892867232296  0.9480796774111738  0.37427731383187496  1.0000
  H   H611      1.0  0.43789781021682717  0.9137872117879379  0.36146716062624024  1.0000
  H   H612      1.0  0.442225273105305  0.9501104179020967  0.33611465461130274  1.0000
  N   N36       1.0  0.3943354375221301  0.2945300974251196  0.44727538864105315  1.0000
  C   C429      1.0  0.35141841599744994  0.27995265652698886  0.4406900255285286  1.0000
  C   C430      1.0  0.3885030641841225  0.32709660697503146  0.46160193115006387  1.0000
  C   C431      1.0  0.41895762437692513  0.29625261459405305  0.41342444128411154  1.0000
  C   C432      1.0  0.4183880387874347  0.27488308639487496  0.47335746599171297  1.0000
  H   H613      1.0  0.3322624592677243  0.29425921753480944  0.4212438876116013  1.0000
  H   H614      1.0  0.33202501986451916  0.278199916264406  0.4657553882014834  1.0000
  H   H615      1.0  0.35453495772649996  0.2554450636057439  0.4295881226345922  1.0000
  H   H616      1.0  0.3705004884866915  0.3268324302749427  0.4873825713656792  1.0000
  H   H617      1.0  0.42008478743267635  0.339164414155193  0.4665241716392208  1.0000
  H   H618      1.0  0.3699581496718831  0.34247977133289176  0.44281430642718816  1.0000
  H   H619      1.0  0.42305193723944623  0.27223959464763847  0.4011946112734226  1.0000
  H   H620      1.0  0.45178211066441737  0.3066643069686592  0.417444610035999  1.0000
  H   H621      1.0  0.4020818832669207  0.31142504883057454  0.3934319675792389  1.0000
  H   H622      1.0  0.4504626579781571  0.28560216256186705  0.47978540758131455  1.0000
  H   H623      1.0  0.42415451219673533  0.25031618768514846  0.46315994507764985  1.0000
  H   H624      1.0  0.4002672207388094  0.27249806381225994  0.4989653993090978  1.0000
  N   N37       1.0  0.31174618912974394  0.49516955355687525  0.9418032156035511  1.0000
  C   C433      1.0  0.30530770840348964  0.48565388859149666  0.9042568206279631  1.0000
  C   C434      1.0  0.3548281169888425  0.48426983298502746  0.9539200727181616  1.0000
  C   C435      1.0  0.2775731988149135  0.4805409629460094  0.9642922492344593  1.0000
  C   C436      1.0  0.30931665248222534  0.5303220252151208  0.9446107801613088  1.0000
  H   H625      1.0  0.2722537103495227  0.49195833605049105  0.8947268337008044  1.0000
  H   H626      1.0  0.30900565498616217  0.4593885976077016  0.9008258189207872  1.0000
  H   H627      1.0  0.3291043990869587  0.49754878079520426  0.8862900270169021  1.0000
  H   H628      1.0  0.3605043599719655  0.4902441796462759  0.9824237745762109  1.0000
  H   H629      1.0  0.35852387189768364  0.4579390598886378  0.9510538258268595  1.0000
  H   H630      1.0  0.3812676851732476  0.4955861979050233  0.9380452154603499  1.0000
  H   H631      1.0  0.2782615199192653  0.4540555329195496  0.9626075354896099  1.0000
  H   H632      1.0  0.24459252492224795  0.4879841519147267  0.9555932850208593  1.0000
  H   H633      1.0  0.2812984401376631  0.48710816845750965  0.9928500351478475  1.0000
  H   H634      1.0  0.3140653284258628  0.5383715492859802  0.9726093590829219  1.0000
  H   H635      1.0  0.27727563962805757  0.5393495699455546  0.9354965078800017  1.0000
  H   H636      1.0  0.3347561942337711  0.5420965900296778  0.9279406354252107  1.0000
  N   N38       1.0  0.6374868725025469  0.47626968476369164  0.49487968896302353  1.0000
  C   C437      1.0  0.6658528181076574  0.5017272197434213  0.5091127379259557  1.0000
  C   C438      1.0  0.6607671003176093  0.45865980347368934  0.4666032175518735  1.0000
  C   C439      1.0  0.5978149686010801  0.49056346665365724  0.4798196026437048  1.0000
  C   C440      1.0  0.6253170414592651  0.4541210807350771  0.523982496248738  1.0000
  H   H637      1.0  0.6755191165076216  0.5190504694080385  0.4879411841203149  1.0000
  H   H638      1.0  0.6961828123700637  0.4917379773195825  0.5206580144105423  1.0000
  H   H639      1.0  0.6493349166200888  0.5155899859476322  0.5304911950692163  1.0000
  H   H640      1.0  0.6404330676852469  0.4392785311285784  0.45514986112161426  1.0000
  H   H641      1.0  0.670705728915261  0.4747816359818697  0.4443900810947751  1.0000
  H   H642      1.0  0.6907303857602819  0.44737065169992546  0.47701995806698044  1.0000
  H   H643      1.0  0.5757894813164537  0.4721698849406151  0.4684478340683  1.0000
  H   H644      1.0  0.6055647932002475  0.5078250266790313  0.45812903789137516  1.0000
  H   H645      1.0  0.5790499961364072  0.5036177239206875  0.500563023091053  1.0000
  H   H646      1.0  0.6076695399306317  0.46678918867930647  0.5456921809090636  1.0000
  H   H647      1.0  0.654354343569779  0.44290594594831395  0.5360974980013322  1.0000
  H   H648      1.0  0.6040000032376804  0.43456943740101406  0.5141806848116715  1.0000
  N   N39       1.0  0.9903468520294293  0.03683790701179679  0.0004800845050279001  1.0000
  C   C441      1.0  0.9719818007047674  0.016667636359076532  0.9719230770996948  1.0000
  C   C442      1.0  0.9817674738030768  0.021808690991878654  0.03552915058123718  1.0000
  C   C443      1.0  0.9700391027080744  0.06876603133693093  0.9993114760333144  1.0000
  C   C444      1.0  0.03765624505188603  0.04016001590899476  0.9952182559593824  1.0000
  H   H649      1.0  0.9778955298545908  0.027217242473537073  0.9450903386558154  1.0000
  H   H650      1.0  0.9363756659183713  0.01352106519200369  0.975281776005616  1.0000
  H   H651      1.0  0.9866367532996098  0.9924153630856882  0.9719890265222221  1.0000
  H   H652      1.0  0.9967232156801817  0.9976793877548181  0.03736476770250419  1.0000
  H   H653      1.0  0.9949164645359283  0.03650843178907737  0.05774255890943336  1.0000
  H   H654      1.0  0.9464013826142974  0.019009149675787373  0.04055248631895969  1.0000
  H   H655      1.0  0.9828189083035581  0.0845003514506717  0.020795634404570107  1.0000
  H   H656      1.0  0.9343296808641919  0.06722957980901878  0.003334182785817097  1.0000
  H   H657      1.0  0.9759715916041988  0.08089300611805794  0.9733291858623213  1.0000
  H   H658      1.0  0.04553725535912467  0.05086267368284081  0.9687953577542214  1.0000
  H   H659      1.0  0.054113986900169  0.016594943000586726  0.9965590924497933  1.0000
  H   H660      1.0  0.05240724116082851  0.05549444753965971  0.016159427573549268  1.0000
  N   N40       1.0  0.5548137176144867  0.46888077964425695  0.8143085394167257  1.0000
  C   C445      1.0  0.5326294011626308  0.4992231777750388  0.8059559852900661  1.0000
  C   C446      1.0  0.5223218145996201  0.44301133890363903  0.8174545921573568  1.0000
  C   C447      1.0  0.5783474968808594  0.47197311602934594  0.8484061931453706  1.0000
  C   C448      1.0  0.5859943455335046  0.46144797066461685  0.7854964276446206  1.0000
  H   H661      1.0  0.5097914553029517  0.5060485455166045  0.8275321204445563  1.0000
  H   H662      1.0  0.513630756053319  0.49760655528317227  0.7808790071183995  1.0000
  H   H663      1.0  0.5561012367043364  0.5192384716184432  0.8028350001253522  1.0000
  H   H664      1.0  0.5038222148682714  0.4399323753418986  0.7922766729528166  1.0000
  H   H665      1.0  0.5377582651980406  0.4197483144542101  0.8240771554359009  1.0000
  H   H666      1.0  0.4983312683151101  0.44817760657393085  0.838973378035811  1.0000
  H   H667      1.0  0.5958391388438864  0.4496149314962833  0.8553388798019074  1.0000
  H   H668      1.0  0.5557429035049033  0.47729683208462076  0.8708556049053325  1.0000
  H   H669      1.0  0.6028222998331206  0.4915838711338567  0.8471308465330832  1.0000
  H   H670      1.0  0.5694827883232632  0.4591828607739894  0.759287627882947  1.0000
  H   H671      1.0  0.6034495932359156  0.4387119000831602  0.790827732739134  1.0000
  H   H672      1.0  0.6109194997394497  0.4806806941220287  0.7827712954330469  1.0000
  N   N41       1.0  0.7456799511032693  0.5114562250484845  0.006917974562767437  1.0000
  C   C449      1.0  0.7741435875595791  0.5392888476460092  0.013222545605603209  1.0000
  C   C450      1.0  0.7481146213528662  0.5024009081826325  0.9688839927434703  1.0000
  C   C451      1.0  0.7005357631545359  0.5198134432820648  0.0162421221295741  1.0000
  C   C452      1.0  0.7600671478345966  0.48435833486341007  0.02923677884435505  1.0000
  H   H673      1.0  0.7745889368658703  0.546057665136902  0.04193773712121329  1.0000
  H   H674      1.0  0.7631011079438587  0.5606487925345515  0.9980736277447292  1.0000
  H   H675      1.0  0.8081399905576967  0.5342043265703853  0.00497147832750322  1.0000
  H   H676      1.0  0.7271408952790337  0.48141303280667114  0.9631229577865423  1.0000
  H   H677      1.0  0.7375501611074431  0.5223903324050974  0.9513207907618408  1.0000
  H   H678      1.0  0.78193781239409  0.4960261050150942  0.9610512913628644  1.0000
  H   H679      1.0  0.6780711918549992  0.4993225851370141  0.012377641843948739  1.0000
  H   H680      1.0  0.6884341314500487  0.5398387803063026  0.9994836584157551  1.0000
  H   H681      1.0  0.6977792505469846  0.5274485496739744  0.044565196756487735  1.0000
  H   H682      1.0  0.7614938646944717  0.49099299554224646  0.057985380073296344  1.0000
  H   H683      1.0  0.7929835294325871  0.4762133138738213  0.021261300294572294  1.0000
  H   H684      1.0  0.7379609073517834  0.4634900342474563  0.026734574884159423  1.0000
  N   N42       1.0  0.1406138431382431  0.29618336657236605  0.27707547980401576  1.0000
  C   C453      1.0  0.1845189413577093  0.30393659685169566  0.2637122181462708  1.0000
  C   C454      1.0  0.1272144237302164  0.3201117436595058  0.30385064265041356  1.0000
  C   C455      1.0  0.14070837809100412  0.26414990244422554  0.29371698156439435  1.0000
  C   C456      1.0  0.10987794822502073  0.2964501930250843  0.2469474896637086  1.0000
  H   H685      1.0  0.19591128556039572  0.28592687227009267  0.24404043199867623  1.0000
  H   H686      1.0  0.2085660780174503  0.30437522545804874  0.28564382654506776  1.0000
  H   H687      1.0  0.18541904050930258  0.3276921368858908  0.2504164469181258  1.0000
  H   H688      1.0  0.09422908187923795  0.31481066319698936  0.31449005192294727  1.0000
  H   H689      1.0  0.14976436664628712  0.3205250849580002  0.3270100305050256  1.0000
  H   H690      1.0  0.1265136268980218  0.3445969932962403  0.292340767841363  1.0000
  H   H691      1.0  0.10768239397140955  0.25726973547511856  0.3031534638305436  1.0000
  H   H692      1.0  0.16279544331183105  0.26320867151150296  0.3170552462022111  1.0000
  H   H693      1.0  0.15172971060794294  0.24555617754199294  0.27460440927134944  1.0000
  H   H694      1.0  0.07653354294120662  0.29034217845986565  0.25592829644615667  1.0000
  H   H695      1.0  0.11915241417783418  0.27868591810849286  0.22632411820949885  1.0000
  H   H696      1.0  0.10852837246225167  0.32026027029841553  0.23383278961230364  1.0000
  N   N43       1.0  0.6064241828770256  0.03723712251678424  0.033660737077641834  1.0000
  C   C457      1.0  0.5590586456902213  0.03564789060891127  0.03948905222748378  1.0000
  C   C458      1.0  0.6280136889655246  0.014091496885825226  0.057530880030834064  1.0000
  C   C459      1.0  0.6221044070781698  0.06981819659328958  0.04165819967714057  1.0000
  C   C460      1.0  0.6163462045109206  0.029410468383867405  0.9960420035919504  1.0000
  H   H697      1.0  0.5502423654105689  0.042251302139913564  0.06733368057151168  1.0000
  H   H698      1.0  0.5463877874892328  0.011108484454859678  0.03472435615159375  1.0000
  H   H699      1.0  0.5414985851369699  0.05211022179521674  0.02120068283593257  1.0000
  H   H700      1.0  0.6637945756492489  0.014706836499124075  0.054147282639858574  1.0000
  H   H701      1.0  0.6210607798774676  0.019350828580931845  0.08611073681759063  1.0000
  H   H702      1.0  0.6170914607648034  0.9892163236730599  0.0521353083280085  1.0000
  H   H703      1.0  0.6165244463605594  0.07622620416706272  0.07013091827967988  1.0000
  H   H704      1.0  0.6055090106500935  0.08799519563779547  0.024880836813662377  1.0000
  H   H705      1.0  0.6575693337316032  0.0721459446111381  0.03661685017352978  1.0000
  H   H706      1.0  0.6049494805201286  0.004981026957528333  0.9889687147655617  1.0000
  H   H707      1.0  0.6518036007927547  0.030590640834973204  0.9905267710554795  1.0000
  H   H708      1.0  0.6004403807195304  0.046456392120556085  0.977343508939534  1.0000
  N   N44       1.0  0.9184635754761857  0.5587132019679745  0.5079775147567945  1.0000
  C   C461      1.0  0.961835518687847  0.557802452831902  0.49111276680613497  1.0000
  C   C462      1.0  0.9014566527696278  0.5916878157165192  0.5066350805031484  1.0000
  C   C463      1.0  0.921903245120287  0.5482715571865601  0.5455546848835786  1.0000
  C   C464      1.0  0.8887618468215519  0.5371152822081585  0.4886367027759831  1.0000
  H   H709      1.0  0.9850963217021742  0.5736997569677038  0.5051912983004834  1.0000
  H   H710      1.0  0.9605555182461561  0.5654903211538874  0.46271191330922534  1.0000
  H   H711      1.0  0.9756374986962635  0.5332442930650141  0.491609416461463  1.0000
  H   H712      1.0  0.8985854136981274  0.6004905070865804  0.47873384080460035  1.0000
  H   H713      1.0  0.868786340385682  0.5933050331619398  0.5191935863276207  1.0000
  H   H714      1.0  0.922823100749313  0.6085735618716823  0.5213729335102533  1.0000
  H   H715      1.0  0.8898032827518992  0.5485920529560248  0.5591519073845286  1.0000
  H   H716      1.0  0.943647223017486  0.564306683737155  0.5610406579865105  1.0000
  H   H717      1.0  0.9350059915775748  0.5235947234036249  0.5476026537925729  1.0000
  H   H718      1.0  0.855738074573154  0.5371785553548335  0.5006409588679991  1.0000
  H   H719      1.0  0.9005829533021888  0.5120199190280144  0.48919601892666503  1.0000
  H   H720      1.0  0.8855746691969147  0.5441702248251934  0.46014361015959715  1.0000
  N   N45       1.0  0.8091881104565826  0.19972210531755308  0.10635388303399831  1.0000
  C   C465      1.0  0.7851309345379217  0.16991352412030936  0.09876413621082325  1.0000
  C   C466      1.0  0.8549663156988916  0.19596060842456353  0.09532968818608346  1.0000
  C   C467      1.0  0.8071050730391475  0.2065972528928972  0.14498387066450877  1.0000
  C   C468      1.0  0.789558686824761  0.2264659954076027  0.08633641115474334  1.0000
  H   H721      1.0  0.7506250147244179  0.1714880517791535  0.10741777526947686  1.0000
  H   H722      1.0  0.7995689084084198  0.14907984901678506  0.1128441054187464  1.0000
  H   H723      1.0  0.7852633994559901  0.1643082731498937  0.06976056576693934  1.0000
  H   H724      1.0  0.8741205580858262  0.21798862725305512  0.10064176661718355  1.0000
  H   H725      1.0  0.8708823006896355  0.17611063838582752  0.11003599278818052  1.0000
  H   H726      1.0  0.8578116932099198  0.1905377265689221  0.0663663064417741  1.0000
  H   H727      1.0  0.8262626313236953  0.22826348037701893  0.1519714606746411  1.0000
  H   H728      1.0  0.8204292363178374  0.18653216583092447  0.1609678831727589  1.0000
  H   H729      1.0  0.773171615422207  0.2104913543389757  0.15411075949269856  1.0000
  H   H730      1.0  0.8061784548599698  0.24948349758452748  0.09219827296758566  1.0000
  H   H731      1.0  0.754717256446411  0.2295019913113303  0.0933502378878888  1.0000
  H   H732      1.0  0.7916058035515181  0.22255301812135353  0.057005484954560925  1.0000
  N   N46       1.0  0.39198361468511533  0.39659857479675015  0.26181440073561346  1.0000
  C   C469      1.0  0.3804376784647933  0.4305733266161024  0.266524696751039  1.0000
  C   C470      1.0  0.3523074516599245  0.37681631573913277  0.2632520135758687  1.0000
  C   C471      1.0  0.42172863844275044  0.38670319485720794  0.29062980248484455  1.0000
  C   C472      1.0  0.41342769471560525  0.39221358429126907  0.22683667038688388  1.0000
  H   H733      1.0  0.4097824080462352  0.44614103864793175  0.2660494504705887  1.0000
  H   H734      1.0  0.36421061060709303  0.43468097571675995  0.292681648451273  1.0000
  H   H735      1.0  0.3582347189635047  0.43898431477724753  0.24516215025173993  1.0000
  H   H736      1.0  0.3601641630754401  0.3511334586562297  0.2596539663655687  1.0000
  H   H737      1.0  0.3354128673881844  0.37910681698358495  0.28940707349545963  1.0000
  H   H738      1.0  0.32912998630945395  0.3834608925810015  0.24177851605533787  1.0000
  H   H739      1.0  0.45164285842533325  0.40163015268090807  0.2909099035865735  1.0000
  H   H740      1.0  0.4315431117552687  0.3612538392370486  0.28774677499144935  1.0000
  H   H741      1.0  0.40623913928783  0.3891846389089522  0.31733412030043634  1.0000
  H   H742      1.0  0.4227849967779391  0.3668320060844236  0.22255486036009037  1.0000
  H   H743      1.0  0.443311744736403  0.4070237948604307  0.22456383510322722  1.0000
  H   H744      1.0  0.39153510017388865  0.398891214203223  0.20443238759685484  1.0000
  N   N47       1.0  0.10068762792139174  0.8486286479085196  0.05183018063839784  1.0000
  C   C473      1.0  0.10739513650935394  0.8382912955790955  0.08913535986300825  1.0000
  C   C474      1.0  0.12552772329143114  0.8782632114132638  0.04490360922446168  1.0000
  C   C475      1.0  0.05406638209343151  0.8546230810931092  0.04579491624218002  1.0000
  C   C476      1.0  0.11572062511875258  0.8232695266793538  0.02740971702426709  1.0000
  H   H745      1.0  0.14217278250241225  0.833175621297312  0.09454309664246871  1.0000
  H   H746      1.0  0.08863421367147171  0.8161972621278687  0.09542255896673991  1.0000
  H   H747      1.0  0.09658381623719346  0.8568750890311496  0.10833264841785374  1.0000
  H   H748      1.0  0.1207253869105993  0.8869630082869208  0.017094813424123112  1.0000
  H   H749      1.0  0.11531429163200556  0.8978692446659458  0.06305049807547536  1.0000
  H   H750      1.0  0.16094257630484982  0.8746069937973051  0.048883588640973086  1.0000
  H   H751      1.0  0.041558794034221025  0.8737616244786897  0.063591942185804  1.0000
  H   H752      1.0  0.034304227716529516  0.832754827842006  0.05075413374581261  1.0000
  H   H753      1.0  0.04788049017247497  0.8621683108124097  0.01779974834336473  1.0000
  H   H754      1.0  0.09722520343710173  0.8006831816902461  0.031611261915926114  1.0000
  H   H755      1.0  0.15072003944281218  0.8179015356081972  0.03137662582918521  1.0000
  H   H756      1.0  0.11105349725597667  0.8302312619924984  0.998999496595346  1.0000
  N   N48       1.0  0.5889942468700662  0.09582801476384728  0.5726280194283304  1.0000
  C   C477      1.0  0.5988073700305209  0.1058581916061303  0.6095134455211145  1.0000
  C   C478      1.0  0.541559453713119  0.09251819021099039  0.5685836940490128  1.0000
  C   C479      1.0  0.6100272666926599  0.06484112562703159  0.5653191790814605  1.0000
  C   C480      1.0  0.605476436816798  0.12002936546437115  0.5471818170769787  1.0000
  H   H757      1.0  0.6341972671149215  0.10828499256008972  0.613958061814409  1.0000
  H   H758      1.0  0.5868208820378924  0.08802584143745129  0.6293190239641243  1.0000
  H   H759      1.0  0.5834056190353298  0.12913213427431858  0.6160756686440226  1.0000
  H   H760      1.0  0.5327102209509464  0.08490563291188136  0.5411517740564866  1.0000
  H   H761      1.0  0.5281419481728505  0.07463154993566312  0.5877219064908892  1.0000
  H   H762      1.0  0.5246925001113332  0.11547356316729673  0.5742305076960584  1.0000
  H   H763      1.0  0.6025829096824249  0.056152401858140966  0.5379992154155685  1.0000
  H   H764      1.0  0.5994107725561807  0.04623105663239535  0.5847551988194157  1.0000
  H   H765      1.0  0.6459098588002308  0.06672989455372669  0.5676058928334186  1.0000
  H   H766      1.0  0.5902763646944312  0.14373528134572955  0.5518367990473689  1.0000
  H   H767      1.0  0.5990456786189144  0.11300710454024165  0.5190546038182456  1.0000
  H   H768      1.0  0.6411855179171712  0.12318290176119961  0.5495920803150776  1.0000
