data_image0
_chemical_formula_structural       FeS2FeS2FeSFeS3FeS2FeS2FeSFeS3FeS2FeS2FeSFeS3FeS2FeS2FeSFeS3FeS2FeS2FeSFeS3FeS2FeS2FeSFeS3FeS2FeS2FeSFeS3FeS2FeS2FeSFeS3FeS2FeS2FeSFeS3FeS2FeS2FeSFeS3FeS2FeS2FeSFeS3FeS2FeS2FeSFeS3C6H4C6H4C6H4C6H4C6H4C6H4C6H4C6H4C6H4C6H4C6H4C6H4C6H4C6H4C6H4C6H4C6H4C6H4C6H4C6H4C6H4C6H4C6H4C6H4FeS2FeS2FeSFeS3FeS2FeS2FeSFeS3FeS2FeS2FeSFeS3FeS2FeS2FeSFeS3FeS2FeS2FeSFeS3FeS2FeS2FeSFeS3FeS2FeS2FeSFeS3FeS2FeS2FeSFeS3FeS2FeS2FeSFeS3FeS2FeS2FeSFeS3FeS2FeS2FeSFeS3FeS2FeS2FeSFeS3C6H4C6H4C6H4C6H4C6H4C6H4C6H4C6H4C6H4C6H4C6H4C6H4C6H4C6H4C6H4C6H4C6H4C6H4C6H4C6H4C6H4C6H4C6H4C6H4NC4H12NC4H12NC4H12NC4H12NC4H12NC4H12NC4H12NC4H12NC4H12NC4H12NC4H12NC4H12NC4H12NC4H12NC4H12NC4H12NC4H12NC4H12NC4H12NC4H12NC4H12NC4H12NC4H12NC4H12NC4H12NC4H12NC4H12NC4H12NC4H12NC4H12NC4H12NC4H12NC4H12NC4H12NC4H12NC4H12NC4H12NC4H12NC4H12NC4H12NC4H12NC4H12NC4H12NC4H12NC4H12NC4H12NC4H12NC4H12
_chemical_formula_sum              "Fe96 S192 C480 H768 N48"
_cell_length_a       51.843347836464815
_cell_length_b       43.8855713398458
_cell_length_c       15.662218793516152
_cell_angle_alpha    89.82144484328325
_cell_angle_beta     89.45294338010629
_cell_angle_gamma    89.69248940187505

_space_group_name_H-M_alt    "P 1"
_space_group_IT_number       1

loop_
  _space_group_symop_operation_xyz
  'x, y, z'

loop_
  _atom_site_type_symbol
  _atom_site_label
  _atom_site_symmetry_multiplicity
  _atom_site_fract_x
  _atom_site_fract_y
  _atom_site_fract_z
  _atom_site_occupancy
  Fe  Fe1       1.0  0.49690813555963936  0.366034506061101  0.3977984046075635  1.0000
  S   S1        1.0  0.47045152248512445  0.3552402691119426  0.5082914613642096  1.0000
  S   S2        1.0  0.5072957699414934  0.412828266078629  0.35127685836580724  1.0000
  Fe  Fe2       1.0  0.5087152278881402  0.29988945459601657  0.3610131123437712  1.0000
  S   S3        1.0  0.4833626257918825  0.28282775456428594  0.467414318580537  1.0000
  S   S4        1.0  0.537101412696444  0.27297278818429604  0.28355416619517215  1.0000
  Fe  Fe3       1.0  0.45559993726056125  0.318783395538118  0.4222410333150583  1.0000
  S   S5        1.0  0.41324739646132314  0.30884554865998726  0.41984607217365655  1.0000
  Fe  Fe4       1.0  0.5004661524188917  0.32047363837087034  0.5433685043452793  1.0000
  S   S6        1.0  0.5157366122303361  0.3109771631021776  0.6744941679909418  1.0000
  S   S7        1.0  0.47946528051345977  0.3324396746247531  0.30807110542933835  1.0000
  S   S8        1.0  0.5282488372089227  0.3346417323220818  0.4404982918745839  1.0000
  Fe  Fe5       1.0  0.30353458117185855  0.41687385610607003  0.4109014793157031  1.0000
  S   S9        1.0  0.2910309115961294  0.4061305053182073  0.5450934207003456  1.0000
  S   S10       1.0  0.3447701373459857  0.4275333812749806  0.3758870636818652  1.0000
  Fe  Fe6       1.0  0.2490170662688301  0.41298745724632274  0.3409871414531094  1.0000
  S   S11       1.0  0.231390046361702  0.4023227739749499  0.468567359124596  1.0000
  S   S12       1.0  0.22682127030297608  0.41367730154311094  0.21879838346099767  1.0000
  Fe  Fe7       1.0  0.2581215717279496  0.43773698079727924  0.5181521778810767  1.0000
  S   S13       1.0  0.24648252499312476  0.4720993302491808  0.615966671068605  1.0000
  Fe  Fe8       1.0  0.265549003674626  0.37169085344489583  0.4841671324420871  1.0000
  S   S14       1.0  0.25755365966811006  0.3254527944124424  0.535774552866896  1.0000
  S   S15       1.0  0.2726227096476466  0.45175868211987946  0.38856339683272245  1.0000
  S   S16       1.0  0.2811462235258265  0.3790140773320429  0.35178629976354414  1.0000
  Fe  Fe9       1.0  0.2933487864476877  0.1392231050691202  0.46212832483904265  1.0000
  S   S17       1.0  0.3026562177030825  0.14142150592769392  0.32197584682959923  1.0000
  S   S18       1.0  0.31748845574144713  0.11025570595861257  0.5487984595405947  1.0000
  Fe  Fe10      1.0  0.24332617430122624  0.17512406846097645  0.4428021726552522  1.0000
  S   S19       1.0  0.24818066447857437  0.17945077275896526  0.3012054743789749  1.0000
  S   S20       1.0  0.20821076618872322  0.1991423549843776  0.493694231895778  1.0000
  Fe  Fe11      1.0  0.2606282673951348  0.13101365095630424  0.30548803413857106  1.0000
  S   S21       1.0  0.24582346465710245  0.09907208121167983  0.20624451971283952  1.0000
  Fe  Fe12      1.0  0.28915936395218894  0.18987541820849263  0.33247450810397766  1.0000
  S   S22       1.0  0.3079250864418843  0.2319402683237549  0.2811241059203964  1.0000
  S   S23       1.0  0.2522807054120671  0.12519601331727498  0.4454487546378436  1.0000
  S   S24       1.0  0.2836595572857916  0.18873822783730115  0.474897607386243  1.0000
  Fe  Fe13      1.0  0.4912464012018051  0.06282530180303712  0.5432391455046042  1.0000
  S   S25       1.0  0.45139602801276624  0.07264091231680461  0.4970414616540433  1.0000
  S   S26       1.0  0.4992155793931088  0.019807512184089715  0.6165621574804196  1.0000
  Fe  Fe14      1.0  0.5136736256203902  0.11905866579096343  0.46059077741250354  1.0000
  S   S27       1.0  0.4760199635034155  0.13307486920796546  0.40228714055799664  1.0000
  S   S28       1.0  0.551677869439775  0.1428546394239349  0.44713993567455307  1.0000
  Fe  Fe15      1.0  0.45951825484761843  0.12126326585888372  0.53093715127513  1.0000
  S   S29       1.0  0.4320244189631752  0.15597585997302438  0.5865441106275249  1.0000
  Fe  Fe16      1.0  0.47120197155702837  0.08351070175583586  0.37357017053089914  1.0000
  S   S30       1.0  0.4533470715034794  0.06340637004758352  0.2573694972307894  1.0000
  S   S31       1.0  0.497592752020919  0.11034307463214633  0.5914524873392792  1.0000
  S   S32       1.0  0.5107247272996597  0.07076464692739573  0.4172054900704665  1.0000
  Fe  Fe17      1.0  0.13994981122436073  0.19485893963653123  0.9017414617178218  1.0000
  S   S33       1.0  0.09749466939363405  0.18954956200603115  0.882281820342043  1.0000
  S   S34       1.0  0.1691580583039815  0.1602869896813675  0.8583089733075967  1.0000
  Fe  Fe18      1.0  0.1345003028688061  0.2556285062017627  0.9899531404983856  1.0000
  S   S35       1.0  0.09146499457273682  0.25594209034867693  0.9801784849150424  1.0000
  S   S36       1.0  0.1545325131405364  0.2956186309475469  0.04884351602842374  1.0000
  Fe  Fe19      1.0  0.09397586191451057  0.2065820177428916  0.01642065751204469  1.0000
  S   S37       1.0  0.06314844185709045  0.18771438626837283  0.10272701450289978  1.0000
  Fe  Fe20      1.0  0.0984396877072009  0.23907377483840891  0.8475543142024001  1.0000
  S   S38       1.0  0.07439568559976073  0.256857659388723  0.740631691557667  1.0000
  S   S39       1.0  0.13659236617855683  0.20765237734974726  0.040174812155440165  1.0000
  S   S40       1.0  0.14146556259483556  0.24285710218386267  0.8532792015034772  1.0000
  Fe  Fe21      1.0  0.09832856107909203  0.47107898191976527  0.11747122766377838  1.0000
  S   S41       1.0  0.05910801934265675  0.4909693737502791  0.09508078498626582  1.0000
  S   S42       1.0  0.11707760554413205  0.47641156258524076  0.24502790627101567  1.0000
  Fe  Fe22      1.0  0.1025994425607406  0.445313979070297  0.9387643384019522  1.0000
  S   S43       1.0  0.06411404479304506  0.46381762331225274  0.8997510423264411  1.0000
  S   S44       1.0  0.12387714862499877  0.41509342730925475  0.8465844508419449  1.0000
  Fe  Fe23      1.0  0.07616521694814526  0.5058089505857346  0.9698330646219542  1.0000
  S   S45       1.0  0.06892840809543177  0.5533010701909868  0.9224919290531413  1.0000
  Fe  Fe24      1.0  0.05105740319633534  0.4471631349203578  0.027954903958936628  1.0000
  S   S46       1.0  0.015914640278031467  0.4186683359344716  0.04673482597874745  1.0000
  S   S47       1.0  0.11619921117245727  0.48908391165760945  0.9963651668413648  1.0000
  S   S48       1.0  0.08863840221889263  0.4255875377469406  0.06255307710854718  1.0000
  Fe  Fe25      1.0  0.9516754671310218  0.441174689043838  0.46029922233764387  1.0000
  S   S49       1.0  0.989144908571923  0.4278004678336648  0.5189278432950415  1.0000
  S   S50       1.0  0.951526668253753  0.4748006355522545  0.3522067858689202  1.0000
  Fe  Fe26      1.0  0.9198778574413107  0.40548209301808824  0.5878020504327988  1.0000
  S   S51       1.0  0.9545277842484525  0.38913811350338584  0.660317080074884  1.0000
  S   S52       1.0  0.8788227739286333  0.39576665272522826  0.6272945082561094  1.0000
  Fe  Fe27      1.0  0.9692781808175883  0.4365704099750435  0.6434951855575779  1.0000
  S   S53       1.0  0.9941296962944929  0.4613611330651507  0.7358034183524185  1.0000
  Fe  Fe28      1.0  0.9717972530377333  0.3815632278127094  0.5304584057543495  1.0000
  S   S54       1.0  0.9976439276779421  0.34115511625796646  0.5163167535785936  1.0000
  S   S55       1.0  0.9329334216563826  0.45397432998716436  0.584355339030665  1.0000
  S   S56       1.0  0.935941065737245  0.3936142793081605  0.4584094494869335  1.0000
  Fe  Fe29      1.0  0.7256596445334854  0.5232540988395098  0.35954518090090115  1.0000
  S   S57       1.0  0.7585352039548727  0.5210214697583015  0.45051256351378205  1.0000
  S   S58       1.0  0.7188471511260224  0.5654921048542152  0.28235490988981193  1.0000
  Fe  Fe30      1.0  0.7066900861578632  0.46046852731294974  0.40552472061256783  1.0000
  S   S59       1.0  0.7376435029278146  0.4523553783963591  0.5030663862674378  1.0000
  S   S60       1.0  0.6768145300723848  0.42731333996129217  0.36186936524307534  1.0000
  Fe  Fe31      1.0  0.7293632674973349  0.5009434268488108  0.5406806279804156  1.0000
  S   S61       1.0  0.729951702563294  0.5215602682867309  0.6714299800353383  1.0000
  Fe  Fe32      1.0  0.7640354842406397  0.47328195091221587  0.404993067297007  1.0000
  S   S62       1.0  0.8033229223522094  0.45730604169011535  0.3629929005465235  1.0000
  S   S63       1.0  0.6958137370420908  0.5068889105877009  0.4527806939171253  1.0000
  S   S64       1.0  0.7338164414208546  0.477368189488096  0.3042295232302161  1.0000
  Fe  Fe33      1.0  0.7095661111185779  0.21098201408440254  0.5404099601913614  1.0000
  S   S65       1.0  0.7336431900938293  0.21516773967506564  0.4214687994853934  1.0000
  S   S66       1.0  0.7059292802316914  0.16675604737387953  0.6105010762773445  1.0000
  Fe  Fe34      1.0  0.6948225029796886  0.2774792071010748  0.5427205656931147  1.0000
  S   S67       1.0  0.7175347694678794  0.28787064968622067  0.42414477629656466  1.0000
  S   S68       1.0  0.6746567822221855  0.31519837699818687  0.6124594751412173  1.0000
  Fe  Fe35      1.0  0.7009327277549096  0.24428555991777712  0.37561729792206444  1.0000
  S   S69       1.0  0.6864683849654893  0.24414513275636254  0.2416594112859567  1.0000
  Fe  Fe36      1.0  0.7479082045586412  0.2580599583300346  0.481651601886397  1.0000
  S   S70       1.0  0.7895075273520376  0.27159121846672246  0.4761368260900918  1.0000
  S   S71       1.0  0.6753349012406217  0.23641451943296773  0.4896229059128847  1.0000
  S   S72       1.0  0.7266636029895238  0.2514208327690938  0.60532626592361  1.0000
  Fe  Fe37      1.0  0.9478859347672233  0.18245717546844395  0.6586591554608674  1.0000
  S   S73       1.0  0.9703010487626319  0.17112446829594505  0.5395238972115703  1.0000
  S   S74       1.0  0.9643971381422408  0.19793038786033648  0.7829554537658197  1.0000
  Fe  Fe38      1.0  0.8968379084767237  0.1636729131795139  0.5824600336687946  1.0000
  S   S75       1.0  0.9145071131292221  0.15058933780144768  0.4565976948088861  1.0000
  S   S76       1.0  0.8544917799804663  0.15957498044263124  0.6107038496886719  1.0000
  Fe  Fe39      1.0  0.9456339993946921  0.12938172602673792  0.5359671975013477  1.0000
  S   S77       1.0  0.9640095829734301  0.08415207090454638  0.5058691709047058  1.0000
  Fe  Fe40      1.0  0.9373139291975945  0.19348690318856185  0.4712854082465734  1.0000
  S   S78       1.0  0.9412099549730604  0.22740187373799783  0.36417682068856316  1.0000
  S   S79       1.0  0.9260138110804206  0.1387458900616967  0.661297650271937  1.0000
  S   S80       1.0  0.9170038720618758  0.20842757878260643  0.5911993538170585  1.0000
  Fe  Fe41      1.0  0.6164996986339436  0.40988901549627743  0.857773205190738  1.0000
  S   S81       1.0  0.6490283523294883  0.37893426599164254  0.8961999539749156  1.0000
  S   S82       1.0  0.5997119482683236  0.41238242831887156  0.7266164312644341  1.0000
  Fe  Fe42      1.0  0.610679528413822  0.4378666797745468  0.032947870139854674  1.0000
  S   S83       1.0  0.6418710462517045  0.4090867909247591  0.0888669446233068  1.0000
  S   S84       1.0  0.5914425311258364  0.4730794205490383  0.11508164194739101  1.0000
  Fe  Fe43      1.0  0.6634582404485182  0.4192379613044205  0.9680062537873814  1.0000
  S   S85       1.0  0.7043800410825797  0.43386901480679063  0.9793606792831768  1.0000
  Fe  Fe44      1.0  0.6245955636480326  0.37139266665558435  0.013359613014209737  1.0000
  S   S86       1.0  0.6198747198173833  0.32610798838788  0.076395890005172  1.0000
  S   S87       1.0  0.6337564194598392  0.45126494099007086  0.9172629706317244  1.0000
  S   S88       1.0  0.5907649373163462  0.3990588241157135  0.9698287713120768  1.0000
  Fe  Fe45      1.0  0.5333501957712886  0.14342149096373807  0.9368222319282145  1.0000
  S   S89       1.0  0.5499409121241838  0.18457392165904943  0.9994526546965502  1.0000
  S   S90       1.0  0.4918628817969752  0.1311132221939709  0.9250348563271461  1.0000
  Fe  Fe46      1.0  0.5849592845290974  0.12001497734031061  0.8749999383256873  1.0000
  S   S91       1.0  0.6069354140080133  0.1587457662170087  0.9299023857169116  1.0000
  S   S92       1.0  0.6025304048298011  0.07989086353023656  0.8094504479892811  1.0000
  Fe  Fe47      1.0  0.5811504156050653  0.15255623179164637  0.044503427697695885  1.0000
  S   S93       1.0  0.5973990937660979  0.14934054864853347  0.17704227449836463  1.0000
  Fe  Fe48      1.0  0.5743626264565926  0.1873926132023489  0.8802332766481963  1.0000
  S   S94       1.0  0.5818730990839592  0.23046115111576793  0.8071996623939318  1.0000
  S   S95       1.0  0.5617865977470041  0.1110259360169574  0.9932875249577958  1.0000
  S   S96       1.0  0.5549025736108452  0.14901138257403676  0.8136988111399541  1.0000
  C   C1        1.0  0.5854948772961179  0.5046445702630423  0.04940348697496311  1.0000
  C   C2        1.0  0.5852592154709038  0.5011139260730981  0.9606819542127839  1.0000
  C   C3        1.0  0.6038799019523962  0.023975851678815333  0.8866150034291653  1.0000
  C   C4        1.0  0.6084018251808226  0.0551770741722466  0.8946457804183447  1.0000
  C   C5        1.0  0.6150367488048657  0.06729514923723294  0.9738951630343242  1.0000
  C   C6        1.0  0.583412264598198  0.5337725874346434  0.08471253832297188  1.0000
  H   H1        1.0  0.5854122946422043  0.47859089362215557  0.9330782033316076  1.0000
  H   H2        1.0  0.5984688923026534  0.014613045001937055  0.8255359048539138  1.0000
  H   H3        1.0  0.6186091383253152  0.09144296366431127  0.980321168862787  1.0000
  H   H4        1.0  0.5830615527520357  0.5366069166099215  0.15334710191632395  1.0000
  C   C7        1.0  0.6116774519250249  0.2986760260800589  0.0007841465283762172  1.0000
  C   C8        1.0  0.6109683081118789  0.30631175865005017  0.9142084870206686  1.0000
  C   C9        1.0  0.602156185992802  0.2852732670116241  0.8542733532727933  1.0000
  C   C10       1.0  0.5942839485129565  0.25637021172587604  0.8809083985386703  1.0000
  C   C11       1.0  0.5957920538117003  0.24841377200637807  0.9672610318130003  1.0000
  C   C12       1.0  0.6043818168869777  0.2695557034131211  0.027308304424789265  1.0000
  H   H5        1.0  0.6170226242919812  0.32850449613376587  0.8933875157798782  1.0000
  H   H6        1.0  0.6012375020355295  0.2915999719870858  0.7877676607768241  1.0000
  H   H7        1.0  0.5901329101889976  0.2260685478279876  0.9883040052252432  1.0000
  H   H8        1.0  0.6049866642373927  0.2634184507548066  0.09430089696264643  1.0000
  C   C13       1.0  0.6617095292646532  0.21780304084279004  0.2245655659795447  1.0000
  C   C14       1.0  0.6485665597437725  0.21808043690004605  0.14697642035579217  1.0000
  C   C15       1.0  0.6287438387348618  0.19715968134811973  0.1324332420547638  1.0000
  C   C16       1.0  0.6220683186837881  0.17580632541332283  0.1950953725857556  1.0000
  C   C17       1.0  0.6353008723636143  0.1754828650367572  0.2727195518282526  1.0000
  C   C18       1.0  0.655010902250366  0.1965382585859165  0.28752493987268446  1.0000
  H   H9        1.0  0.6536165440517978  0.23453055756455632  0.09807500277084236  1.0000
  H   H10       1.0  0.6186285956262307  0.19761599375106406  0.07274560069237057  1.0000
  H   H11       1.0  0.6303850324975797  0.15897674326488037  0.32136164119880206  1.0000
  H   H12       1.0  0.6652235772560554  0.19605919506403455  0.3470540327065992  1.0000
  C   C19       1.0  0.807923246328055  0.24091418953592175  0.5144235946670473  1.0000
  C   C20       1.0  0.7965528163683177  0.2191605683472797  0.5680502829377705  1.0000
  C   C21       1.0  0.811195679014083  0.19464964535079654  0.598814829271836  1.0000
  C   C22       1.0  0.8370478432281815  0.19130258790435958  0.5743051838796772  1.0000
  C   C23       1.0  0.8484279590277781  0.2128943069940515  0.5200251706217871  1.0000
  C   C24       1.0  0.8339221711222451  0.23789841938091644  0.4908067385778876  1.0000
  H   H13       1.0  0.7765447854971922  0.22134450671252506  0.5867873603036166  1.0000
  H   H14       1.0  0.8025524258965142  0.1783519952523515  0.6421079050683948  1.0000
  H   H15       1.0  0.8681752329402453  0.20991818803339204  0.4988883807848853  1.0000
  H   H16       1.0  0.8425584435581304  0.2542884237968955  0.44763624026644244  1.0000
  C   C25       1.0  0.723636925303164  0.49563232751191677  0.7539105159049443  1.0000
  C   C26       1.0  0.7363729682482462  0.49901812226776127  0.8315936121152143  1.0000
  C   C27       1.0  0.7311020457073024  0.4791812208556331  0.8996060260958586  1.0000
  C   C28       1.0  0.7123263882332171  0.4566875952578374  0.8912031869498647  1.0000
  C   C29       1.0  0.6993411352289086  0.4534298845908535  0.8137296089305558  1.0000
  C   C30       1.0  0.7053283457272688  0.4726068439334637  0.74442964890389  1.0000
  H   H17       1.0  0.7506278151794307  0.5167299048587237  0.838756803638802  1.0000
  H   H18       1.0  0.7413423287998817  0.48154817159993135  0.9590575838056412  1.0000
  H   H19       1.0  0.6848002900968708  0.4360192543228698  0.8069895521865359  1.0000
  H   H20       1.0  0.6953077095140536  0.4700916172389299  0.6845797943659854  1.0000
  C   C31       1.0  0.6745472109520362  0.39679089325679284  0.4333176397516558  1.0000
  C   C32       1.0  0.6678540946239082  0.3680148728672768  0.4028842804341235  1.0000
  C   C33       1.0  0.6676620410252216  0.3428875626433914  0.4581952361752113  1.0000
  C   C34       1.0  0.6731108732294034  0.3468348443315956  0.5447283067448647  1.0000
  C   C35       1.0  0.6785489221129661  0.37589823546604084  0.5760769897827772  1.0000
  C   C36       1.0  0.6797263593268497  0.40083919088298736  0.5200062371228755  1.0000
  H   H21       1.0  0.6634619616378252  0.36507608068554126  0.33617171464688234  1.0000
  H   H22       1.0  0.6632701362234372  0.3204522286019639  0.43401419192138735  1.0000
  H   H23       1.0  0.6824156530303963  0.3790092851049565  0.6433079149291235  1.0000
  H   H24       1.0  0.6843389510369686  0.4232222085606407  0.5441021307107132  1.0000
  C   C37       1.0  0.7163590009307391  0.5952126617177679  0.3560630015785453  1.0000
  C   C38       1.0  0.7171780659579231  0.5887002139196591  0.44345416473151616  1.0000
  C   C39       1.0  0.6909669140044272  0.1431695750793761  0.4571020061927873  1.0000
  C   C40       1.0  0.6969081836891189  0.13726773545432977  0.5424844010513364  1.0000
  C   C41       1.0  0.6951706474562549  0.10759996669776492  0.5746155026858856  1.0000
  C   C42       1.0  0.7151671941013032  0.6254967740891555  0.3282894926937563  1.0000
  H   H25       1.0  0.7180600652265124  0.5655136447815804  0.4657850294358403  1.0000
  H   H26       1.0  0.6924749725416838  0.1660397733987871  0.4320323118739964  1.0000
  H   H27       1.0  0.6995752893135817  0.1029637764659298  0.6408475037160141  1.0000
  H   H28       1.0  0.7144032636633997  0.6306604872245614  0.2606897701433423  1.0000
  C   C43       1.0  0.0032008101773510766  0.4947845319422037  0.6827583564117624  1.0000
  C   C44       1.0  0.9853630210316743  0.5096574945737358  0.6306857241271611  1.0000
  C   C45       1.0  0.921008818663501  0.06028538778934302  0.5836447288666222  1.0000
  C   C46       1.0  0.9449439961071325  0.05418163960683755  0.5453312900190559  1.0000
  C   C47       1.0  0.9537292580075291  0.02401405220331188  0.5390672789030828  1.0000
  C   C48       1.0  0.02805617910931435  0.5066188574718946  0.6914248586510274  1.0000
  H   H29       1.0  0.966059177627678  0.5010284011211288  0.6251002230859241  1.0000
  H   H30       1.0  0.9136255745374976  0.08326721443759862  0.5861220451587422  1.0000
  H   H31       1.0  0.9722124157620073  0.019018495745991792  0.5098181236021466  1.0000
  H   H32       1.0  0.041885196878729714  0.49517623018050855  0.7319116249399329  1.0000
  C   C49       1.0  0.9821489118911311  0.31000911243494195  0.47106688564896704  1.0000
  C   C50       1.0  0.9639373144428387  0.31388388531841893  0.4064781107847921  1.0000
  C   C51       1.0  0.9519774445022511  0.28831627861390347  0.37094267055122887  1.0000
  C   C52       1.0  0.9576808141118112  0.2591209290065691  0.4021328616687822  1.0000
  C   C53       1.0  0.9758964321241198  0.25541321666891936  0.46633819643039987  1.0000
  C   C54       1.0  0.9883387757667885  0.28079938116142045  0.49996697629683673  1.0000
  H   H33       1.0  0.9594586899431085  0.3364674036073508  0.38293580887825995  1.0000
  H   H34       1.0  0.9378695988335968  0.2912038991928139  0.3210366547816419  1.0000
  H   H35       1.0  0.9806313362109147  0.23293720810987797  0.48955912544019686  1.0000
  H   H36       1.0  0.0024730435862974076  0.2779259874095797  0.5496186606903742  1.0000
  C   C55       1.0  0.857212645030532  0.4122052276459843  0.554640552123155  1.0000
  C   C56       1.0  0.8330086358725911  0.42293791814040027  0.5823090823707813  1.0000
  C   C57       1.0  0.8160625226134113  0.43679557553550186  0.5239777533408942  1.0000
  C   C58       1.0  0.8231985826920997  0.43929766710783735  0.4378334672880153  1.0000
  C   C59       1.0  0.847168390930229  0.428113453090468  0.4103780385844648  1.0000
  C   C60       1.0  0.8642156981359117  0.4149171998595709  0.46867687389391  1.0000
  H   H37       1.0  0.82763518104497  0.42117407046829636  0.6490855010556598  1.0000
  H   H38       1.0  0.7977379511057707  0.4459215297079368  0.545737782756074  1.0000
  H   H39       1.0  0.8526810978329057  0.42980211854317163  0.34366805352699714  1.0000
  H   H40       1.0  0.8826300485772198  0.40641445278182853  0.44643949975144576  1.0000
  C   C61       1.0  0.9973269186176867  0.43421239896386904  0.12985164122365234  1.0000
  C   C62       1.0  0.988966850280047  0.4155597138932907  0.1970085736998961  1.0000
  C   C63       1.0  0.9750324771040098  0.428090072746555  0.26560306622669816  1.0000
  C   C64       1.0  0.968657358540085  0.45909406048811613  0.26575326197514104  1.0000
  C   C65       1.0  0.9766631024129383  0.4777198091289785  0.19784290632033463  1.0000
  C   C66       1.0  0.9914158753985557  0.46536682855872774  0.13064842526502174  1.0000
  H   H41       1.0  0.9937316637074877  0.3915226010111558  0.19688485813530376  1.0000
  H   H42       1.0  0.9691340987455366  0.4136147876985117  0.3180019684628683  1.0000
  H   H43       1.0  0.971785079990637  0.5017115589117499  0.19781044165955342  1.0000
  H   H44       1.0  0.9979782116813494  0.4797581638481758  0.07885089886607433  1.0000
  C   C67       1.0  0.04345756220899499  0.24150664560772483  0.7529441371262033  1.0000
  C   C68       1.0  0.026969795236836624  0.24004113882912664  0.682993764447295  1.0000
  C   C69       1.0  0.0024198455093804583  0.22706592847167342  0.6921599656660531  1.0000
  C   C70       1.0  0.9942990913225647  0.21584813932391322  0.7715297595163884  1.0000
  C   C71       1.0  0.010687266965594189  0.21754605798816715  0.8417544167398039  1.0000
  C   C72       1.0  0.03533537458686231  0.23011220205482022  0.832283198934431  1.0000
  H   H45       1.0  0.03345224588125073  0.24842240808301658  0.621483112322606  1.0000
  H   H46       1.0  0.9897575155961517  0.22580487118348877  0.6380331103875208  1.0000
  H   H47       1.0  0.004555246744924579  0.20855963389134305  0.9030473013498013  1.0000
  H   H48       1.0  0.04800968984184539  0.23092810104165643  0.8864779309157111  1.0000
  C   C73       1.0  0.07439430304909211  0.5791989037039564  0.005349694378005809  1.0000
  C   C74       1.0  0.08588909740860684  0.5695784053608899  0.08144752976944547  1.0000
  C   C75       1.0  0.07024890212667945  0.13025237776262508  0.03686448466703118  1.0000
  C   C76       1.0  0.05260185079993551  0.15210325050424428  0.06679038119254721  1.0000
  C   C77       1.0  0.02625377023175446  0.14534327307641492  0.0693337819023474  1.0000
  C   C78       1.0  0.06703700650229183  0.6097047625513734  0.9954571111556588  1.0000
  H   H49       1.0  0.09176097791764248  0.5460953672950757  0.08945458466959466  1.0000
  H   H50       1.0  0.09062772627166482  0.13542417141375387  0.034749067678051304  1.0000
  H   H51       1.0  0.012518652340178571  0.1622532279890849  0.09136927733517441  1.0000
  H   H52       1.0  0.05748342874271728  0.6171310180172223  0.9379460397589211  1.0000
  C   C79       1.0  0.146872785411857  0.32887232577902464  0.9912779229715062  1.0000
  C   C80       1.0  0.14984698492312254  0.35748988013939764  0.029044101358766783  1.0000
  C   C81       1.0  0.14273976708973124  0.38395324406232356  0.9844783383093937  1.0000
  C   C82       1.0  0.13348694426766583  0.3820255846110043  0.9011454210618512  1.0000
  C   C83       1.0  0.13136365802683314  0.3535644229468817  0.8621883895552079  1.0000
  C   C84       1.0  0.13752604473200103  0.3270088613191013  0.9078520514054395  1.0000
  H   H53       1.0  0.15698861520255503  0.35926254841826666  0.09343072877387315  1.0000
  H   H54       1.0  0.14452104314066294  0.40589050551584205  0.014494535144647047  1.0000
  H   H55       1.0  0.12425321398878797  0.3519029885190941  0.797670222676342  1.0000
  H   H56       1.0  0.134993824220492  0.3051508892925192  0.878181698759823  1.0000
  C   C85       1.0  0.46412176282137524  0.08270259479435406  0.16598035388510124  1.0000
  C   C86       1.0  0.450199295702036  0.08036994674682289  0.09027507198210394  1.0000
  C   C87       1.0  0.458389296422668  0.09608338949137919  0.017027467220658954  1.0000
  C   C88       1.0  0.4808852462380534  0.1134903562457687  0.01880637598908974  1.0000
  C   C89       1.0  0.4950274711723882  0.11557578998059702  0.09423873355106283  1.0000
  C   C90       1.0  0.4864836034693085  0.10041691622978813  0.16818907117143578  1.0000
  H   H57       1.0  0.432828876747635  0.06683454381180891  0.08869091016314123  1.0000
  H   H58       1.0  0.44736946617479495  0.09456645446872165  0.9588758895376213  1.0000
  H   H59       1.0  0.5123538851950317  0.12918058896042434  0.09603834133056721  1.0000
  H   H60       1.0  0.49727618027483816  0.10231560501051519  0.22667975083439162  1.0000
  C   C91       1.0  0.19602780290485952  0.18442422125599817  0.5896751686025895  1.0000
  C   C92       1.0  0.21064646387034353  0.1642699338229715  0.63915794990522  1.0000
  C   C93       1.0  0.2017274738760381  0.15560241002160352  0.7205787346462413  1.0000
  C   C94       1.0  0.1783127422726279  0.16723689343330622  0.7522750851498454  1.0000
  C   C95       1.0  0.1632665046984526  0.1863404428540908  0.7011976078918057  1.0000
  C   C96       1.0  0.17215329072135005  0.19498380376966457  0.620068770571  1.0000
  H   H61       1.0  0.22914094863385898  0.15613177600090491  0.6158649210814239  1.0000
  H   H62       1.0  0.21338720833364636  0.14079054196145227  0.7600472639289533  1.0000
  H   H63       1.0  0.14489297198423295  0.1947943375351522  0.7245075202327594  1.0000
  H   H64       1.0  0.1607107870190844  0.210353118973984  0.5814959750600912  1.0000
  C   C97       1.0  0.34899160127036866  0.12345566518989101  0.5630926606164475  1.0000
  C   C98       1.0  0.35433520482952985  0.15466304447167842  0.5651666464092832  1.0000
  C   C99       1.0  0.37978761700582225  0.16455207815253758  0.5770613538499639  1.0000
  C   C100      1.0  0.3999748593697199  0.14333813291781206  0.5824943493995675  1.0000
  C   C101      1.0  0.394468868646673  0.11221773922878946  0.5823428106359327  1.0000
  C   C102      1.0  0.3689934992850495  0.10228914373883895  0.573727120053058  1.0000
  H   H65       1.0  0.33880582424799977  0.17107533952728923  0.5592969192122502  1.0000
  H   H66       1.0  0.38393078292333555  0.18856877998362406  0.5811914691520865  1.0000
  H   H67       1.0  0.40973693018358026  0.09577298721320733  0.5908710028982069  1.0000
  H   H68       1.0  0.36486970831085314  0.07817291553689748  0.5743458565689791  1.0000
  C   C103      1.0  0.19657739004133432  0.431530209819305  0.2278041152430914  1.0000
  C   C104      1.0  0.1884819932579685  0.4451340326004492  0.304289282803897  1.0000
  C   C105      1.0  0.1640513216963114  0.45907783842135985  0.3099766434819051  1.0000
  C   C106      1.0  0.14777459279925675  0.4593983363150309  0.23910342457981826  1.0000
  C   C107      1.0  0.15602179150120576  0.44595272833333527  0.16276404860626092  1.0000
  C   C108      1.0  0.18031718306014247  0.43195633967960345  0.15711270710625724  1.0000
  H   H69       1.0  0.20100834859233555  0.4449725709560948  0.3589248688821447  1.0000
  H   H70       1.0  0.15779204331697338  0.4695582882325398  0.3691211433117736  1.0000
  H   H71       1.0  0.1435561925049131  0.4462463891801803  0.10816221583485586  1.0000
  H   H72       1.0  0.1864518830837852  0.421297393029797  0.0981105745668307  1.0000
  C   C109      1.0  0.23965072163060153  0.5049673898649716  0.5574725088855528  1.0000
  C   C110      1.0  0.2280811615322778  0.502575405885982  0.47749060034967483  1.0000
  C   C111      1.0  0.23147220706379237  0.040170936593267204  0.22933398205374944  1.0000
  C   C112      1.0  0.22959663865345561  0.06991629847730411  0.25968244864607737  1.0000
  C   C113      1.0  0.21719300922542523  0.07565640517279641  0.3376435386409739  1.0000
  C   C114      1.0  0.2476396552451013  0.5333115701697939  0.5872068906204553  1.0000
  H   H73       1.0  0.22189814228003635  0.4806178404179522  0.4545201160776646  1.0000
  H   H74       1.0  0.2403285167424906  0.03560300543115691  0.1677843259042906  1.0000
  H   H75       1.0  0.21364476050215322  0.09880922030923525  0.35773927386924464  1.0000
  H   H76       1.0  0.2571360814040066  0.5350827422751022  0.6482125376026434  1.0000
  C   C115      1.0  0.27150813436330307  0.30041476291462055  0.46254666650208853  1.0000
  C   C116      1.0  0.29550777856115307  0.30682081760021584  0.42515267483377284  1.0000
  C   C117      1.0  0.3063974523242339  0.2867564222789381  0.3650859710967136  1.0000
  C   C118      1.0  0.2931438006383033  0.26031446551418813  0.34304167566736554  1.0000
  C   C119      1.0  0.2687106215410444  0.2548294609207923  0.378226182512041  1.0000
  C   C120      1.0  0.25798571665434994  0.2745935315043951  0.43837315119728015  1.0000
  H   H77       1.0  0.3059594498014866  0.32679541526179945  0.44435696426973803  1.0000
  H   H78       1.0  0.3253240631888432  0.291219465843203  0.33829025496327714  1.0000
  H   H79       1.0  0.2580138242655221  0.23506948692927535  0.36037973619493235  1.0000
  H   H80       1.0  0.23915395573695128  0.2698155597860329  0.4654700320699045  1.0000
  C   C121      1.0  0.5381206040779998  0.3397785383242873  0.6944478301087762  1.0000
  C   C122      1.0  0.5387491160551804  0.3652635727313091  0.6412009962470712  1.0000
  C   C123      1.0  0.5574309834852984  0.3877730913263282  0.651748714926181  1.0000
  C   C124      1.0  0.5756119604650421  0.38486224481804737  0.7164292494851351  1.0000
  C   C125      1.0  0.5746792233243432  0.35967608738449985  0.7713869102212157  1.0000
  C   C126      1.0  0.5560265717444197  0.3369628004989128  0.760077244011031  1.0000
  H   H81       1.0  0.5246085705899178  0.36755907250302605  0.5921829995248287  1.0000
  H   H82       1.0  0.5574534827459867  0.4076845177431675  0.6109822970452361  1.0000
  H   H83       1.0  0.5887566163000625  0.35745148925145864  0.8210488052116552  1.0000
  H   H84       1.0  0.5559290516775677  0.3169121906084541  0.8002452361099601  1.0000
  C   C127      1.0  0.5409591235222011  0.2364873318599063  0.3268190663478847  1.0000
  C   C128      1.0  0.5203195917023626  0.2223485225708822  0.3686987484052215  1.0000
  C   C129      1.0  0.5236067585463063  0.1935297149483835  0.4055438637924915  1.0000
  C   C130      1.0  0.5475690177109503  0.17890976548372878  0.401245385400935  1.0000
  C   C131      1.0  0.5683230596435417  0.19318652526493943  0.36032188891980693  1.0000
  C   C132      1.0  0.5649170985508715  0.22175858844626872  0.3216498416586777  1.0000
  H   H85       1.0  0.5015679232933393  0.23311063675824348  0.3701119842632947  1.0000
  H   H86       1.0  0.5075670607395932  0.18268115833167667  0.4371577196285199  1.0000
  H   H87       1.0  0.5867605534122522  0.18171901539686294  0.3558807667101058  1.0000
  H   H88       1.0  0.5808450153804764  0.23234484725015053  0.2878119264433656  1.0000
  C   C133      1.0  0.5047980403523019  0.43887288858280127  0.43530228866163645  1.0000
  C   C134      1.0  0.5032035859306764  0.4282807647975577  0.5192010199149624  1.0000
  C   C135      1.0  0.4993580247502878  0.9582499274406945  0.5866688526302739  1.0000
  C   C136      1.0  0.4986461099621393  0.9874550729095953  0.5505123732460798  1.0000
  C   C137      1.0  0.49696135472489295  0.9905578821680415  0.4617990775209877  1.0000
  C   C138      1.0  0.5035924693566494  0.4701717147315968  0.4188942553943957  1.0000
  H   H89       1.0  0.5041449762396896  0.4043230490157742  0.5316549728422659  1.0000
  H   H90       1.0  0.5006476946629346  0.9555499706912183  0.6552207896945971  1.0000
  H   H91       1.0  0.49570795479078295  0.01272921279740169  0.4331290926348254  1.0000
  H   H92       1.0  0.505041853889044  0.4785598648029216  0.3539525912284587  1.0000
  C   C139      1.0  0.3944228351417901  0.3418821281809734  0.4056672388879363  1.0000
  C   C140      1.0  0.3683725927637063  0.34167375041566217  0.4300275538942846  1.0000
  C   C141      1.0  0.3531825900007128  0.3679975603495313  0.4206652301499574  1.0000
  C   C142      1.0  0.3637192975111275  0.39436261691059316  0.3847828723880904  1.0000
  C   C143      1.0  0.38966911268018917  0.39448243939967387  0.35889889204572545  1.0000
  C   C144      1.0  0.4051424483462095  0.36840661759769977  0.3705767858969389  1.0000
  H   H93       1.0  0.3599797662417762  0.3213105461211208  0.45745948825987304  1.0000
  H   H94       1.0  0.3333147517584067  0.36800903863456785  0.4417984005432334  1.0000
  H   H95       1.0  0.3977740375018607  0.41469328966395136  0.3297809071533322  1.0000
  H   H96       1.0  0.42520240477264737  0.3686228164332142  0.35095152670202334  1.0000
  Fe  Fe49      1.0  0.4763581330273814  0.8653720890569965  0.46101735443266717  1.0000
  S   S97       1.0  0.44973623802427126  0.8738203359077182  0.5725710294870322  1.0000
  S   S98       1.0  0.4909969754353633  0.903936694310288  0.3803418387985398  1.0000
  Fe  Fe50      1.0  0.4818882758600551  0.7981299836906007  0.4984023486982045  1.0000
  S   S99       1.0  0.4565083644494272  0.8010673108401083  0.6145499608960733  1.0000
  S   S100      1.0  0.5029924235277884  0.755215263034597  0.46214588915739574  1.0000
  Fe  Fe51      1.0  0.4310860194498493  0.8301215560500421  0.5323277276116425  1.0000
  S   S101      1.0  0.3883314261690221  0.8208768854751204  0.5358137166513337  1.0000
  Fe  Fe52      1.0  0.47768850879922614  0.844007863196946  0.6430504433319486  1.0000
  S   S102      1.0  0.49126390216839255  0.8515948877593253  0.7772114882500285  1.0000
  S   S103      1.0  0.45520031499006447  0.8243131179976141  0.4133085384624604  1.0000
  S   S104      1.0  0.5054658791564438  0.8384526924430266  0.5338244927488194  1.0000
  Fe  Fe53      1.0  0.28266108354171793  0.9166363689199708  0.3478097911390201  1.0000
  S   S105      1.0  0.258592604092356  0.9213892514821355  0.4670576827804427  1.0000
  S   S106      1.0  0.3254692937905306  0.9248152247165461  0.3481699952615005  1.0000
  Fe  Fe54      1.0  0.23585343557246422  0.9071734765527961  0.23410964406757828  1.0000
  S   S107      1.0  0.2082795767350026  0.9111800065188189  0.3439444921299175  1.0000
  S   S108      1.0  0.21552512344020652  0.8980377247440212  0.1111593744884749  1.0000
  Fe  Fe55      1.0  0.23259637659303484  0.9499247278709846  0.38544473337249796  1.0000
  S   S109      1.0  0.21233370942031218  0.9913826983777266  0.4370910063867204  1.0000
  Fe  Fe56      1.0  0.2365717188828271  0.8822798601155559  0.41357755711810196  1.0000
  S   S110      1.0  0.2199917125192716  0.8436217814556694  0.48838324952943457  1.0000
  S   S111      1.0  0.258544359075892  0.9484148337454464  0.26981573283655913  1.0000
  S   S112      1.0  0.2626162926905837  0.8748338617577424  0.2998627912348817  1.0000
  Fe  Fe57      1.0  0.2716772266010383  0.6600297722255389  0.6044991142675881  1.0000
  S   S113      1.0  0.280683425293767  0.6485963777017834  0.46804079026856726  1.0000
  S   S114      1.0  0.3049741955116934  0.6582514772091438  0.6942453172453071  1.0000
  Fe  Fe58      1.0  0.21780326302945033  0.6827224484838722  0.5644431112912747  1.0000
  S   S115      1.0  0.22240439728674521  0.6742802662991507  0.42424565948962134  1.0000
  S   S116      1.0  0.1808749254254994  0.7028804871842135  0.6140017621292632  1.0000
  Fe  Fe59      1.0  0.24047386067503201  0.6303910801950229  0.46567507531956925  1.0000
  S   S117      1.0  0.23016991139325296  0.5890218991630384  0.39046503181375525  1.0000
  Fe  Fe60      1.0  0.26202745755778345  0.6932854303167414  0.4405208924776058  1.0000
  S   S118      1.0  0.2818119491474527  0.7288085164789585  0.36279883695741555  1.0000
  S   S119      1.0  0.23292364217993597  0.6372012942849491  0.6060874086742771  1.0000
  S   S120      1.0  0.2556742262929576  0.7062786083214349  0.5770542448051058  1.0000
  Fe  Fe61      1.0  0.4682824802909352  0.5442528440394024  0.5907480402455292  1.0000
  S   S121      1.0  0.44630400262829545  0.5414579967344448  0.4687683495785191  1.0000
  S   S122      1.0  0.4872232360553307  0.5042256905537982  0.6523236055605435  1.0000
  Fe  Fe62      1.0  0.4568792140302503  0.610396718209527  0.6147496808950099  1.0000
  S   S123      1.0  0.43358191636821347  0.6145725267708497  0.49511947888839125  1.0000
  S   S124      1.0  0.4646525481000459  0.649173410633778  0.7020786924124904  1.0000
  Fe  Fe63      1.0  0.41676983442279625  0.5698448762695714  0.5367853697256932  1.0000
  S   S125      1.0  0.37529897832783593  0.5562565205117853  0.5299736659053256  1.0000
  Fe  Fe64      1.0  0.46517410310676305  0.5859880170089312  0.4373335140263921  1.0000
  S   S126      1.0  0.4792303775012247  0.5934514352652978  0.30295376090935555  1.0000
  S   S127      1.0  0.43693468162344395  0.5685710065138782  0.6620261565294182  1.0000
  S   S128      1.0  0.49014069124688814  0.5859417927887189  0.5535406484735474  1.0000
  Fe  Fe65      1.0  0.14189167070852887  0.7239565433686657  0.05653138276406677  1.0000
  S   S129      1.0  0.11158119896396101  0.6917498409660386  0.012710972345111093  1.0000
  S   S130      1.0  0.18264049948301386  0.7163288458656648  0.014303998402276141  1.0000
  Fe  Fe66      1.0  0.10416230936198856  0.7613102227723214  0.1613919461996629  1.0000
  S   S131      1.0  0.07050680521690755  0.7317515579106855  0.13042936045306286  1.0000
  S   S132      1.0  0.09879183769837652  0.8035771187606613  0.23950980850658032  1.0000
  Fe  Fe67      1.0  0.09831345454539853  0.6929541259799104  0.14919415007804293  1.0000
  S   S133      1.0  0.09146745132787348  0.6481091812369236  0.21408015598717234  1.0000
  Fe  Fe68      1.0  0.08691085605506665  0.7334058392945849  0.9975570908540428  1.0000
  S   S134      1.0  0.06199189614799394  0.7428197622979087  0.8843413683921546  1.0000
  S   S135      1.0  0.13055214474577656  0.722465178534148  0.194541952075169  1.0000
  S   S136      1.0  0.11888020879895822  0.7657194496321056  0.02700435201624818  1.0000
  Fe  Fe69      1.0  0.10424588806640299  0.0035065988473881315  0.07609223316652014  1.0000
  S   S137      1.0  0.07624475755624638  0.035057421592211924  0.1410523078727799  1.0000
  S   S138      1.0  0.1460341653708285  0.0155851228764603  0.07405285689204089  1.0000
  Fe  Fe70      1.0  0.06426184621877429  0.9550666346005763  0.04472737500729651  1.0000
  S   S139      1.0  0.03255262918141444  0.9828007862297111  0.10449725200248272  1.0000
  S   S140      1.0  0.056387702198596124  0.9075379594642646  0.9973515723738108  1.0000
  Fe  Fe71      1.0  0.05000106013309691  0.02230586195139228  0.034599336527521674  1.0000
  S   S141      1.0  0.02394489101686892  0.0588283544632513  0.9833074451978542  1.0000
  Fe  Fe72      1.0  0.061613900590077764  0.9929876217802737  0.20515291828442206  1.0000
  S   S142      1.0  0.05117591032600166  0.9911233044912244  0.3441532115146295  1.0000
  S   S143      1.0  0.07919449460087469  0.9937907008888864  0.963470481720833  1.0000
  S   S144      1.0  0.09215560542271728  0.9626294692329638  0.15075939961402973  1.0000
  Fe  Fe73      1.0  0.9335839541611443  0.8974369055231511  0.4576750312881326  1.0000
  S   S145      1.0  0.9447705241609153  0.9077894061701238  0.5925295875596721  1.0000
  S   S146      1.0  0.9622482345131399  0.8939325304876099  0.35015407647992314  1.0000
  Fe  Fe74      1.0  0.8778982145049725  0.8833685636434603  0.5043317416631805  1.0000
  S   S147      1.0  0.8845362734893768  0.8917202018066365  0.6431453387400856  1.0000
  S   S148      1.0  0.8387285798553747  0.8660830880763143  0.470363098249291  1.0000
  Fe  Fe75      1.0  0.9066261737292084  0.9323518828586086  0.597303951028548  1.0000
  S   S149      1.0  0.8967342787379309  0.9770594232614817  0.6579472691136931  1.0000
  Fe  Fe76      1.0  0.9216259772884979  0.8663744743999563  0.6244504935158361  1.0000
  S   S150      1.0  0.9351784542602464  0.8303305865991815  0.7158735726140685  1.0000
  S   S151      1.0  0.8974338087200069  0.9258926166207977  0.4589111977105933  1.0000
  S   S152      1.0  0.9128926918942858  0.8541320811523561  0.4891055577628751  1.0000
  Fe  Fe77      1.0  0.6909200117072325  0.017706446797225217  0.42467793526948844  1.0000
  S   S153      1.0  0.733062649043736  0.020872434946085816  0.45279832578661433  1.0000
  S   S154      1.0  0.6726633814184347  0.059575319029196994  0.36990846930553656  1.0000
  Fe  Fe78      1.0  0.6877532322464895  0.9517128432247113  0.4739399494047756  1.0000
  S   S155      1.0  0.7296047635118578  0.9494094585874105  0.5072510447775567  1.0000
  S   S156      1.0  0.6660479768608641  0.9077275444413143  0.4759049042888577  1.0000
  Fe  Fe79      1.0  0.7228734382701915  0.994166973288911  0.5703086119027221  1.0000
  S   S157      1.0  0.7441278128501272  0.003978220358254125  0.6912770851799324  1.0000
  Fe  Fe80      1.0  0.7358079029642653  0.9758077348789854  0.38726834255031223  1.0000
  S   S158      1.0  0.7681248448212167  0.9651856104657128  0.29613839027974803  1.0000
  S   S159      1.0  0.6800878265571634  0.9945835495738737  0.5481950845729407  1.0000
  S   S160      1.0  0.694515807169033  0.9748849910741431  0.3481913331579243  1.0000
  Fe  Fe81      1.0  0.7426380180130564  0.7096214967777856  0.4904375048031988  1.0000
  S   S161      1.0  0.7622477976968374  0.7056200307915774  0.36293975302078896  1.0000
  S   S162      1.0  0.7204586356414295  0.6715130153429963  0.5503517283417415  1.0000
  Fe  Fe82      1.0  0.7565420004796061  0.7754053219134718  0.5114700091709623  1.0000
  S   S163      1.0  0.7776906442816822  0.7777928560786299  0.3865339419531548  1.0000
  S   S164      1.0  0.7524723022330287  0.8161428553963801  0.5964979252724134  1.0000
  Fe  Fe83      1.0  0.7445045715378314  0.7512584679005992  0.3359977222696908  1.0000
  S   S165      1.0  0.7250241304990026  0.7662247991638202  0.21528438076648748  1.0000
  Fe  Fe84      1.0  0.7938545710943509  0.7320992081095644  0.4232326591305886  1.0000
  S   S166      1.0  0.8348782061229113  0.7214694217741285  0.3867239560151572  1.0000
  S   S167      1.0  0.7217505579723802  0.7525126501177885  0.45819123816889684  1.0000
  S   S168      1.0  0.7760107810283244  0.732211334966567  0.5542855734250064  1.0000
  Fe  Fe85      1.0  0.9647981166659007  0.6449586084217543  0.7187599922416066  1.0000
  S   S169      1.0  0.9977888492325605  0.6570698237955318  0.632338156951736  1.0000
  S   S170      1.0  0.970739026498733  0.649606982404757  0.8598038832585368  1.0000
  Fe  Fe86      1.0  0.9317682456928239  0.6232989903911897  0.572210653781935  1.0000
  S   S171      1.0  0.9622732403686398  0.6332752617748979  0.4730574870978281  1.0000
  S   S172      1.0  0.8916555288845122  0.607049095553627  0.5438398587419896  1.0000
  Fe  Fe87      1.0  0.989627942988443  0.6129422578107903  0.5681757583777245  1.0000
  S   S173      1.0  0.02428056682024926  0.5828664082687229  0.5469616398782122  1.0000
  Fe  Fe88      1.0  0.9675142463102152  0.6765708499771536  0.5471169656325485  1.0000
  S   S174      1.0  0.9734973390011814  0.7220612806393862  0.48387849315758075  1.0000
  S   S175      1.0  0.958627745365551  0.5990406003460895  0.6613448526370406  1.0000
  S   S176      1.0  0.9348642283609789  0.6681416769433937  0.6391006589443265  1.0000
  Fe  Fe89      1.0  0.6219971099626889  0.9031557412411654  0.927534659706736  1.0000
  S   S177      1.0  0.6501437817123621  0.8705116093990238  0.9861984094945258  1.0000
  S   S178      1.0  0.6072121693319177  0.8945909144527698  0.7956860989164157  1.0000
  Fe  Fe90      1.0  0.6260132879270331  0.9474633389771075  0.07457263716371854  1.0000
  S   S179      1.0  0.6538533176250139  0.9181464383419802  0.14634367843937102  1.0000
  S   S180      1.0  0.6155513404781117  0.993240923586237  0.12654055397607067  1.0000
  Fe  Fe91      1.0  0.6728288243951276  0.9118990045574027  0.01813342727318501  1.0000
  S   S181      1.0  0.7155325724877577  0.9165874142819076  3.0460949729471665e-05  1.0000
  Fe  Fe92      1.0  0.6279247426302834  0.8800714686817845  0.10671046902603787  1.0000
  S   S182      1.0  0.614799079201116  0.8409225027025269  0.18808294228748723  1.0000
  S   S183      1.0  0.6468171069058688  0.943833580023622  0.9490684484246692  1.0000
  S   S184      1.0  0.5981689283610204  0.9102169185355571  0.04626321967355951  1.0000
  Fe  Fe93      1.0  0.6006967027638614  0.6562442379851501  0.1260490085732191  1.0000
  S   S185      1.0  0.6265915058761481  0.6937475616814675  0.08115267346735489  1.0000
  S   S186      1.0  0.5879067151586089  0.655847561414639  0.26344939864523265  1.0000
  Fe  Fe94      1.0  0.5986453722660662  0.6277019885215108  0.9519218162024339  1.0000
  S   S187      1.0  0.6234982437008129  0.6631352855028947  0.8899107433184412  1.0000
  S   S188      1.0  0.5857227529875535  0.5878680841524182  0.8754764016331931  1.0000
  Fe  Fe95      1.0  0.6474619117542124  0.6576866702228867  0.006881446199782815  1.0000
  S   S189      1.0  0.6903805173920998  0.6528101637668774  0.0022191802574256236  1.0000
  Fe  Fe96      1.0  0.6001657758393982  0.6959528890175821  0.9690105634933452  1.0000
  S   S190      1.0  0.5857648446100323  0.7407141387790595  0.9189429121263517  1.0000
  S   S191      1.0  0.6245054793706953  0.6196889764298508  0.06367842576904859  1.0000
  S   S192      1.0  0.5725899139894345  0.661020750187317  0.018793270742714085  1.0000
  C   C145      1.0  0.6120883247564637  0.01717930336718898  0.03790588380469284  1.0000
  C   C146      1.0  0.6054776149924773  0.005010525617299866  0.9585663061264691  1.0000
  C   C147      1.0  0.5850929171623841  0.5267234176887919  0.9071455338673576  1.0000
  C   C148      1.0  0.5842844316158196  0.5559012390572531  0.942416936305629  1.0000
  C   C149      1.0  0.5825680306517391  0.559387577819074  0.031082901527044626  1.0000
  C   C150      1.0  0.616924074991753  0.04832284767489958  0.04543336035975254  1.0000
  H   H97       1.0  0.6011386303425693  0.9810477118600128  0.952739915861523  1.0000
  H   H98       1.0  0.5857954755597251  0.5238525989091515  0.8385298109971977  1.0000
  H   H99       1.0  0.5807159282566922  0.5818023155728316  0.058581008848297644  1.0000
  H   H100      1.0  0.6223437109088806  0.05791004150293544  0.10595554182605271  1.0000
  C   C151      1.0  0.6032759732017617  0.8135289071209612  0.11655294141559502  1.0000
  C   C152      1.0  0.5994116342051101  0.8214698427047804  0.03104353485343392  1.0000
  C   C153      1.0  0.5930965337099267  0.7992508426972373  0.971018304215919  1.0000
  C   C154      1.0  0.5903243632670082  0.7689185101329261  0.9964979773940043  1.0000
  C   C155      1.0  0.5922587781592554  0.7612549378239598  0.08315458058330027  1.0000
  C   C156      1.0  0.5989669703975354  0.7835125841025621  0.1431775703472744  1.0000
  H   H101      1.0  0.6015745742688664  0.844734000915462  0.01062051841714573  1.0000
  H   H102      1.0  0.5911003693538958  0.8055559361833778  0.9046338649814777  1.0000
  H   H103      1.0  0.5886562098733074  0.738200131628921  0.10396935620043846  1.0000
  H   H104      1.0  0.6013355774256206  0.7773726523366937  0.20955280258450815  1.0000
  C   C157      1.0  0.7184301647598675  0.7359480935918148  0.14609593470843674  1.0000
  C   C158      1.0  0.6982113315849867  0.7388267136203555  0.0880610798873378  1.0000
  C   C159      1.0  0.690244416541825  0.7134820970837753  0.04108728302975617  1.0000
  C   C160      1.0  0.7027632744551087  0.6853847428470461  0.051017290625177125  1.0000
  C   C161      1.0  0.7239713006958258  0.6829583686002664  0.10512822671698707  1.0000
  C   C162      1.0  0.7317427384367705  0.7082373938208995  0.15281019575954335  1.0000
  H   H105      1.0  0.687949295322691  0.7602622917371786  0.08217274339031277  1.0000
  H   H106      1.0  0.6741959157876612  0.7156111688844288  0.9978387945862589  1.0000
  H   H107      1.0  0.7338205282473225  0.6613208578601939  0.11229769986215388  1.0000
  H   H108      1.0  0.7480064409115607  0.7062373142370617  0.19460490324955715  1.0000
  C   C163      1.0  0.849869176525057  0.6894348772320981  0.4317314943445345  1.0000
  C   C164      1.0  0.8365217436993818  0.6695991671934306  0.48632396540541367  1.0000
  C   C165      1.0  0.8491126412116438  0.6437237682347701  0.5195322884074137  1.0000
  C   C166      1.0  0.8752353470274146  0.63841074883116  0.5003239917104977  1.0000
  C   C167      1.0  0.8885478503961894  0.6586389828494148  0.4471031489065438  1.0000
  C   C168      1.0  0.8758016722129087  0.6838124597690505  0.41193832985442436  1.0000
  H   H109      1.0  0.8166229242204436  0.6743286501046247  0.5032219455053689  1.0000
  H   H110      1.0  0.8389013940569743  0.6283954753582174  0.5620617801837955  1.0000
  H   H111      1.0  0.9086998848470489  0.6547596250647636  0.432139590065218  1.0000
  H   H112      1.0  0.8862093298613322  0.6991245890986078  0.36979251126433743  1.0000
  C   C169      1.0  0.7360943477472677  0.9787398444888166  0.7747393623287536  1.0000
  C   C170      1.0  0.752041058560048  0.97698916420879  0.8462211080787376  1.0000
  C   C171      1.0  0.7460388844476358  0.957091151021432  0.9136745506309107  1.0000
  C   C172      1.0  0.7236247452338592  0.9394907595670318  0.9113229247942115  1.0000
  C   C173      1.0  0.7076884233950758  0.9410805827869458  0.8396406666192217  1.0000
  C   C174      1.0  0.7140689235227505  0.9604601490960768  0.7709558130835752  1.0000
  H   H113      1.0  0.7691229608395365  0.9909738047683296  0.8494204580128314  1.0000
  H   H114      1.0  0.7585578294280396  0.9557832157443622  0.9684906523466432  1.0000
  H   H115      1.0  0.6905838790763358  0.9271736999430816  0.8365176168303398  1.0000
  H   H116      1.0  0.7017178339831917  0.9615862383572236  0.7157314897581808  1.0000
  C   C175      1.0  0.6887837459193173  0.8811834043494695  0.5119686469355821  1.0000
  C   C176      1.0  0.6933162336907726  0.8543208591178532  0.46645309220256936  1.0000
  C   C177      1.0  0.713441266420493  0.8347294133771324  0.4906200353543244  1.0000
  C   C178      1.0  0.7287285302484934  0.8416511096490462  0.5610622591715718  1.0000
  C   C179      1.0  0.7239770750535076  0.8683779213792809  0.606946165939949  1.0000
  C   C180      1.0  0.7039686403577508  0.8880463932956335  0.582602696504595  1.0000
  H   H117      1.0  0.6817712710944361  0.8491046012017547  0.41124705154593855  1.0000
  H   H118      1.0  0.7172377443089634  0.8144599650255714  0.45423166296188877  1.0000
  H   H119      1.0  0.7356900148747285  0.8738304189184597  0.6616173507010769  1.0000
  H   H120      1.0  0.7003154236772865  0.9086685998118341  0.6185904246139754  1.0000
  C   C181      1.0  0.6814814341148168  0.08967439972148172  0.43613009463069785  1.0000
  C   C182      1.0  0.6828537547564092  0.11942452237131596  0.4041150343709743  1.0000
  C   C183      1.0  0.7175611446305714  0.6122829778602086  0.5030291656329708  1.0000
  C   C184      1.0  0.7172648160538729  0.6424882710693628  0.475479753536447  1.0000
  C   C185      1.0  0.7157921391800486  0.6491758121802055  0.3881935878859612  1.0000
  C   C186      1.0  0.6877256290936896  0.08378738334358138  0.5212580518145843  1.0000
  H   H121      1.0  0.6781577719474137  0.12404865525051179  0.3380756173485604  1.0000
  H   H122      1.0  0.7192428873041671  0.6070769401979741  0.5702093297919189  1.0000
  H   H123      1.0  0.7153416968561327  0.6725442026469249  0.36668061397139895  1.0000
  H   H124      1.0  0.6865862812201208  0.06089462981656535  0.5464885593506588  1.0000
  C   C187      1.0  0.915251241251478  0.0064570748768095765  0.6133376505061255  1.0000
  C   C188      1.0  0.9063903110592448  0.036534948155302116  0.6189079565291195  1.0000
  C   C189      1.0  0.99212361034799  0.5364328905883995  0.5878867501593036  1.0000
  C   C190      1.0  0.016909887926571887  0.5482377448211165  0.5960550826145201  1.0000
  C   C191      1.0  0.03504538884233144  0.5332245556420289  0.6470673838842442  1.0000
  C   C192      1.0  0.9387334962276889  0.00012159835525626939  0.5721485919157328  1.0000
  H   H125      1.0  0.8881197402843702  0.041481296029167725  0.6499331265161289  1.0000
  H   H126      1.0  0.9781036734574852  0.5479570691652715  0.5482869843004509  1.0000
  H   H127      1.0  0.05417368285834678  0.5425626942216724  0.6542681501473036  1.0000
  H   H128      1.0  0.9456466024335343  0.9769040085827018  0.5677137221715298  1.0000
  C   C193      1.0  0.9485246621020803  0.8006180331223833  0.6555548580219307  1.0000
  C   C194      1.0  0.9573214454535466  0.8061875481500217  0.5724172424671867  1.0000
  C   C195      1.0  0.9647840742989688  0.7818994224990415  0.5199450772294595  1.0000
  C   C196      1.0  0.9647676309505266  0.7521501133497609  0.5516781022899633  1.0000
  C   C197      1.0  0.9573846445442481  0.7468072243892035  0.6364839749697873  1.0000
  C   C198      1.0  0.9490423690902833  0.770976127698659  0.6883400305108733  1.0000
  H   H129      1.0  0.9581879515229161  0.8292067632032533  0.5481305241290966  1.0000
  H   H130      1.0  0.9699670659669781  0.7860283427352589  0.4542058459497511  1.0000
  H   H131      1.0  0.9576536938989616  0.724031024095245  0.661721168986171  1.0000
  H   H132      1.0  0.9424476179608788  0.7665378920253104  0.7529455168375103  1.0000
  C   C199      1.0  0.8194015071426078  0.8921762151525507  0.41515647487941587  1.0000
  C   C200      1.0  0.8303437604091793  0.9150094660717675  0.36410333639663706  1.0000
  C   C201      1.0  0.8144824886000592  0.9369799481793104  0.3253519560177837  1.0000
  C   C202      1.0  0.7877772741804028  0.9364399318494505  0.339137815998924  1.0000
  C   C203      1.0  0.7768899813678983  0.9130998236020175  0.38839909978260273  1.0000
  C   C204      1.0  0.7926335951898142  0.890864228204024  0.4257487146564043  1.0000
  H   H133      1.0  0.8509982100800364  0.9157390550056779  0.3543929705303903  1.0000
  H   H134      1.0  0.8229794573297491  0.9547715399819205  0.2864084778256512  1.0000
  H   H135      1.0  0.7562877947170583  0.9117872880538704  0.39687315704477233  1.0000
  H   H136      1.0  0.7840984364004324  0.8730494473048993  0.4647201452286706  1.0000
  C   C205      1.0  0.028116572368536152  0.9622242570217258  0.3537505924075395  1.0000
  C   C206      1.0  0.026751726568587486  0.9400835694112383  0.29013715391381933  1.0000
  C   C207      1.0  0.006608037931271182  0.919049732437333  0.2903089217219663  1.0000
  C   C208      1.0  0.9876909852603553  0.9199822715353677  0.35438387242287583  1.0000
  C   C209      1.0  0.9892486867691697  0.9417383542173081  0.41939648542933927  1.0000
  C   C210      1.0  0.009608745191464374  0.9627798294345026  0.419414471161887  1.0000
  H   H137      1.0  0.04100928014090943  0.939460551429625  0.23963986600945186  1.0000
  H   H138      1.0  0.005377219468837513  0.9025117974954047  0.23943331700810333  1.0000
  H   H139      1.0  0.974530090815396  0.9428150072703119  0.46852011086481427  1.0000
  H   H140      1.0  0.010447142361590833  0.9800690563230513  0.46840285206495724  1.0000
  C   C211      1.0  0.0347173056730381  0.7194835366311255  0.8846952810336991  1.0000
  C   C212      1.0  0.03093565121941033  0.6977683409890982  0.9491324430648145  1.0000
  C   C213      1.0  0.010519889600984822  0.6769958461784109  0.9438919139816959  1.0000
  C   C214      1.0  0.9939479494096615  0.677987526502134  0.873943920846091  1.0000
  C   C215      1.0  0.9971789613855945  0.7005038015274391  0.8115509978190114  1.0000
  C   C216      1.0  0.017530061366828775  0.7212117150227995  0.8166778675407609  1.0000
  H   H141      1.0  0.04407384548184168  0.6964994161612804  0.0019277651570712706  1.0000
  H   H142      1.0  0.008089487240942939  0.6596775288352799  0.9925902657369156  1.0000
  H   H143      1.0  0.9841235764568783  0.7016657226342126  0.7585577745503556  1.0000
  H   H144      1.0  0.020350793684174695  0.7378951984588374  0.7665003996745962  1.0000
  C   C217      1.0  0.03518677409447313  0.09469979685628749  0.014490492718205683  1.0000
  C   C218      1.0  0.06157421699775356  0.10134058011437208  0.012070064195656371  1.0000
  C   C219      1.0  0.09033465584254018  0.5905646181967852  0.14705869553569628  1.0000
  C   C220      1.0  0.08363121343140412  0.6212449313057434  0.13602221041910578  1.0000
  C   C221      1.0  0.07179584802883765  0.6306902272635084  0.06054316717395003  1.0000
  C   C222      1.0  0.017532048646331955  0.11688169519501179  0.041892274212688374  1.0000
  H   H145      1.0  0.07527300551872007  0.08431181521715048  0.9902465490752349  1.0000
  H   H146      1.0  0.09949056620583539  0.5831537574475366  0.20539453915485395  1.0000
  H   H147      1.0  0.06604895683626388  0.6541828635314577  0.052910583317896664  1.0000
  H   H148      1.0  0.9971073687253997  0.11194764432119175  0.042994920777248646  1.0000
  C   C223      1.0  0.08579796282550434  0.8322191650159797  0.17404956011332962  1.0000
  C   C224      1.0  0.0771100353421279  0.8253232884819675  0.09208579476598722  1.0000
  C   C225      1.0  0.0681310837628788  0.84856542722087  0.03832768846553991  1.0000
  C   C226      1.0  0.0668161001252443  0.8786309574976663  0.06728045104234548  1.0000
  C   C227      1.0  0.07387314629891972  0.8850733796232343  0.15127739745834456  1.0000
  C   C228      1.0  0.08383322791382075  0.8620866373773811  0.20406502223616263  1.0000
  H   H149      1.0  0.0772803336093224  0.802142132632934  0.06963879988228094  1.0000
  H   H150      1.0  0.06269235023646069  0.8433528557223501  0.9737441479172989  1.0000
  H   H151      1.0  0.07156514597216579  0.9076557936859151  0.17601690273759596  1.0000
  H   H152      1.0  0.08992436041806373  0.8675145147941935  0.2681009868138555  1.0000
  C   C229      1.0  0.510444353370655  0.6084393933456003  0.29585552768933265  1.0000
  C   C230      1.0  0.5238223090822931  0.606799355491314  0.21799922560272766  1.0000
  C   C231      1.0  0.5480190207030474  0.6205168655191283  0.2088333807728382  1.0000
  C   C232      1.0  0.5588070434113674  0.6362134065782169  0.27714669004335923  1.0000
  C   C233      1.0  0.5456163166298077  0.6375458560073359  0.35550659516491323  1.0000
  C   C234      1.0  0.5213672783252167  0.6237776928086484  0.36475365590026154  1.0000
  H   H153      1.0  0.5154562376202009  0.5948842956629522  0.16469722648453788  1.0000
  H   H154      1.0  0.5583175362222611  0.6188481666730844  0.14891936521320348  1.0000
  H   H155      1.0  0.5538359458798489  0.649817292127407  0.4084356566207292  1.0000
  H   H156      1.0  0.5108664533098942  0.625840957399849  0.42433771032668055  1.0000
  C   C235      1.0  0.18128825336415036  0.7052746099197178  0.7253592645233319  1.0000
  C   C236      1.0  0.20303582591580405  0.696013917543194  0.7711241965284137  1.0000
  C   C237      1.0  0.20349461198607177  0.6993193553943151  0.8602105433574727  1.0000
  C   C238      1.0  0.18211172567219944  0.7116015905418648  0.9033675455679312  1.0000
  C   C239      1.0  0.16030189170830741  0.7205267461696808  0.8574451973588622  1.0000
  C   C240      1.0  0.15993684798763008  0.7174962438443472  0.7685459120363275  1.0000
  H   H157      1.0  0.21961139257302761  0.6865712446293996  0.7379687782213914  1.0000
  H   H158      1.0  0.22036909932315074  0.692316792260817  0.895561006441069  1.0000
  H   H159      1.0  0.143781781792414  0.7302173946611411  0.8900801856572109  1.0000
  H   H160      1.0  0.1431680502829306  0.7248615415373526  0.7332162786685034  1.0000
  C   C241      1.0  0.32479933812660317  0.6285684013943545  0.6577137237266685  1.0000
  C   C242      1.0  0.3516874807039202  0.6309649051915942  0.661179985871009  1.0000
  C   C243      1.0  0.36735733953557764  0.6085200540543761  0.6230407255178868  1.0000
  C   C244      1.0  0.35610219260858245  0.5834015084614622  0.5832508238713645  1.0000
  C   C245      1.0  0.329249122803409  0.5804537280017962  0.583590152405165  1.0000
  C   C246      1.0  0.31362887295378244  0.6032227955747749  0.619432676198542  1.0000
  H   H161      1.0  0.36038700867258056  0.6504865914247473  0.691188978082553  1.0000
  H   H162      1.0  0.38809717634311514  0.6108084743564702  0.6239889344726932  1.0000
  H   H163      1.0  0.3203631646839349  0.5607768973896071  0.5558187147170135  1.0000
  H   H164      1.0  0.2928623689094723  0.6011177227002826  0.6178073060594557  1.0000
  C   C247      1.0  0.19673986488704728  0.9305914315513437  0.09074965348241149  1.0000
  C   C248      1.0  0.2067783976108046  0.9593678497918107  0.1079918039356742  1.0000
  C   C249      1.0  0.19130225003380746  0.9854136195281672  0.09983685679676446  1.0000
  C   C250      1.0  0.16560443906275713  0.9828377854922571  0.07514002703609135  1.0000
  C   C251      1.0  0.15563042517415296  0.9541249059218382  0.055461395880804565  1.0000
  C   C252      1.0  0.17125582060882774  0.927978855847438  0.06286538268276587  1.0000
  H   H165      1.0  0.22662659970504118  0.961598613060919  0.12694461908359833  1.0000
  H   H166      1.0  0.1991458471467659  0.0074816510325232954  0.1145293557128757  1.0000
  H   H167      1.0  0.13593217520958426  0.9520132457708723  0.03435423558897721  1.0000
  H   H168      1.0  0.16339517137014226  0.9057940578911595  0.04888060868198174  1.0000
  C   C253      1.0  0.21478082676906868  0.021517853064546788  0.3644063753074245  1.0000
  C   C254      1.0  0.2233954329879907  0.01604108065001686  0.2812448528172351  1.0000
  C   C255      1.0  0.22458529302434577  0.5285857706787931  0.42681735321753167  1.0000
  C   C256      1.0  0.2329555455549384  0.5568980810043478  0.4559344058116441  1.0000
  C   C257      1.0  0.24457094482785308  0.5592112757945392  0.5358815452026987  1.0000
  C   C258      1.0  0.21030895308555167  0.051396934713216824  0.3912507080709422  1.0000
  H   H169      1.0  0.22446099799680191  0.9931697255127604  0.2577058258301006  1.0000
  H   H170      1.0  0.21571304218591716  0.526643348935301  0.3648018880006816  1.0000
  H   H171      1.0  0.25198540414509046  0.5807244152673259  0.5571764015832997  1.0000
  H   H172      1.0  0.20277040436001545  0.055878731547753135  0.4547023526096385  1.0000
  C   C259      1.0  0.23738614187100227  0.8118026453142079  0.4543610068923285  1.0000
  C   C260      1.0  0.26333445666738375  0.8146337405983984  0.4305883666374586  1.0000
  C   C261      1.0  0.2768549439549273  0.7895321968555712  0.397654833285662  1.0000
  C   C262      1.0  0.26454714138319574  0.7614165602055617  0.3915235766349834  1.0000
  C   C263      1.0  0.2387234598653218  0.7585845250038845  0.4168498128763675  1.0000
  C   C264      1.0  0.2251190924146699  0.7837466231106675  0.4481254486075783  1.0000
  H   H173      1.0  0.27314325529715006  0.8360781187638899  0.4386199468225247  1.0000
  H   H174      1.0  0.29690353870327263  0.7917854045575056  0.37902163473695016  1.0000
  H   H175      1.0  0.22908760630541944  0.7370081377994187  0.41181679241467223  1.0000
  H   H176      1.0  0.20505207320861954  0.7814253940160693  0.46623767173081826  1.0000
  C   C265      1.0  0.5229997200080005  0.8653219300547988  0.7830090974758624  1.0000
  C   C266      1.0  0.5359048838886173  0.8645758247293943  0.8611313517689442  1.0000
  C   C267      1.0  0.5617403470397172  0.8737294974777066  0.865710914978117  1.0000
  C   C268      1.0  0.574724408871204  0.883743566975912  0.792256623785763  1.0000
  C   C269      1.0  0.5617601065464298  0.884798069824449  0.714387647523031  1.0000
  C   C270      1.0  0.5358808636061861  0.8759052022385795  0.7099885499596982  1.0000
  H   H177      1.0  0.5260040411693772  0.8566653244654227  0.9180834920358424  1.0000
  H   H178      1.0  0.571594267640982  0.8727035815661836  0.9258896639776873  1.0000
  H   H179      1.0  0.5716338251441706  0.8929857796318814  0.657746037107674  1.0000
  H   H180      1.0  0.5258294466288146  0.8778881489777237  0.6504935286753935  1.0000
  C   C271      1.0  0.4919337986878916  0.7249558866785174  0.5253189393662263  1.0000
  C   C272      1.0  0.4670255706550708  0.725759023516611  0.5601868545565651  1.0000
  C   C273      1.0  0.45883255966130787  0.7027281392968896  0.6160161272188125  1.0000
  C   C274      1.0  0.47532211835429283  0.678414461966528  0.6350237152265877  1.0000
  C   C275      1.0  0.4997951988333523  0.6767469111465291  0.596785479499906  1.0000
  C   C276      1.0  0.5081910627572616  0.7001769085247606  0.5423460483268654  1.0000
  H   H181      1.0  0.4538596114009949  0.743839230053649  0.5430915527768491  1.0000
  H   H182      1.0  0.4395947224826979  0.7034841133871387  0.6434144965485048  1.0000
  H   H183      1.0  0.5123218178039258  0.6575111814175257  0.6098421136144445  1.0000
  H   H184      1.0  0.5273421494740769  0.6992223882334611  0.5143169015118756  1.0000
  C   C277      1.0  0.49573943702049245  0.9357172197689735  0.4457926512126728  1.0000
  C   C278      1.0  0.4976252635598706  0.9324141025698891  0.5344079614063942  1.0000
  C   C279      1.0  0.49941497684363845  0.44859586331489637  0.5868280091623235  1.0000
  C   C280      1.0  0.49676137267634246  0.4796911264961162  0.5701382585305191  1.0000
  C   C281      1.0  0.4994493885221834  0.4906080897387175  0.48641500617211947  1.0000
  C   C282      1.0  0.49606574548289434  0.9647997495574429  0.40942895186475803  1.0000
  H   H185      1.0  0.4975702637040373  0.9099988898866306  0.5630165714906786  1.0000
  H   H186      1.0  0.4974975216251602  0.4400481744800442  0.6514781289147444  1.0000
  H   H187      1.0  0.4980397135416349  0.5147639646116017  0.4733740864996176  1.0000
  H   H188      1.0  0.49450118738034976  0.9675054250262339  0.34095168569614054  1.0000
  C   C283      1.0  0.3707406018250758  0.8492956377043339  0.48208384436636076  1.0000
  C   C284      1.0  0.38346955317082676  0.8705995766823662  0.4304006732629242  1.0000
  C   C285      1.0  0.3692949999835985  0.8932606147944091  0.38789350535957046  1.0000
  C   C286      1.0  0.3424844806792326  0.8950580235843344  0.3979474824863436  1.0000
  C   C287      1.0  0.3296871323625992  0.8735879074857643  0.4488622214504825  1.0000
  C   C288      1.0  0.34380594659482666  0.8506827737130048  0.4907590589220244  1.0000
  H   H189      1.0  0.4041902841640131  0.8693499958371897  0.42243103523647685  1.0000
  H   H190      1.0  0.378964358208834  0.9091344118936634  0.3459974222294706  1.0000
  H   H191      1.0  0.30897115436443706  0.8748738775784833  0.4568105791658532  1.0000
  H   H192      1.0  0.33385128993292523  0.8344297558772106  0.5309506593566887  1.0000
  N   N1        1.0  0.41635797510542943  0.9757352827394405  0.3827337435439693  1.0000
  C   C289      1.0  0.4314881468397778  0.9473000046632185  0.392163999698264  1.0000
  C   C290      1.0  0.4333324866074415  0.002180672922213578  0.39667593277841484  1.0000
  C   C291      1.0  0.39511623963560577  0.9761115637714864  0.44637750562621026  1.0000
  C   C292      1.0  0.40559297591894156  0.977440437477402  0.2957505108030356  1.0000
  H   H193      1.0  0.4193456703305073  0.92673829461504  0.3848874506442137  1.0000
  H   H194      1.0  0.44063953194650535  0.9457562437295571  0.4561073024360607  1.0000
  H   H195      1.0  0.447149188743823  0.9457575875264947  0.34325756658132267  1.0000
  H   H196      1.0  0.4497099773719172  0.002510402696833447  0.350111420877965  1.0000
  H   H197      1.0  0.4227564752015326  0.02414863906853526  0.3886385713038929  1.0000
  H   H198      1.0  0.4416849171590242  0.001896390887124122  0.46193413843438225  1.0000
  H   H199      1.0  0.40262844287585736  0.9741191675949048  0.5125749255308873  1.0000
  H   H200      1.0  0.38155706759814484  0.9568320660346153  0.4364883475047805  1.0000
  H   H201      1.0  0.3837445912473096  0.9976255905318161  0.44244538639986986  1.0000
  H   H202      1.0  0.39433340429460817  0.9988443746470678  0.2862652003145969  1.0000
  H   H203      1.0  0.39251668025188097  0.9579606956545602  0.28289136111234425  1.0000
  H   H204      1.0  0.4211820846348139  0.9771472699954924  0.2462926408348043  1.0000
  N   N2        1.0  0.9900417999062987  0.5588017391811432  0.8978824017415762  1.0000
  C   C293      1.0  0.9618904982401556  0.5616192585428079  0.8856885313324007  1.0000
  C   C294      1.0  0.0035901001079985395  0.5710451930984967  0.8218966279792678  1.0000
  C   C295      1.0  0.9970079762965873  0.5263384350401222  0.9094212602029351  1.0000
  C   C296      1.0  0.9976303934221773  0.5762179268211863  0.9741781686141475  1.0000
  H   H205      1.0  0.950996323243017  0.552596014533524  0.941730796964193  1.0000
  H   H206      1.0  0.9555901968231177  0.5488100568945562  0.8283063265817624  1.0000
  H   H207      1.0  0.9560217477183522  0.58586915712632  0.8765662915047737  1.0000
  H   H208      1.0  0.9996032121092022  0.5957725272184051  0.8130062060533203  1.0000
  H   H209      1.0  0.024817842176047433  0.5680828296168183  0.8267558574004356  1.0000
  H   H210      1.0  0.9974402711590021  0.5592110762638325  0.7630400617774373  1.0000
  H   H211      1.0  0.9912985684839076  0.5124965413405131  0.8534036660439063  1.0000
  H   H212      1.0  0.9873126367676506  0.5163482588910394  0.9664840491370417  1.0000
  H   H213      1.0  0.018194000530780352  0.5232461083747227  0.9171989059481495  1.0000
  H   H214      1.0  0.0187260325025016  0.5743854323236658  0.9853268123771339  1.0000
  H   H215      1.0  0.9876243870656826  0.5677775980540666  0.03266126439855288  1.0000
  H   H216      1.0  0.9928983057976773  0.6008886599599775  0.9670948044435024  1.0000
  N   N3        1.0  0.041115745016063965  0.5011067834970019  0.3656684738429487  1.0000
  C   C297      1.0  0.05326790550873928  0.5238517469933128  0.30843525853378484  1.0000
  C   C298      1.0  0.05603380324346596  0.4988256924485349  0.4453835553239385  1.0000
  C   C299      1.0  0.040805841548472443  0.4710647374553259  0.32316379531580397  1.0000
  C   C300      1.0  0.01440188794064845  0.5107799930966579  0.38588747816500923  1.0000
  H   H217      1.0  0.04221966685025613  0.5266725985441159  0.24838700024174962  1.0000
  H   H218      1.0  0.07333037895216532  0.5170019195718624  0.29052186661509993  1.0000
  H   H219      1.0  0.05425397406847221  0.5466513710121769  0.3393282056954614  1.0000
  H   H220      1.0  0.04708834561566255  0.4823777530923644  0.4910351738892696  1.0000
  H   H221      1.0  0.07620725213649737  0.4911056147856873  0.4323304271209283  1.0000
  H   H222      1.0  0.057018122618098355  0.5212671703320813  0.4781665637129498  1.0000
  H   H223      1.0  0.03150798216494333  0.4534423314875557  0.3642996414256967  1.0000
  H   H224      1.0  0.060712005541681435  0.4630214983625641  0.30720281039568387  1.0000
  H   H225      1.0  0.02986690158109373  0.4719572631488749  0.26248986397658136  1.0000
  H   H226      1.0  0.004729034078212013  0.4945329172157522  0.430467402292078  1.0000
  H   H227      1.0  0.0024297937410162618  0.5121190986928977  0.32749492360326804  1.0000
  H   H228      1.0  0.013920365901889165  0.5336986785635608  0.4160629475927668  1.0000
  N   N4        1.0  0.8165699241203628  0.9536449812132776  0.6360674245588519  1.0000
  C   C301      1.0  0.792114430972851  0.9376119910101353  0.6197105328468657  1.0000
  C   C302      1.0  0.8112801788032055  0.9862386654158211  0.6522956813525619  1.0000
  C   C303      1.0  0.8337212143850284  0.9507190612117219  0.5606484232400254  1.0000
  C   C304      1.0  0.8292082302764899  0.9400218137075111  0.7113667550244148  1.0000
  H   H229      1.0  0.7825208880668312  0.9468710565153005  0.5619427188736883  1.0000
  H   H230      1.0  0.7782893208762274  0.9400284672018892  0.6742011192815257  1.0000
  H   H231      1.0  0.7954255210795973  0.912819667690287  0.6084087060510569  1.0000
  H   H232      1.0  0.8294954197741353  0.9989967625705799  0.6631404327032745  1.0000
  H   H233      1.0  0.8011280236741746  0.996999728549396  0.5975587248286862  1.0000
  H   H234      1.0  0.7987712419531137  0.98932543549498  0.7097944628525622  1.0000
  H   H235      1.0  0.8519054407532763  0.9636419316727701  0.56871231311187  1.0000
  H   H236      1.0  0.8243221012103815  0.9594721858996844  0.5018219888626562  1.0000
  H   H237      1.0  0.8391973307721308  0.9265567976365117  0.5492638972695152  1.0000
  H   H238      1.0  0.8480909015306707  0.9510928193637412  0.7240845379869979  1.0000
  H   H239      1.0  0.8330124287961523  0.9152777996510145  0.7018147525551921  1.0000
  H   H240      1.0  0.8169736220130475  0.9424142372274046  0.7697621935538921  1.0000
  N   N5        1.0  0.01436874641349517  0.11832737325358322  0.7554118518070533  1.0000
  C   C305      1.0  0.020526285965154267  0.1467125204055707  0.7086998371295992  1.0000
  C   C306      1.0  0.9998573133134228  0.09764232604636884  0.6992810403154947  1.0000
  C   C307      1.0  0.9984682703469222  0.12564254920942491  0.8315210205313388  1.0000
  C   C308      1.0  0.038582596103854616  0.10337972628632182  0.782376464213461  1.0000
  H   H241      1.0  0.032106398233243016  0.14213446492853396  0.6499468768667797  1.0000
  H   H242      1.0  0.031681084973941065  0.16275754590182825  0.7489812611502512  1.0000
  H   H243      1.0  0.002658115952786755  0.1588143563309268  0.689065140168487  1.0000
  H   H244      1.0  0.9947849593301689  0.07601551316594486  0.7326912129913916  1.0000
  H   H245      1.0  0.9814600201934003  0.10827981143229114  0.6778540527540112  1.0000
  H   H246      1.0  0.01109319963018196  0.09162087445920596  0.6407778954735696  1.0000
  H   H247      1.0  0.9943529469821385  0.10486356746721247  0.8701959102931939  1.0000
  H   H248      1.0  0.9795984575488021  0.13588623689505747  0.8134184393781647  1.0000
  H   H249      1.0  0.008282287660712928  0.14233430617913861  0.8734695234911741  1.0000
  H   H250      1.0  0.05142674121769386  0.09838203904990252  0.7268398781749257  1.0000
  H   H251      1.0  0.03469699924351599  0.08139976282978634  0.8156217459975857  1.0000
  H   H252      1.0  0.049461491626284104  0.11798995385389943  0.8274718708360574  1.0000
  N   N6        1.0  0.5907301427516771  0.4283091406224082  0.40179467783567646  1.0000
  C   C309      1.0  0.5732272192641955  0.45502619099122915  0.40339724765602525  1.0000
  C   C310      1.0  0.6073046529222893  0.4285964474919974  0.4781836826450485  1.0000
  C   C311      1.0  0.6070748442511489  0.42946443941756035  0.32394224445102604  1.0000
  C   C312      1.0  0.5752398595674004  0.4001293283531857  0.40136904533234485  1.0000
  H   H253      1.0  0.5601538196817656  0.45517877181520944  0.3472207420946287  1.0000
  H   H254      1.0  0.5841598950844736  0.4767703393878553  0.40237061714776057  1.0000
  H   H255      1.0  0.5607451894318382  0.4550378187151362  0.46173003089860853  1.0000
  H   H256      1.0  0.6202790971856987  0.40832404442199743  0.480318203688634  1.0000
  H   H257      1.0  0.6198373852449416  0.44910739893163226  0.4792644216472477  1.0000
  H   H258      1.0  0.59567986852625  0.4285728654850749  0.5383571953922919  1.0000
  H   H259      1.0  0.5951989835034416  0.42958832089124066  0.2649943438400535  1.0000
  H   H260      1.0  0.6204997425642191  0.40961103681676897  0.3204319059440821  1.0000
  H   H261      1.0  0.6191470477625601  0.450366240108553  0.32225873701062957  1.0000
  H   H262      1.0  0.5629397292360723  0.39897199571788233  0.3435331829231001  1.0000
  H   H263      1.0  0.5619918738359629  0.3990400086066036  0.457642287143452  1.0000
  H   H264      1.0  0.5877188380096079  0.379443921370962  0.4022726739934168  1.0000
  N   N7        1.0  0.22654220068495876  0.2625659689072353  0.7088710561533629  1.0000
  C   C313      1.0  0.24806524830120313  0.2469500988608417  0.6640395540551914  1.0000
  C   C314      1.0  0.20674542436818125  0.27167447081534135  0.6462812192464604  1.0000
  C   C315      1.0  0.23629173339293144  0.28995092002220135  0.7524753116331675  1.0000
  C   C316      1.0  0.21503022262020108  0.2416972569968251  0.7727127667942583  1.0000
  H   H265      1.0  0.26301773760573816  0.23886052766276564  0.7093331665142611  1.0000
  H   H266      1.0  0.2576732085004127  0.2623784764606185  0.6172132248311124  1.0000
  H   H267      1.0  0.24119010153173343  0.226759874176722  0.627919660010066  1.0000
  H   H268      1.0  0.18985964937390465  0.28278866199587627  0.6779171312415163  1.0000
  H   H269      1.0  0.21468452719063288  0.2879198695038463  0.5981970847568617  1.0000
  H   H270      1.0  0.19946224686452843  0.2516474009883299  0.6105600558192659  1.0000
  H   H271      1.0  0.2513238287757176  0.2839220255827531  0.7999430886749799  1.0000
  H   H272      1.0  0.220474592882639  0.3022763730492506  0.7866297677461294  1.0000
  H   H273      1.0  0.2451150313451766  0.3062207141522925  0.7060928978935723  1.0000
  H   H274      1.0  0.19848340359329755  0.252507219553619  0.8070633718977188  1.0000
  H   H275      1.0  0.22933532383780872  0.23433696068754525  0.821184972606857  1.0000
  H   H276      1.0  0.20769396971324097  0.22078227251822607  0.741938645121681  1.0000
  N   N8        1.0  0.6725027647930223  0.510871452755567  0.12089386600651575  1.0000
  C   C317      1.0  0.6677658023498091  0.48103510577893005  0.16206214692978338  1.0000
  C   C318      1.0  0.6607738573042824  0.535290566787092  0.17351203363699952  1.0000
  C   C319      1.0  0.660943791510219  0.5112649032702179  0.03507379876337979  1.0000
  C   C320      1.0  0.7005811150958364  0.5157821550743933  0.11259320459660893  1.0000
  H   H277      1.0  0.6759044306497324  0.48007977355499476  0.22756683152506052  1.0000
  H   H278      1.0  0.6768797211593516  0.4621674584687742  0.12503804103002603  1.0000
  H   H279      1.0  0.6467569112804915  0.476190461968766  0.16758396671456643  1.0000
  H   H280      1.0  0.639478251475798  0.5324377062292347  0.179402095821388  1.0000
  H   H281      1.0  0.6688693045704077  0.5353512875089512  0.23915164092060337  1.0000
  H   H282      1.0  0.6644784355711205  0.5582311572673887  0.14553340608127563  1.0000
  H   H283      1.0  0.6633946369300665  0.5337889784131725  0.0034776823242008703  1.0000
  H   H284      1.0  0.6398965542166886  0.5064957738933393  0.038357140210045104  1.0000
  H   H285      1.0  0.6700656633766781  0.4937415367629885  0.9930600264277265  1.0000
  H   H286      1.0  0.7099131505448438  0.49769831411907883  0.07303286023498612  1.0000
  H   H287      1.0  0.7099995362236017  0.5152515971760812  0.17584041694005403  1.0000
  H   H288      1.0  0.7049838316486391  0.5382812580706161  0.08310332446610813  1.0000
  N   N9        1.0  0.9840772931482542  0.04660046239560112  0.2709012406473694  1.0000
  C   C321      1.0  0.0024886283302347767  0.05390664846152271  0.3392646250685909  1.0000
  C   C322      1.0  0.9584765730741291  0.05961607460733642  0.2923142162327377  1.0000
  C   C323      1.0  0.9819012913236685  0.013175761398540597  0.26276326302100816  1.0000
  C   C324      1.0  0.993513421730311  0.059682647556842605  0.1893938002622344  1.0000
  H   H289      1.0  0.0034039931033025272  0.07888110285533356  0.35097029373155686  1.0000
  H   H290      1.0  0.022310501722143217  0.045888504041335265  0.3230165472637663  1.0000
  H   H291      1.0  0.9968969570323564  0.042909483250905156  0.4006783836536816  1.0000
  H   H292      1.0  0.9442688746685656  0.055208482271817516  0.24110288651412448  1.0000
  H   H293      1.0  0.9506393790855284  0.04962528165022517  0.352616660122012  1.0000
  H   H294      1.0  0.9594851082061627  0.08470909553845796  0.3021184858055377  1.0000
  H   H295      1.0  0.0009527203133705697  0.002582074025056391  0.24860956873781026  1.0000
  H   H296      1.0  0.9686231091652925  0.006732598142686452  0.21051544325495408  1.0000
  H   H297      1.0  0.9745379843114477  0.0025872605355827805  0.3229108587121925  1.0000
  H   H298      1.0  0.980354118656126  0.054511120894123355  0.13563835639948096  1.0000
  H   H299      1.0  0.012841015378505238  0.0503451693421848  0.17154384587782823  1.0000
  H   H300      1.0  0.9954098129610204  0.0848797663506029  0.19341988502834861  1.0000
  N   N10       1.0  0.3818981021372068  0.22382510562415606  0.36707265291017577  1.0000
  C   C325      1.0  0.37142476665232066  0.19348539869227324  0.34628008969572055  1.0000
  C   C326      1.0  0.4085547698784714  0.2203502080547102  0.39863986366160953  1.0000
  C   C327      1.0  0.36562581373510683  0.23840881639077385  0.43353766593255805  1.0000
  C   C328      1.0  0.3819715643349709  0.2431604136493595  0.28959263241127675  1.0000
  H   H301      1.0  0.3512451958065884  0.1951816083821708  0.3230790875769857  1.0000
  H   H302      1.0  0.3712252925061338  0.17819885473999209  0.4029975167289607  1.0000
  H   H303      1.0  0.3830762610299902  0.18202609858709445  0.29560689086115305  1.0000
  H   H304      1.0  0.42141130572765745  0.20973194694879732  0.3496934930349649  1.0000
  H   H305      1.0  0.4169609179865759  0.24279203723291845  0.4157020596315279  1.0000
  H   H306      1.0  0.4092714804549417  0.2056200089314233  0.4565834234587675  1.0000
  H   H307      1.0  0.34541517796881693  0.24133398361381228  0.4117414752401593  1.0000
  H   H308      1.0  0.37295878467729365  0.2614247548676755  0.4502799610851538  1.0000
  H   H309      1.0  0.36488353874824186  0.22457719964562695  0.4928823897803688  1.0000
  H   H310      1.0  0.39411113246811674  0.23306602711485494  0.23795038989236783  1.0000
  H   H311      1.0  0.3895269415614998  0.266333578248721  0.3032241587890452  1.0000
  H   H312      1.0  0.36212407261591195  0.2461725327775135  0.2641427608074498  1.0000
  N   N11       1.0  0.08300403560378133  0.6436639070812372  0.7293891078465201  1.0000
  C   C329      1.0  0.0659851407310712  0.6621603323683916  0.785217090008909  1.0000
  C   C330      1.0  0.08806131137307882  0.6138556080010731  0.7703685598974855  1.0000
  C   C331      1.0  0.10764725483374238  0.6598832099252093  0.7154860583356202  1.0000
  C   C332      1.0  0.07021582434563367  0.6388023888693369  0.6465738359013182  1.0000
  H   H313      1.0  0.0619677616462615  0.684907564233181  0.7564115488900636  1.0000
  H   H314      1.0  0.07485309109197846  0.6662350534076757  0.8486607184573841  1.0000
  H   H315      1.0  0.047036907017041774  0.650918594781591  0.7965659485506421  1.0000
  H   H316      1.0  0.09755410675113829  0.6165518463416941  0.8333728002887808  1.0000
  H   H317      1.0  0.06986394129103224  0.6009999817228712  0.7816687282311835  1.0000
  H   H318      1.0  0.10082087720026456  0.5992515004265986  0.7300061099961362  1.0000
  H   H319      1.0  0.12108815626486069  0.6466729712282542  0.6736597353633718  1.0000
  H   H320      1.0  0.11769989231583144  0.6640987966349186  0.776880290042037  1.0000
  H   H321      1.0  0.10452417318475149  0.6824795236821111  0.684561892501135  1.0000
  H   H322      1.0  0.06576928834430662  0.6607855463168156  0.6140530900212978  1.0000
  H   H323      1.0  0.05164279352580459  0.6264539134567357  0.6549561746654262  1.0000
  H   H324      1.0  0.0824257620684341  0.6249761403797599  0.6023310646530473  1.0000
  N   N12       1.0  0.6962637195123104  0.33053021817673656  0.15010314898563903  1.0000
  C   C333      1.0  0.688614648880677  0.3372124372917377  0.061310853097825246  1.0000
  C   C334      1.0  0.7168528412367237  0.30710199052811465  0.14969155264992007  1.0000
  C   C335      1.0  0.6737094775589141  0.31905380642600156  0.19856290829768253  1.0000
  C   C336      1.0  0.7057681214333231  0.358662963281432  0.19066440169821264  1.0000
  H   H325      1.0  0.6729768957334124  0.354538503234727  0.059469453203710776  1.0000
  H   H326      1.0  0.6810695190862995  0.316501492263804  0.02914038640852512  1.0000
  H   H327      1.0  0.7050483767624959  0.3461120046752336  0.022565921711471093  1.0000
  H   H328      1.0  0.7102433449319805  0.28574994995659586  0.11850179836856323  1.0000
  H   H329      1.0  0.7343518282729581  0.315057821212022  0.11478295275265515  1.0000
  H   H330      1.0  0.7226070200447969  0.3007430228733023  0.21574460465003087  1.0000
  H   H331      1.0  0.6789622531245743  0.31221572347787435  0.2646286425267461  1.0000
  H   H332      1.0  0.6652652226191041  0.2986431776250795  0.16733643475214444  1.0000
  H   H333      1.0  0.658119490944785  0.33648235488988915  0.20275589201345  1.0000
  H   H334      1.0  0.7116146332575288  0.3544038628908579  0.25787661515621196  1.0000
  H   H335      1.0  0.6906356831671495  0.37680332767562175  0.19189713669039166  1.0000
  H   H336      1.0  0.7226973925656869  0.368115687229343  0.1554362130968523  1.0000
  N   N13       1.0  0.29411760870218173  0.02985925641288123  0.44526689951518494  1.0000
  C   C337      1.0  0.2754979557807296  0.038473369897195964  0.5132421162268903  1.0000
  C   C338      1.0  0.3202326122328195  0.027150413634640325  0.4815537112525192  1.0000
  C   C339      1.0  0.2940293449079308  0.053432790743442427  0.3776250595805348  1.0000
  C   C340      1.0  0.28666287989322015  0.0002760912360351142  0.4085583997850002  1.0000
  H   H337      1.0  0.25559627258541273  0.04066359165900524  0.4878600564052553  1.0000
  H   H338      1.0  0.28050862648171704  0.06077788464860401  0.542336968500065  1.0000
  H   H339      1.0  0.2748774828006623  0.02115994763666751  0.5652360628397843  1.0000
  H   H340      1.0  0.3264766686047488  0.04903129121791472  0.5101668589172479  1.0000
  H   H341      1.0  0.3208804027201985  0.009535320031585082  0.5327785147736415  1.0000
  H   H342      1.0  0.33467121812486883  0.02081483362494274  0.43166421868454474  1.0000
  H   H343      1.0  0.29985007443988837  0.07599482640888944  0.40301209812356475  1.0000
  H   H344      1.0  0.2744936071732651  0.05633932376688944  0.3499124607888582  1.0000
  H   H345      1.0  0.30747356865109216  0.04756709305359896  0.3243487175693571  1.0000
  H   H346      1.0  0.3001979799512448  0.9929469230760929  0.3568071670814683  1.0000
  H   H347      1.0  0.26704988617546466  0.001534823367199012  0.380917800118578  1.0000
  H   H348      1.0  0.2864447843443172  0.9819500426518579  0.45779425980564303  1.0000
  N   N14       1.0  0.413848473320917  0.454025691569952  0.5488232069375182  1.0000
  C   C341      1.0  0.40048286499280394  0.4267616894194307  0.5824171658691941  1.0000
  C   C342      1.0  0.4239305073620097  0.47203082271596236  0.6206653259652072  1.0000
  C   C343      1.0  0.39551553972552006  0.4728673161871412  0.4995152701673345  1.0000
  C   C344      1.0  0.4354957809361347  0.44445137288333963  0.49276900304479965  1.0000
  H   H349      1.0  0.413749266216309  0.4119962860885385  0.6199671802330748  1.0000
  H   H350      1.0  0.3927114128646391  0.4125963724399746  0.529890525555194  1.0000
  H   H351      1.0  0.38387270756041764  0.4331153559222326  0.6243757896637311  1.0000
  H   H352      1.0  0.43377665832662815  0.4929793311678354  0.5975264500357322  1.0000
  H   H353      1.0  0.4081979797954427  0.4793980511197758  0.6649412818305295  1.0000
  H   H354      1.0  0.43837896940092685  0.45883426505339187  0.6580589267857332  1.0000
  H   H355      1.0  0.38765765135296076  0.4599989282052532  0.44456933809959337  1.0000
  H   H356      1.0  0.40487417721246505  0.49372899086044114  0.47353732914956614  1.0000
  H   H357      1.0  0.3788831478969508  0.48047218621803817  0.5397725825377424  1.0000
  H   H358      1.0  0.4286803167024757  0.4313395703878255  0.4368246923162744  1.0000
  H   H359      1.0  0.4493044433300289  0.42953389978532497  0.5274281151664533  1.0000
  H   H360      1.0  0.4464565324640298  0.46440659465222595  0.4679199433037495  1.0000
  N   N15       1.0  0.1748845223835436  0.6319081342479886  0.21455408840862278  1.0000
  C   C345      1.0  0.16149160148616457  0.6412212523498183  0.13565807339818603  1.0000
  C   C346      1.0  0.17273262184314747  0.5985543637406189  0.22604164422570694  1.0000
  C   C347      1.0  0.16293448386173795  0.6474239395477663  0.28879108313527335  1.0000
  C   C348      1.0  0.20237689839617426  0.6404593879518203  0.2078768547371368  1.0000
  H   H361      1.0  0.14076906994963104  0.6347686650187107  0.13779127495376375  1.0000
  H   H362      1.0  0.1702819804571929  0.6303775843545962  0.07817043757963327  1.0000
  H   H363      1.0  0.16238733576639736  0.6663245899591491  0.12585462444584272  1.0000
  H   H364      1.0  0.18151887680220996  0.5860053805395522  0.1713560171809423  1.0000
  H   H365      1.0  0.18274408402873674  0.590762138949915  0.28498207077559834  1.0000
  H   H366      1.0  0.15218540311299353  0.5914240323675303  0.23169392795905597  1.0000
  H   H367      1.0  0.17239414665331318  0.6405239776709455  0.3495013488480927  1.0000
  H   H368      1.0  0.14204798465548577  0.6418682663576696  0.2949186051766097  1.0000
  H   H369      1.0  0.16447477319523404  0.6726259170412652  0.28307954015128134  1.0000
  H   H370      1.0  0.21308806296522362  0.6338270967530933  0.26639004345614437  1.0000
  H   H371      1.0  0.20464997600658016  0.6655096544793031  0.19894198515600148  1.0000
  H   H372      1.0  0.21206079978058  0.6290432931304265  0.15285165999642092  1.0000
  N   N16       1.0  0.7347208118388175  0.8627006623433714  0.21014455066500592  1.0000
  C   C349      1.0  0.716381926026159  0.8861860685019001  0.24121055303658157  1.0000
  C   C350      1.0  0.7223194034917005  0.8442498140440254  0.14335610459624437  1.0000
  C   C351      1.0  0.7422634850070625  0.8426268905602089  0.28168766517367194  1.0000
  C   C352      1.0  0.7579201207153025  0.877620896243689  0.1741555722364092  1.0000
  H   H373      1.0  0.6985732519534316  0.8757771616382115  0.2685333447930589  1.0000
  H   H374      1.0  0.7105474395623783  0.9018159582518664  0.18866001429922186  1.0000
  H   H375      1.0  0.725035070787174  0.9004692055699683  0.2918937398186068  1.0000
  H   H376      1.0  0.7165173878788802  0.858532675376944  0.08790413793713081  1.0000
  H   H377      1.0  0.7355519728911036  0.8260698641120664  0.11924149033438991  1.0000
  H   H378      1.0  0.7047203350279052  0.8326678213553366  0.16836526787719786  1.0000
  H   H379      1.0  0.7566224586915736  0.825174639794103  0.26069611585326324  1.0000
  H   H380      1.0  0.7253576823334866  0.8300700511427268  0.30779955261598424  1.0000
  H   H381      1.0  0.7509468039106805  0.855706799424225  0.3348793677601598  1.0000
  H   H382      1.0  0.7721887623087211  0.8605812508124957  0.15016058650689645  1.0000
  H   H383      1.0  0.7677372212113439  0.8917547848904012  0.2227290348223303  1.0000
  H   H384      1.0  0.7529529775294658  0.892975311674244  0.1199799374233741  1.0000
  N   N17       1.0  0.533954434448075  0.3262053569254907  0.06814388245068392  1.0000
  C   C353      1.0  0.5198799081600743  0.3555933804058638  0.06742398642631953  1.0000
  C   C354      1.0  0.5456086052350564  0.3206441649176262  0.9831312322857136  1.0000
  C   C355      1.0  0.5159255802716625  0.30123709606884197  0.08910754277816846  1.0000
  C   C356      1.0  0.5544580380543992  0.3272957689511022  0.13291617384687493  1.0000
  H   H385      1.0  0.5110777066287676  0.3606227623709593  0.1310902800185798  1.0000
  H   H386      1.0  0.5040963719353421  0.35556101559670467  0.019754292958653163  1.0000
  H   H387      1.0  0.5329989280149222  0.374814063061854  0.050988758662667166  1.0000
  H   H388      1.0  0.5555074465493479  0.29809009275331844  0.9807010389916121  1.0000
  H   H389      1.0  0.5307847643439059  0.3208551372581095  0.9322074615135549  1.0000
  H   H390      1.0  0.5602652642569301  0.3381966684035267  0.9665455822559864  1.0000
  H   H391      1.0  0.5064787715365198  0.3048255441475404  0.15236596782151857  1.0000
  H   H392      1.0  0.5262076068415281  0.27887433185209204  0.09269940467393067  1.0000
  H   H393      1.0  0.500501810950535  0.29923579944771117  0.04062506533434296  1.0000
  H   H394      1.0  0.5655990359312552  0.30550357454849336  0.13515610029269842  1.0000
  H   H395      1.0  0.5463209744334527  0.3311650556914462  0.1979937517244008  1.0000
  H   H396      1.0  0.5684072199064962  0.34588459722012177  0.11919802133092805  1.0000
  N   N18       1.0  0.7769694697507703  0.10493950230238358  0.5519987567201889  1.0000
  C   C357      1.0  0.7757028685383777  0.07365072363805347  0.5871292033963753  1.0000
  C   C358      1.0  0.7619491689365697  0.10664726321875939  0.4723227249122324  1.0000
  C   C359      1.0  0.8041314360065148  0.11292942813944351  0.533561120605992  1.0000
  C   C360      1.0  0.7661083652259706  0.12658564036945474  0.6150874256474956  1.0000
  H   H397      1.0  0.7836596098129285  0.05666171896351191  0.5411946532088181  1.0000
  H   H398      1.0  0.755433624932133  0.0669014600327682  0.6019819183262936  1.0000
  H   H399      1.0  0.7867813573484058  0.0715714691831173  0.6474364977102405  1.0000
  H   H400      1.0  0.7415288769891684  0.10000754095826903  0.483412515442341  1.0000
  H   H401      1.0  0.7618086024817811  0.13020211078041788  0.4455255959846982  1.0000
  H   H402      1.0  0.7699949631853575  0.09114274407593292  0.4225655250936555  1.0000
  H   H403      1.0  0.8131158146756007  0.0971829282202692  0.48623117082685474  1.0000
  H   H404      1.0  0.8160846397107474  0.11199897841819362  0.5922829228343245  1.0000
  H   H405      1.0  0.8058221429285853  0.13649472994294842  0.507470055121336  1.0000
  H   H406      1.0  0.7462061550647362  0.12018333239767554  0.6347375845766343  1.0000
  H   H407      1.0  0.7650292110498588  0.15016334853966828  0.5886871617307119  1.0000
  H   H408      1.0  0.7779492141811967  0.12738889009515075  0.673941740962964  1.0000
  N   N19       1.0  0.2069859676234892  0.3191230764034525  0.2477752508270239  1.0000
  C   C361      1.0  0.216449831347883  0.32728909849203186  0.16140305612188843  1.0000
  C   C362      1.0  0.22539393520427006  0.33012550663503026  0.31206494178951183  1.0000
  C   C363      1.0  0.20460463441258736  0.2856343355618583  0.25469595207816176  1.0000
  C   C364      1.0  0.1815103565018715  0.3335538892067503  0.2626898398443911  1.0000
  H   H409      1.0  0.20298250217962316  0.3193348232094923  0.11128764828234172  1.0000
  H   H410      1.0  0.23571212989349663  0.3169703428709785  0.1480447137364398  1.0000
  H   H411      1.0  0.21832299872795888  0.35243350401247514  0.153940290153737  1.0000
  H   H412      1.0  0.22729757521543636  0.35534118756145133  0.3092331860711943  1.0000
  H   H413      1.0  0.2191368436025146  0.32405897583441723  0.3781322377137759  1.0000
  H   H414      1.0  0.24498163246956756  0.3201696792872053  0.3018000191555237  1.0000
  H   H415      1.0  0.19088102048829783  0.27660843019354825  0.20664341855683355  1.0000
  H   H416      1.0  0.19744550697076516  0.27862896833455664  0.3190498818966703  1.0000
  H   H417      1.0  0.2235455937128012  0.2740592189401512  0.2441703540168072  1.0000
  H   H418      1.0  0.1739519848102667  0.32839255315266985  0.3278214009620193  1.0000
  H   H419      1.0  0.1670428290187054  0.3253088736341031  0.21604537496924303  1.0000
  H   H420      1.0  0.18258893356290137  0.35883701140597557  0.25604614078431176  1.0000
  N   N20       1.0  0.13498075674685506  0.9938143278287154  0.36371571868027286  1.0000
  C   C365      1.0  0.14647075367193874  0.006485897124935969  0.44183639732524727  1.0000
  C   C366      1.0  0.1208430293697973  0.01817453895638721  0.3183621626218096  1.0000
  C   C367      1.0  0.11701914641587874  0.969082949930869  0.38751630399602277  1.0000
  C   C368      1.0  0.15554816606175437  0.9815978999028906  0.30715850001382616  1.0000
  H   H421      1.0  0.13145898737356254  0.016105569227205185  0.4854294005727058  1.0000
  H   H422      1.0  0.1603159420672038  0.025009118933646324  0.4263145461927802  1.0000
  H   H423      1.0  0.15732534034230095  0.9887441850153103  0.4779030266674813  1.0000
  H   H424      1.0  0.11321521932289391  0.009748930108468778  0.2570006410022132  1.0000
  H   H425      1.0  0.10415656432792297  0.026785003857439094  0.35677741753705017  1.0000
  H   H426      1.0  0.13361236039642232  0.03777700718641186  0.30277364175974286  1.0000
  H   H427      1.0  0.12719769765030797  0.9501981067517556  0.42098732948746687  1.0000
  H   H428      1.0  0.10755160631843497  0.9593221826466025  0.33044418639839646  1.0000
  H   H429      1.0  0.10128949337364634  0.9774899371030636  0.43047244331122414  1.0000
  H   H430      1.0  0.16865689574819887  0.9999503894405626  0.2843020402027854  1.0000
  H   H431      1.0  0.14742739448714404  0.9706519838313293  0.2493507477883934  1.0000
  H   H432      1.0  0.1676261872496343  0.9643348724054931  0.34051442016818867  1.0000
  N   N21       1.0  0.1940320216882688  0.46139053374537814  0.8185715324152293  1.0000
  C   C369      1.0  0.2181463792170091  0.4792086770930707  0.81625868810684  1.0000
  C   C370      1.0  0.19526065799057526  0.43872150898797624  0.8884877922412857  1.0000
  C   C371      1.0  0.1908196266442563  0.44551216062693194  0.7362166603101484  1.0000
  C   C372      1.0  0.17188597888981844  0.4821440365625225  0.8332424291756321  1.0000
  H   H433      1.0  0.2352233945282775  0.4643160427324361  0.8035489400816506  1.0000
  H   H434      1.0  0.22138358410778267  0.49122927186853504  0.87761433025538  1.0000
  H   H435      1.0  0.2178178018231519  0.49663673926452667  0.7643541866927449  1.0000
  H   H436      1.0  0.19728291388760935  0.4498542495236414  0.9518534364455699  1.0000
  H   H437      1.0  0.1774702841258159  0.4246879455610391  0.8913101008264095  1.0000
  H   H438      1.0  0.21185895792528892  0.4228136644842559  0.8797576642803973  1.0000
  H   H439      1.0  0.17276427099007907  0.43181810383027813  0.7357611260189476  1.0000
  H   H440      1.0  0.20729342515010504  0.4298067127172869  0.7226540919197573  1.0000
  H   H441      1.0  0.18998537924966327  0.4619441172569342  0.6819083359471763  1.0000
  H   H442      1.0  0.17343491506514636  0.49419452766730326  0.8953912813114379  1.0000
  H   H443      1.0  0.15334671553681076  0.46946616256196255  0.8343707836685316  1.0000
  H   H444      1.0  0.17049913884535406  0.4996447643589084  0.7818684085949973  1.0000
  N   N22       1.0  0.6636481834359235  0.8274455662426138  0.7545802732614437  1.0000
  C   C373      1.0  0.6709071346816328  0.8135209880230913  0.6719321607309215  1.0000
  C   C374      1.0  0.6357379206026882  0.8232387396252626  0.7705611683058994  1.0000
  C   C375      1.0  0.6695412150089085  0.8603819301953165  0.7520094931751815  1.0000
  C   C376      1.0  0.6784874768845102  0.812601088563206  0.8235027880957625  1.0000
  H   H445      1.0  0.692077778157319  0.8149281619035229  0.6604430638370545  1.0000
  H   H446      1.0  0.6612776203818606  0.8252881523688795  0.6176499688020453  1.0000
  H   H447      1.0  0.6657041635100605  0.7889871418332793  0.6698991798068265  1.0000
  H   H448      1.0  0.629661554571738  0.8335241095946013  0.8325369369782711  1.0000
  H   H449      1.0  0.6240141418069076  0.834549384072377  0.7201972673993222  1.0000
  H   H450      1.0  0.6304622250485449  0.7987054755486391  0.7729805438131672  1.0000
  H   H451      1.0  0.6597351308708593  0.87203624385149  0.6977901680624977  1.0000
  H   H452      1.0  0.6906056120512678  0.864475056088579  0.7456947788279971  1.0000
  H   H453      1.0  0.6628823964751773  0.8721740771712507  0.8107858065490741  1.0000
  H   H454      1.0  0.6735420233261412  0.8224053475365705  0.88691875566436  1.0000
  H   H455      1.0  0.699655600107163  0.8154578166204562  0.8134273206240606  1.0000
  H   H456      1.0  0.6745360064148743  0.7877117080673467  0.8269187610129911  1.0000
  N   N23       1.0  0.3431215310793217  0.7312168087001113  0.5519850554241806  1.0000
  C   C377      1.0  0.3711664206732739  0.7337566791312702  0.5357527064076744  1.0000
  C   C378      1.0  0.32996148081765064  0.7587961650367118  0.5193873474554122  1.0000
  C   C379      1.0  0.3382518951128486  0.7282657317765595  0.6447866296252902  1.0000
  C   C380      1.0  0.33303138992328224  0.7040789942667107  0.5080627520738125  1.0000
  H   H457      1.0  0.3793276879498082  0.7540999505533783  0.5681192435541984  1.0000
  H   H458      1.0  0.37543683425263535  0.7363445523167507  0.46633461435844453  1.0000
  H   H459      1.0  0.3817386762650774  0.7132839987478606  0.5592570672510337  1.0000
  H   H460      1.0  0.3373688932797754  0.7797788265396792  0.5502921085381535  1.0000
  H   H461      1.0  0.3329745798763304  0.7614930695973537  0.4492541685465472  1.0000
  H   H462      1.0  0.3087449857105776  0.7577324176110499  0.530676985675951  1.0000
  H   H463      1.0  0.31725607415104545  0.726014125285482  0.6591382773524274  1.0000
  H   H464      1.0  0.3455534751785207  0.7483674592156729  0.6801516005323982  1.0000
  H   H465      1.0  0.34776563057648646  0.707526269470176  0.6713187977363192  1.0000
  H   H466      1.0  0.311955559730508  0.7016454010239682  0.519622207542828  1.0000
  H   H467      1.0  0.3423739088768814  0.6827203081673884  0.5311939458840628  1.0000
  H   H468      1.0  0.33591546674708206  0.7056206329004598  0.4376463178321725  1.0000
  N   N24       1.0  0.17899684067781413  0.8208584812281696  0.23233755735233808  1.0000
  C   C381      1.0  0.1696333233217263  0.8131628979807837  0.31914992175666224  1.0000
  C   C382      1.0  0.16617432886503666  0.8491122593849122  0.2027634811873642  1.0000
  C   C383      1.0  0.17294104033293076  0.7957074460519693  0.1733809902866541  1.0000
  C   C384      1.0  0.20720826128842418  0.825457721795657  0.23419344270160236  1.0000
  H   H469      1.0  0.17828937770407818  0.7914414919863876  0.3421264572210383  1.0000
  H   H470      1.0  0.1483041335495606  0.8104127015955428  0.3208599488423445  1.0000
  H   H471      1.0  0.1746548450263361  0.8312466418793194  0.3658555998744346  1.0000
  H   H472      1.0  0.1725748659114287  0.8553876111551362  0.13699266822766498  1.0000
  H   H473      1.0  0.14480549590034297  0.8465878533784615  0.20175256636503658  1.0000
  H   H474      1.0  0.17074714546186376  0.8687560375839684  0.24463536292623012  1.0000
  H   H475      1.0  0.17964131486966847  0.8008236916302487  0.10715968497063821  1.0000
  H   H476      1.0  0.15178827893010585  0.7916914442949675  0.17104188903811446  1.0000
  H   H477      1.0  0.1823214504551648  0.7739725454452061  0.193353126405734  1.0000
  H   H478      1.0  0.21234958554145386  0.8439096761918488  0.27935197549165225  1.0000
  H   H479      1.0  0.21493628003003498  0.8321107369408269  0.17023270097493226  1.0000
  H   H480      1.0  0.217580289217283  0.804487147261214  0.25520995408739555  1.0000
  N   N25       1.0  0.5946949479730665  0.2828549474598269  0.5533025004363431  1.0000
  C   C385      1.0  0.5695363954273214  0.27126984052289715  0.5840190842531022  1.0000
  C   C386      1.0  0.6156407964015754  0.2644634556450532  0.5911911109439631  1.0000
  C   C387      1.0  0.5976144914424896  0.31504488638925143  0.5789682546208291  1.0000
  C   C388      1.0  0.5960700155337557  0.28056480839614517  0.45915796246253904  1.0000
  H   H481      1.0  0.5532579868965726  0.28431498340149436  0.5556461603053577  1.0000
  H   H482      1.0  0.5676353034397857  0.27325028291286413  0.6548048712564242  1.0000
  H   H483      1.0  0.5668959496505834  0.24689981923453588  0.5669581738500407  1.0000
  H   H484      1.0  0.6348658749569709  0.2736100773484766  0.5729508084627744  1.0000
  H   H485      1.0  0.6145532350726415  0.2645439477024909  0.6622467255378286  1.0000
  H   H486      1.0  0.6148944482261105  0.24038183954721665  0.5697890265826826  1.0000
  H   H487      1.0  0.6162586130192369  0.3246655587405238  0.5558069430814224  1.0000
  H   H488      1.0  0.5974878302558788  0.31742596112019517  0.6496431989711922  1.0000
  H   H489      1.0  0.5816974777102836  0.3295327903793452  0.5539598991632316  1.0000
  H   H490      1.0  0.5802814132838907  0.2937772057637576  0.4282302872476482  1.0000
  H   H491      1.0  0.5941830706609877  0.25653550266605635  0.4376557458740298  1.0000
  H   H492      1.0  0.6147841989941188  0.2892190394779242  0.43371215795210055  1.0000
  N   N26       1.0  0.6209517935523624  0.15082071800907715  0.6311082886355033  1.0000
  C   C389      1.0  0.6308813213340132  0.1586565262071252  0.5450751741882816  1.0000
  C   C390      1.0  0.6147517686936543  0.17906871220739898  0.6782392028982132  1.0000
  C   C391      1.0  0.6406571451784477  0.13335163810526188  0.6784478323664737  1.0000
  C   C392      1.0  0.5974630341033762  0.132199543913412  0.6229422043199045  1.0000
  H   H493      1.0  0.6365558210526525  0.13785257794066946  0.5088980097863777  1.0000
  H   H494      1.0  0.6482686336659468  0.17337112312977743  0.548785792171192  1.0000
  H   H495      1.0  0.6161037636321304  0.1709531743631076  0.5067095344260253  1.0000
  H   H496      1.0  0.5995000344986929  0.1926125302333974  0.6458657582437013  1.0000
  H   H497      1.0  0.607542932214975  0.17393929987278112  0.7437405665809849  1.0000
  H   H498      1.0  0.6320654127323333  0.19374678967912173  0.6852855913689575  1.0000
  H   H499      1.0  0.6340244073199959  0.12788755456219783  0.7444883822494626  1.0000
  H   H500      1.0  0.6588541481274108  0.14642427315667245  0.684464566189616  1.0000
  H   H501      1.0  0.6452330167165861  0.1113268511795047  0.6465934848159507  1.0000
  H   H502      1.0  0.5816314800007366  0.14528891278449424  0.5924078908602202  1.0000
  H   H503      1.0  0.590235373727183  0.12445115654136525  0.6862098024906425  1.0000
  H   H504      1.0  0.6011473639155195  0.11141378622696332  0.5841166644558458  1.0000
  N   N27       1.0  0.5172631117376428  0.03827040462624676  0.8672507945029041  1.0000
  C   C393      1.0  0.5239365252209016  0.04417263528257487  0.9572226849669594  1.0000
  C   C394      1.0  0.5261378086209828  0.007356145151768745  0.8432249415890495  1.0000
  C   C395      1.0  0.5300146204343432  0.06102497932781592  0.8116535787827377  1.0000
  C   C396      1.0  0.4890125125937533  0.040660856433563985  0.8568597925390148  1.0000
  H   H505      1.0  0.5173415077427861  0.067238500838537  0.9774757519138859  1.0000
  H   H506      1.0  0.5451851798856914  0.04289493239929998  0.9670347747917042  1.0000
  H   H507      1.0  0.5146698254013149  0.027429719454904022  0.0011193727075069493  1.0000
  H   H508      1.0  0.5473972926924574  0.004867931998308039  0.8504902606627122  1.0000
  H   H509      1.0  0.5167426270458451  0.9895552753556103  0.8833550427583063  1.0000
  H   H510      1.0  0.5216185642234538  0.0022088046141921502  0.7754439803190918  1.0000
  H   H511      1.0  0.5513301603099646  0.05971057289980308  0.817295685556966  1.0000
  H   H512      1.0  0.5239042409438976  0.08462821476182758  0.8285101398203193  1.0000
  H   H513      1.0  0.5252690463058604  0.05736672838412815  0.7432893747457016  1.0000
  H   H514      1.0  0.4832962998389195  0.03577336657472019  0.7899331909530662  1.0000
  H   H515      1.0  0.48191697669434974  0.0640289506002929  0.8722641493647411  1.0000
  H   H516      1.0  0.47860864464611264  0.02439860328175336  0.8993270778153143  1.0000
  N   N28       1.0  0.49107834101673675  0.20759323667476628  0.7014738311111292  1.0000
  C   C397      1.0  0.5127588658554406  0.22317492387338517  0.7433915414530287  1.0000
  C   C398      1.0  0.498986527226376  0.19829865941237101  0.614433012532714  1.0000
  C   C399      1.0  0.46873914217292245  0.22856947523964652  0.6962109537948524  1.0000
  C   C400      1.0  0.4837574388829072  0.18032321851255456  0.75162272138673  1.0000
  H   H517      1.0  0.5075991841177925  0.2301830257357047  0.8096384862376143  1.0000
  H   H518      1.0  0.5185769978868908  0.2441136043655806  0.707932944954231  1.0000
  H   H519      1.0  0.5300443990814914  0.2081418695325712  0.74749553143194  1.0000
  H   H520      1.0  0.4830165971473657  0.18642903282191023  0.5811966482405201  1.0000
  H   H521      1.0  0.5045075961297468  0.21834606652812555  0.574663968604361  1.0000
  H   H522      1.0  0.5157630191837497  0.1823507388564375  0.6155787462928124  1.0000
  H   H523      1.0  0.4620512771571805  0.23578255790394334  0.7608076177466818  1.0000
  H   H524      1.0  0.45212313471932664  0.21749904198000558  0.6641338467133066  1.0000
  H   H525      1.0  0.4736473242633909  0.24957863252587303  0.6594529710333985  1.0000
  H   H526      1.0  0.4671497301275827  0.1682461062915944  0.7228167092317463  1.0000
  H   H527      1.0  0.4780474161432089  0.18628929972223068  0.818246407102918  1.0000
  H   H528      1.0  0.4999047858689602  0.1636165543215698  0.7555532901420617  1.0000
  N   N29       1.0  0.22085179882427447  0.793801501798362  0.7259874541191986  1.0000
  C   C401      1.0  0.24608851172057344  0.7992115488401765  0.6839854609889551  1.0000
  C   C402      1.0  0.20264393702031713  0.7812415519801239  0.6633169949842072  1.0000
  C   C403      1.0  0.21050279370469177  0.8228899994136208  0.7596200429015638  1.0000
  C   C404      1.0  0.22414690255937744  0.7718579366366654  0.7968500358359342  1.0000
  H   H529      1.0  0.26061715824013737  0.8074823127073145  0.7301913775124933  1.0000
  H   H530      1.0  0.24452105189626966  0.8167546475915041  0.6328737420602234  1.0000
  H   H531      1.0  0.25380241404277554  0.77807662783465  0.6536791008017017  1.0000
  H   H532      1.0  0.18377398920572277  0.7754160244061956  0.6935367250536558  1.0000
  H   H533      1.0  0.19875248805216114  0.797848871101916  0.6111501504678298  1.0000
  H   H534      1.0  0.21031876834399696  0.7600050292385644  0.6334133229226457  1.0000
  H   H535      1.0  0.2078383847169849  0.8399320081477515  0.707371503102953  1.0000
  H   H536      1.0  0.22372538978883427  0.8331096177623025  0.8071337460416148  1.0000
  H   H537      1.0  0.19141471986750935  0.8196293823814412  0.7914669016864248  1.0000
  H   H538      1.0  0.20539366021172076  0.7667861867470391  0.8290349474606481  1.0000
  H   H539      1.0  0.23740060590600026  0.7807048606196045  0.8463201912836139  1.0000
  H   H540      1.0  0.23226563669454933  0.7498435009626869  0.7734591023086475  1.0000
  N   N30       1.0  0.7010176823657668  0.015049524941568748  0.09290071114579268  1.0000
  C   C405      1.0  0.6831752180675038  0.006468826632680447  0.02416178171298977  1.0000
  C   C406      1.0  0.7211412598512416  0.03540064459080172  0.05785074229526188  1.0000
  C   C407      1.0  0.7132855944910641  0.9873242880874564  0.1282874191951222  1.0000
  C   C408      1.0  0.6864277506219566  0.030923411262827827  0.16123870232969928  1.0000
  H   H541      1.0  0.6674530721843152  0.9917901973669339  0.049394179220330514  1.0000
  H   H542      1.0  0.6932902678135918  0.9936504270239112  0.9723426766062538  1.0000
  H   H543      1.0  0.6738154827181928  0.026817726426560107  0.9948621393719546  1.0000
  H   H544      1.0  0.7351548883448686  0.041968399280083  0.10791543410594784  1.0000
  H   H545      1.0  0.7322115640271534  0.0240994092200435  0.005304086833286981  1.0000
  H   H546      1.0  0.7125744297957378  0.0567116111666377  0.031418070771987994  1.0000
  H   H547      1.0  0.7251416372258226  0.9753054190082128  0.07928906591151241  1.0000
  H   H548      1.0  0.6986372056200966  0.9708454386406652  0.15214516989177818  1.0000
  H   H549      1.0  0.7263298204857955  0.9927916572825594  0.1821759822409168  1.0000
  H   H550      1.0  0.6992578827455205  0.03785637929515384  0.2142929038159671  1.0000
  H   H551      1.0  0.6711194305414383  0.01609280934576174  0.18924715195302833  1.0000
  H   H552      1.0  0.6767021228093468  0.05184847572758833  0.13690599618910637  1.0000
  N   N31       1.0  0.18165435402932983  0.09895654203595083  0.045641438884019614  1.0000
  C   C409      1.0  0.19978989461064423  0.07380983801646135  0.025881542051235495  1.0000
  C   C410      1.0  0.15982913245683528  0.09793226975567704  0.985654693250314  1.0000
  C   C411      1.0  0.19527273995065353  0.12833149794595755  0.03702055296334894  1.0000
  C   C412      1.0  0.17176594692308345  0.09570120472060917  0.13398500628448895  1.0000
  H   H553      1.0  0.21628101835309255  0.07348914962363073  0.07065240777213799  1.0000
  H   H554      1.0  0.20787178583974053  0.07598448669700475  0.960101613062059  1.0000
  H   H555      1.0  0.19009640551368712  0.05134370327338034  0.030095740609337618  1.0000
  H   H556      1.0  0.14632110325452907  0.11743739622433957  0.9956350096723267  1.0000
  H   H557      1.0  0.1666687148384427  0.09904081174155821  0.9181491297457314  1.0000
  H   H558      1.0  0.14860807269945453  0.07650882084733479  0.9931681591157073  1.0000
  H   H559      1.0  0.1819872184648137  0.14797305970553598  0.04803873243807  1.0000
  H   H560      1.0  0.20377000272810086  0.13110711178705237  0.9719780955725543  1.0000
  H   H561      1.0  0.21135705118215942  0.13009124089492907  0.08337461422974313  1.0000
  H   H562      1.0  0.1876020206343889  0.09739859780522053  0.1810532747782132  1.0000
  H   H563      1.0  0.1622749275231805  0.07327012065366256  0.14381364617723236  1.0000
  H   H564      1.0  0.15741122930070217  0.11384568350620783  0.1495456816775238  1.0000
  N   N32       1.0  0.6823628869849827  0.5921063315584392  0.7815690116021048  1.0000
  C   C413      1.0  0.6870383191519976  0.624124621398903  0.7562215609918159  1.0000
  C   C414      1.0  0.705328165238332  0.5799870763471282  0.8257532141319022  1.0000
  C   C415      1.0  0.6773950571847965  0.5735833430280044  0.7048110802431626  1.0000
  C   C416      1.0  0.6597338740796003  0.5907217793697969  0.8396579351496976  1.0000
  H   H565      1.0  0.6702091230661864  0.6340378483259683  0.7222055019710925  1.0000
  H   H566      1.0  0.7041167088727946  0.6261463141522094  0.712859589067566  1.0000
  H   H567      1.0  0.6907383070214193  0.6387274561707794  0.8129026332702609  1.0000
  H   H568      1.0  0.7097722368262587  0.5936066868905607  0.8837101259817075  1.0000
  H   H569      1.0  0.7025408413335795  0.5558427423047232  0.8456375870398887  1.0000
  H   H570      1.0  0.7226830757152546  0.5804087219272265  0.7831766518034322  1.0000
  H   H571      1.0  0.6741856506691892  0.5491944407005939  0.7216293577438979  1.0000
  H   H572      1.0  0.6940959866960072  0.5740646039316784  0.6596544303174361  1.0000
  H   H573      1.0  0.6601515345307922  0.5819389897170407  0.6698646637616348  1.0000
  H   H574      1.0  0.6553797973261952  0.5668900853979174  0.8592264450298794  1.0000
  H   H575      1.0  0.642072832999172  0.5999621745195021  0.8086731525568556  1.0000
  H   H576      1.0  0.6629437559059737  0.6042406608082959  0.8986731411791329  1.0000
  N   N33       1.0  0.01257087592604389  0.2534535918607221  0.19648848081960257  1.0000
  C   C417      1.0  0.029958108817059292  0.25558544878397194  0.12133420460242594  1.0000
  C   C418      1.0  0.985513850744381  0.2562526009898947  0.16843941302025112  1.0000
  C   C419      1.0  0.018505455666725235  0.2782160009882579  0.2569146825712978  1.0000
  C   C420      1.0  0.016301561454855836  0.22369413264101967  0.23927644994504615  1.0000
  H   H577      1.0  0.027917672636525556  0.27786977378324407  0.08799059059729508  1.0000
  H   H578      1.0  0.025929710801825268  0.23731148977551061  0.07409261319524729  1.0000
  H   H579      1.0  0.05054702842800939  0.2529361629245963  0.13989896224950638  1.0000
  H   H580      1.0  0.9718311957155416  0.25419100126850963  0.22328091355647195  1.0000
  H   H581      1.0  0.9818226921833662  0.27861497286196607  0.13707212379737732  1.0000
  H   H582      1.0  0.9805379429869571  0.23801199391142885  0.1222242274626959  1.0000
  H   H583      1.0  0.006077442508263252  0.2769556915064016  0.31507894532349745  1.0000
  H   H584      1.0  0.015434767451631744  0.3010804779899744  0.22765322467376592  1.0000
  H   H585      1.0  0.03889707150870913  0.27693656221383334  0.27841039736611095  1.0000
  H   H586      1.0  0.012149082751996774  0.20448171688794306  0.19540287764876707  1.0000
  H   H587      1.0  0.00337527639988422  0.22128734696924235  0.29618625508720653  1.0000
  H   H588      1.0  0.036584073765182794  0.22063423274875552  0.2607070847370119  1.0000
  N   N34       1.0  0.8816459822189969  0.5151493851688647  0.45965948329194206  1.0000
  C   C421      1.0  0.9071444786766358  0.5272109496280133  0.48379646736239174  1.0000
  C   C422      1.0  0.870536078168495  0.497388931308452  0.5313363158323174  1.0000
  C   C423      1.0  0.8845740406800595  0.49528925101652527  0.38404972454067104  1.0000
  C   C424      1.0  0.864155786233237  0.5408007182507715  0.43934933009771887  1.0000
  H   H589      1.0  0.905883739035017  0.5412980918830266  0.5427365999323729  1.0000
  H   H590      1.0  0.9154898098193865  0.5418717905123696  0.43250784781624757  1.0000
  H   H591      1.0  0.9212955528285663  0.5085845084387541  0.49506817852483587  1.0000
  H   H592      1.0  0.8508625517475079  0.48911016484820313  0.5161254189759269  1.0000
  H   H593      1.0  0.882439614892638  0.4769442839969976  0.5461160583426565  1.0000
  H   H594      1.0  0.8690278879355223  0.5112623415702975  0.5905676188659211  1.0000
  H   H595      1.0  0.8655693647172116  0.4870476628969236  0.36128687873587584  1.0000
  H   H596      1.0  0.8965533073199538  0.4747982729112239  0.39865259849743584  1.0000
  H   H597      1.0  0.8943094979647626  0.5073623486796693  0.33018409669756044  1.0000
  H   H598      1.0  0.8723216423356461  0.5553552928257616  0.38753961487012084  1.0000
  H   H599      1.0  0.8610417100741404  0.5556926076068803  0.4960447306899558  1.0000
  H   H600      1.0  0.844948791314652  0.5324502742175342  0.4188634622061962  1.0000
  N   N35       1.0  0.5742750879466485  0.8995750055055687  0.3594966778492368  1.0000
  C   C425      1.0  0.5628186785497383  0.8770167252224047  0.3012656827230733  1.0000
  C   C426      1.0  0.5655390094586629  0.8933547007320308  0.44799094150803587  1.0000
  C   C427      1.0  0.5659169030650885  0.9305307651777338  0.3340500257433019  1.0000
  C   C428      1.0  0.6027417973523885  0.8974334728806969  0.3545250784471312  1.0000
  H   H601      1.0  0.5688266675511723  0.8812034239349433  0.23377401623786187  1.0000
  H   H602      1.0  0.541328949136667  0.8777873428706878  0.3041008780136538  1.0000
  H   H603      1.0  0.5690490253322545  0.8533960423156729  0.3174831992107918  1.0000
  H   H604      1.0  0.5737896439102768  0.9099839461324144  0.49370139753829645  1.0000
  H   H605      1.0  0.5441288878440655  0.8948410667416883  0.45391477993287666  1.0000
  H   H606      1.0  0.5714326271771689  0.8701416987665084  0.46919525435214005  1.0000
  H   H607      1.0  0.5738819163070713  0.9481220444109969  0.3773491715788644  1.0000
  H   H608      1.0  0.5444866267864205  0.9327162065788268  0.3360268063197911  1.0000
  H   H609      1.0  0.572434318750611  0.936107705201537  0.2678442725792798  1.0000
  H   H610      1.0  0.6099934408812323  0.9020920216048096  0.28866018926801607  1.0000
  H   H611      1.0  0.6097643572789729  0.8742502530305594  0.3721587396600936  1.0000
  H   H612      1.0  0.6121391521640979  0.9139259028562601  0.3981689853607806  1.0000
  N   N36       1.0  0.00914143780168275  0.8294117439653182  0.8346530030401255  1.0000
  C   C429      1.0  0.008681770584482384  0.8535838215182335  0.9002492710501072  1.0000
  C   C430      1.0  0.03487478820540346  0.8147646891465053  0.8323000077048683  1.0000
  C   C431      1.0  0.003576462778425382  0.8430388399474348  0.7503239050058772  1.0000
  C   C432      1.0  0.9894428296231209  0.8062602424286367  0.8556607064372268  1.0000
  H   H613      1.0  0.9894798085337418  0.8650314497144278  0.9040032284830587  1.0000
  H   H614      1.0  0.023219956692358323  0.8715666054327468  0.8860196507784199  1.0000
  H   H615      1.0  0.013066530119030695  0.8443387508813448  0.9647534893683303  1.0000
  H   H616      1.0  0.035960411229221556  0.796467189975121  0.7832583277924541  1.0000
  H   H617      1.0  0.050348235750320436  0.8315357158721359  0.8177257716372031  1.0000
  H   H618      1.0  0.039538229803249614  0.8038939287068112  0.8946592207457579  1.0000
  H   H619      1.0  0.0027130790403255833  0.8253459212561002  0.6996497242605185  1.0000
  H   H620      1.0  0.018490373787886316  0.859974827259374  0.7313712230961255  1.0000
  H   H621      1.0  0.9846453786071193  0.8551656463746922  0.7508209303738081  1.0000
  H   H622      1.0  0.9931315755245562  0.7953811555989594  0.9186850594335848  1.0000
  H   H623      1.0  0.9892641766735838  0.7877393526812102  0.8072306162558832  1.0000
  H   H624      1.0  0.9697195872986452  0.8164515614743935  0.8577566040702448  1.0000
  N   N37       1.0  0.5056539328008139  0.5641536232922253  0.8547182326345811  1.0000
  C   C433      1.0  0.5197923305857779  0.5716925339822548  0.7750294733811699  1.0000
  C   C434      1.0  0.5125002959548849  0.5861179154840581  0.922091817042325  1.0000
  C   C435      1.0  0.5125665222193933  0.5329332465048192  0.8822724681267878  1.0000
  C   C436      1.0  0.4776379176064296  0.5658138484020964  0.8391572671353971  1.0000
  H   H625      1.0  0.5410241683254557  0.570343794691409  0.7840679581929085  1.0000
  H   H626      1.0  0.5150932008650014  0.5951424299267017  0.7523543919593509  1.0000
  H   H627      1.0  0.5149702782765428  0.5556262887873011  0.7227603174200468  1.0000
  H   H628      1.0  0.5022268751344805  0.5810625152562104  0.9831966850431875  1.0000
  H   H629      1.0  0.5335212872084787  0.5854288715573255  0.9355040405269536  1.0000
  H   H630      1.0  0.5075976279273507  0.6098825954496963  0.9028384514406309  1.0000
  H   H631      1.0  0.5019872863099651  0.5262478685204043  0.9415024855888042  1.0000
  H   H632      1.0  0.5334877356900708  0.5309429376755772  0.8956769867151968  1.0000
  H   H633      1.0  0.5081026284340328  0.5158831099137542  0.831933852080192  1.0000
  H   H634      1.0  0.4662911651255776  0.5613792364421448  0.8985029358682466  1.0000
  H   H635      1.0  0.47182645039111293  0.548498085839224  0.7913857818917164  1.0000
  H   H636      1.0  0.4718431637959757  0.5886834372060933  0.8143948500389975  1.0000
  N   N38       1.0  0.8690469450037666  0.7739151201559055  0.5751968670313512  1.0000
  C   C437      1.0  0.8914964059707667  0.7590734590657786  0.5333933493869683  1.0000
  C   C438      1.0  0.8546418187532289  0.7919016857048963  0.5113506936018934  1.0000
  C   C439      1.0  0.8780386418037628  0.7943556269175234  0.6433799283779511  1.0000
  C   C440      1.0  0.8519687736444079  0.7504649831017117  0.6126784719416369  1.0000
  H   H637      1.0  0.9025262440423596  0.7446558075424672  0.5790352805264511  1.0000
  H   H638      1.0  0.9051129657387221  0.7761895238720253  0.5063423001541529  1.0000
  H   H639      1.0  0.8853712498880868  0.7441670021911195  0.47998995226174745  1.0000
  H   H640      1.0  0.837675501405159  0.8037478565115721  0.5404782784386049  1.0000
  H   H641      1.0  0.8670268726635547  0.8095785383504497  0.48102862240779887  1.0000
  H   H642      1.0  0.8473242407467898  0.7773914949773749  0.4590238452501416  1.0000
  H   H643      1.0  0.8895198762774331  0.7817991924896963  0.6919632181111641  1.0000
  H   H644      1.0  0.8616090510771365  0.8058055350649477  0.6766741788402786  1.0000
  H   H645      1.0  0.8905801784100835  0.8126151319454439  0.6170421935903281  1.0000
  H   H646      1.0  0.8347262780233309  0.7609464311271443  0.6439954275202009  1.0000
  H   H647      1.0  0.8622406847785186  0.7364457379696179  0.6610994288729688  1.0000
  H   H648      1.0  0.8448327830008276  0.7346834340272772  0.5629497928203331  1.0000
  N   N39       1.0  0.48312567053985783  0.7021904675276656  0.25309690073816427  1.0000
  C   C441      1.0  0.47223089598663603  0.671215879507978  0.24773457750096606  1.0000
  C   C442      1.0  0.5086693251089419  0.7006414187076327  0.2940595398188326  1.0000
  C   C443      1.0  0.46561054006041114  0.721717584215184  0.3043370223202275  1.0000
  C   C444      1.0  0.48603151698287306  0.7151420869755573  0.1663416019087638  1.0000
  H   H649      1.0  0.4527446443145794  0.6713691545890037  0.2186676882742391  1.0000
  H   H650      1.0  0.4703553192424542  0.6605173178492987  0.3121585343641642  1.0000
  H   H651      1.0  0.48472788331347844  0.655907436188323  0.20853349473346272  1.0000
  H   H652      1.0  0.5224858438906721  0.6864086227196133  0.25647822840398127  1.0000
  H   H653      1.0  0.5172937194643308  0.7236758311536529  0.3009875145081262  1.0000
  H   H654      1.0  0.5072879397517478  0.6905428767092054  0.3591990365548139  1.0000
  H   H655      1.0  0.47319606861315017  0.7453306008545397  0.3097518027527275  1.0000
  H   H656      1.0  0.4632851170695352  0.7126961636687038  0.3704920412862176  1.0000
  H   H657      1.0  0.4460929483646036  0.7232641914273149  0.2757256635135885  1.0000
  H   H658      1.0  0.4671371704759517  0.7166226360706137  0.13338151149294486  1.0000
  H   H659      1.0  0.4992212378230585  0.7009197334033643  0.12623274693437936  1.0000
  H   H660      1.0  0.49426369342265286  0.7385282175006974  0.16850751874520764  1.0000
  N   N40       1.0  0.8944053888772369  0.30064612953530157  0.5921078452038486  1.0000
  C   C445      1.0  0.892222336860087  0.27999825485840335  0.6665683489397339  1.0000
  C   C446      1.0  0.8693504089611415  0.31597326992166763  0.577656881431693  1.0000
  C   C447      1.0  0.9017241056388694  0.2828937207559744  0.5156018089706275  1.0000
  C   C448      1.0  0.9144282437488639  0.32371343610069403  0.60840408125863  1.0000
  H   H661      1.0  0.8862775442458762  0.29258642412945257  0.7251666507178587  1.0000
  H   H662      1.0  0.9109893076350368  0.2685798882372127  0.6803460115853875  1.0000
  H   H663      1.0  0.8777450285456735  0.26176079699821025  0.6555178190567352  1.0000
  H   H664      1.0  0.8704626201567761  0.33204506341998863  0.5225536975520764  1.0000
  H   H665      1.0  0.8538560394246947  0.2991852474875657  0.5643202143456781  1.0000
  H   H666      1.0  0.8632851417586622  0.3296194537821587  0.6342905487906447  1.0000
  H   H667      1.0  0.887454192761577  0.2647752898037084  0.5018158296738373  1.0000
  H   H668      1.0  0.9207278541031919  0.27147877271822374  0.5241120713771078  1.0000
  H   H669      1.0  0.903263569365178  0.2976551058471305  0.4579129583494092  1.0000
  H   H670      1.0  0.9164385815779701  0.3397081178586601  0.5535944173661735  1.0000
  H   H671      1.0  0.9337082572751338  0.3129794655655373  0.6185344688702097  1.0000
  H   H672      1.0  0.9096240384724642  0.3376184101190589  0.6658226674835259  1.0000
  N   N41       1.0  0.7622456116988554  0.3593636143746338  0.5711696412752891  1.0000
  C   C449      1.0  0.7904165505187037  0.35436814857523147  0.5639329007625624  1.0000
  C   C450      1.0  0.7569313499568469  0.38561562568017926  0.6277092659728811  1.0000
  C   C451      1.0  0.749966684668254  0.33184255911714466  0.6074384900708301  1.0000
  C   C452      1.0  0.7516579328666951  0.36553455415067015  0.4854593010658732  1.0000
  H   H673      1.0  0.800204018266996  0.37429526695374266  0.534173040894578  1.0000
  H   H674      1.0  0.7950298243501915  0.3342416210777647  0.5233279338669745  1.0000
  H   H675      1.0  0.79924070510357  0.3503483461125577  0.627489146935271  1.0000
  H   H676      1.0  0.7667016252897091  0.4065397304237355  0.6040309134623576  1.0000
  H   H677      1.0  0.7358598417068702  0.3906483816615752  0.6321662236993548  1.0000
  H   H678      1.0  0.7638932240791779  0.38129615068450406  0.6936871151405555  1.0000
  H   H679      1.0  0.7535825950672385  0.3116290021942025  0.566332801541817  1.0000
  H   H680      1.0  0.7286813580261792  0.33477336444069467  0.6138050546622855  1.0000
  H   H681      1.0  0.7575712041273567  0.32627855270424916  0.6718463181554357  1.0000
  H   H682      1.0  0.7603554269902051  0.386341864302581  0.4564101287788469  1.0000
  H   H683      1.0  0.7303712842626693  0.3690477271062017  0.48819014286301377  1.0000
  H   H684      1.0  0.7555913194036373  0.3461723502719147  0.4412724785686446  1.0000
  N   N42       1.0  0.045163984020197834  0.3709664933674955  0.8026179565702296  1.0000
  C   C453      1.0  0.06323119353884898  0.3862645965773187  0.7430459947579916  1.0000
  C   C454      1.0  0.057763110680343566  0.3666486794818231  0.8861327242841122  1.0000
  C   C455      1.0  0.03792256377123571  0.340982948420003  0.7673499370403227  1.0000
  C   C456      1.0  0.021793478879527317  0.39007840522038667  0.8138718949146938  1.0000
  H   H685      1.0  0.054368733757751864  0.3898239512294794  0.6792757944183846  1.0000
  H   H686      1.0  0.08120915499305226  0.3726269640645334  0.7337892677884055  1.0000
  H   H687      1.0  0.06906590104052746  0.4089828572472212  0.7675571333829369  1.0000
  H   H688      1.0  0.07516600441875787  0.3517765677369177  0.8805448329686797  1.0000
  H   H689      1.0  0.06407542044012371  0.38879159489449555  0.9132078563206085  1.0000
  H   H690      1.0  0.044423482015521154  0.35609519653168836  0.9336643402266622  1.0000
  H   H691      1.0  0.05511469560602289  0.32591326079103805  0.7580056196432053  1.0000
  H   H692      1.0  0.02840523254025018  0.34339097840868865  0.7040814385039528  1.0000
  H   H693      1.0  0.024317345810221935  0.3287218618101185  0.8105502923353805  1.0000
  H   H694      1.0  0.026533907501812726  0.4129180531283724  0.8401648804268775  1.0000
  H   H695      1.0  0.007778387888522698  0.379501465941284  0.8591737411205603  1.0000
  H   H696      1.0  0.011765147605258042  0.3939446607506468  0.7521898193961305  1.0000
  N   N43       1.0  0.5935725003321801  0.07004286034072528  0.3299332352440414  1.0000
  C   C457      1.0  0.6092343046253086  0.043279226987677166  0.304513005852733  1.0000
  C   C458      1.0  0.5787069856943868  0.06249650958984275  0.40802747419946317  1.0000
  C   C459      1.0  0.5756994470109713  0.07830933162666133  0.26044829942640657  1.0000
  C   C460      1.0  0.6106593176583619  0.0961210494490267  0.3470647920083727  1.0000
  H   H697      1.0  0.6223784735974565  0.0487250099316398  0.2502537191286456  1.0000
  H   H698      1.0  0.5969265137860739  0.023917434525065673  0.28462019348251477  1.0000
  H   H699      1.0  0.6216319895235114  0.03518257347856646  0.3576341573970083  1.0000
  H   H700      1.0  0.5668303816433677  0.08220053195096867  0.4294925496986426  1.0000
  H   H701      1.0  0.5654562109389939  0.04305433731711261  0.39717506948394243  1.0000
  H   H702      1.0  0.591645039218328  0.05618893723584892  0.4616318327598694  1.0000
  H   H703      1.0  0.5620550417976186  0.0595543684284711  0.24645833232443204  1.0000
  H   H704      1.0  0.5864098651128914  0.08370090526226677  0.20032258592927632  1.0000
  H   H705      1.0  0.5640896719361981  0.0989956509959024  0.27700939266649804  1.0000
  H   H706      1.0  0.5992917888858235  0.11697989125445898  0.3632327418893482  1.0000
  H   H707      1.0  0.6227214783412783  0.10182910434797253  0.2899958601904211  1.0000
  H   H708      1.0  0.6239669832307564  0.09116650234091274  0.4005684252853956  1.0000
  N   N44       1.0  0.7977803265401392  0.6160898080095524  0.3061051671009323  1.0000
  C   C461      1.0  0.8042577198307252  0.6460879902440845  0.2685300371657988  1.0000
  C   C462      1.0  0.7814227069073326  0.5990118534226222  0.24621302321528726  1.0000
  C   C463      1.0  0.78363606823103  0.6204702709350987  0.387578186334548  1.0000
  C   C464      1.0  0.8217614074025777  0.5987404792906407  0.3222006324343234  1.0000
  H   H709      1.0  0.7865822019396269  0.6592113769147835  0.2517123942846664  1.0000
  H   H710      1.0  0.8160225046231007  0.6436930296003492  0.20911064307662697  1.0000
  H   H711      1.0  0.8154752996365762  0.6602994817064078  0.3136348200010257  1.0000
  H   H712      1.0  0.7629967957044017  0.6113280390126968  0.2335691334971124  1.0000
  H   H713      1.0  0.7913117458399802  0.5954146329990113  0.18367919437240277  1.0000
  H   H714      1.0  0.776134339468534  0.5762084508794363  0.27234617191098826  1.0000
  H   H715      1.0  0.7958908304323983  0.6312805232735321  0.4365944000318891  1.0000
  H   H716      1.0  0.7765621997431088  0.5984700403191174  0.41440782339618587  1.0000
  H   H717      1.0  0.7666114473017351  0.635514454528489  0.379029183055763  1.0000
  H   H718      1.0  0.8347572245886858  0.6113895012757824  0.36580299221446005  1.0000
  H   H719      1.0  0.8327243850167796  0.5945021270287725  0.2619079700958882  1.0000
  H   H720      1.0  0.8174799380185741  0.5762814313552415  0.3521689562093846  1.0000
  N   N45       1.0  0.5225390399386494  0.7633799920233808  0.7689816856432744  1.0000
  C   C465      1.0  0.5360338074015554  0.7336848988548531  0.763508280145546  1.0000
  C   C466      1.0  0.5319585865280224  0.7804894265844218  0.8434891409718909  1.0000
  C   C467      1.0  0.49448874407341825  0.7583762592805741  0.7784123825619421  1.0000
  C   C468      1.0  0.5276636274531592  0.7810902653182792  0.6903240304888335  1.0000
  H   H721      1.0  0.5291809507157212  0.7201014263745322  0.7083533850663216  1.0000
  H   H722      1.0  0.5329475085007624  0.7198542290715637  0.8223877523843368  1.0000
  H   H723      1.0  0.5572430828237085  0.7367354087516512  0.7559633670192467  1.0000
  H   H724      1.0  0.5209757422408197  0.8020748095682273  0.8527531456121383  1.0000
  H   H725      1.0  0.530194856594198  0.7669924459641152  0.9034807238084781  1.0000
  H   H726      1.0  0.552622636647034  0.7866152777360542  0.8356039805966395  1.0000
  H   H727      1.0  0.4867014420666598  0.7456900224814168  0.7230145753331647  1.0000
  H   H728      1.0  0.4837850470162257  0.7804480912430847  0.7826428382796099  1.0000
  H   H729      1.0  0.4899175085231136  0.7450282710400096  0.8370330941380448  1.0000
  H   H730      1.0  0.5205624958689511  0.7690613593316861  0.6328226767246974  1.0000
  H   H731      1.0  0.5486340585215964  0.785303586100766  0.680955031330115  1.0000
  H   H732      1.0  0.5179313045000362  0.8036841345844127  0.6927767097116928  1.0000
  N   N46       1.0  0.016753377602025443  0.8117348743483875  0.31097539984190603  1.0000
  C   C469      1.0  0.03365051707778011  0.8375169304338669  0.3330027926005479  1.0000
  C   C470      1.0  0.9895962384933481  0.8221696547894558  0.3120955103997134  1.0000
  C   C471      1.0  0.020277016387793445  0.7868712891743267  0.3738491826118979  1.0000
  C   C472      1.0  0.023551178675918827  0.8004363291197982  0.22479347982173237  1.0000
  H   H733      1.0  0.03226064728669775  0.8562133200041324  0.28498573732273935  1.0000
  H   H734      1.0  0.054221639192585824  0.8302356404200634  0.33594499539527534  1.0000
  H   H735      1.0  0.02828991803578007  0.8474744871910818  0.3960529422283898  1.0000
  H   H736      1.0  0.9761081677342587  0.8033128401378714  0.2972421137232759  1.0000
  H   H737      1.0  0.9839181847142815  0.8315420189258815  0.37561675218995005  1.0000
  H   H738      1.0  0.9863107166871355  0.8407400763495777  0.2646753928493144  1.0000
  H   H739      1.0  0.0073081245631174685  0.7672601143004164  0.36078222351034483  1.0000
  H   H740      1.0  0.016068400795337112  0.7947466573854853  0.44000529700222724  1.0000
  H   H741      1.0  0.040452596758074  0.7779862005813252  0.37266913305832783  1.0000
  H   H742      1.0  0.010728589099745722  0.7814580200235821  0.20538937039037797  1.0000
  H   H743      1.0  0.04370159842414645  0.791591504610836  0.22240207962005298  1.0000
  H   H744      1.0  0.022044728516838807  0.8188583442534134  0.1760024699697389  1.0000
  N   N47       1.0  0.3183646524708042  0.5275628118279568  0.35236716148395475  1.0000
  C   C473      1.0  0.33456900754119906  0.5549517152771375  0.34162120771957794  1.0000
  C   C474      1.0  0.292199004120199  0.536887227766914  0.3805638733880232  1.0000
  C   C475      1.0  0.3299581469731069  0.5071564508438174  0.41694865557221816  1.0000
  C   C476      1.0  0.31679796209465955  0.5112423079102959  0.2701548421050153  1.0000
  H   H745      1.0  0.3547627633461534  0.5488066972920382  0.3236892835968319  1.0000
  H   H746      1.0  0.3355300635243892  0.5682445911343766  0.4019055184484239  1.0000
  H   H747      1.0  0.326788024666491  0.5704735954533969  0.2917008535706418  1.0000
  H   H748      1.0  0.279425074124333  0.516916721761227  0.3903714726515206  1.0000
  H   H749      1.0  0.2926180273575827  0.5494105163410014  0.4421203728657699  1.0000
  H   H750      1.0  0.28271204442815495  0.5521411095917045  0.33322217175805235  1.0000
  H   H751      1.0  0.3316494676593338  0.5185207797996338  0.4798148091149279  1.0000
  H   H752      1.0  0.34963204346629273  0.4995776051715651  0.3972607961698744  1.0000
  H   H753      1.0  0.31823676781797  0.4863164379996517  0.4271669319506224  1.0000
  H   H754      1.0  0.3049269088782926  0.4902692066545543  0.2763011825261459  1.0000
  H   H755      1.0  0.3362441467725651  0.5039194126090325  0.24712291091637817  1.0000
  H   H756      1.0  0.30792872300442964  0.5257527408452755  0.219858988091449  1.0000
  N   N48       1.0  0.6508088796839087  0.7052391886728858  0.33978360154070875  1.0000
  C   C477      1.0  0.6250541817423411  0.719282412437446  0.328881390395682  1.0000
  C   C478      1.0  0.6589578622412852  0.708438832801701  0.4294828245450859  1.0000
  C   C479      1.0  0.6695775072934312  0.7206338247923326  0.2829783497832892  1.0000
  C   C480      1.0  0.6496338625116577  0.6725691806777673  0.31754584664185925  1.0000
  H   H757      1.0  0.6251866076914222  0.743981436989559  0.3447258137887712  1.0000
  H   H758      1.0  0.6102941200073335  0.7079412662939636  0.3700107208651249  1.0000
  H   H759      1.0  0.6183282110884326  0.7171527314801602  0.2618511544930209  1.0000
  H   H760      1.0  0.6782791715572517  0.6979620324030674  0.4399865750061309  1.0000
  H   H761      1.0  0.6602771838937601  0.7328153638707222  0.44819558280496885  1.0000
  H   H762      1.0  0.6452107861267883  0.6970254777073412  0.4740647568173091  1.0000
  H   H763      1.0  0.6892265705677431  0.7105861956713585  0.28896666648174807  1.0000
  H   H764      1.0  0.671134911758893  0.7453791671348069  0.2974994192517577  1.0000
  H   H765      1.0  0.66396421729775  0.7186342845209395  0.21487408887389714  1.0000
  H   H766      1.0  0.6356964900999215  0.6601296333234113  0.3592479125204655  1.0000
  H   H767      1.0  0.668662103293963  0.6612296321103867  0.32395373586131826  1.0000
  H   H768      1.0  0.6434485447252041  0.6692653248389718  0.2504274258505492  1.0000
